MODEL 1
REMARK VINA RESULT:      -7.0      0.000      0.000
REMARK  Name = 
REMARK  7 active torsions:
REMARK  status: ('A' for Active; 'I' for Inactive)
REMARK    1  A    between atoms: C_1  and  C_2
REMARK    2  A    between atoms: C_8  and  C_9
REMARK    3  A    between atoms: N_15  and  C1*_16
REMARK    4  A    between atoms: C4*_18  and  C5*_19
REMARK    5  A    between atoms: C5*_19  and  O5*_20
REMARK    6  A    between atoms: C3*_21  and  O3*_22
REMARK    7  A    between atoms: C2*_23  and  O2*_24
REMARK                            x       y       z     vdW  Elec       q    Type
REMARK                         _______ _______ _______ _____ _____    ______ ____
ROOT
ATOM      1  C   UNL     1       4.912   3.376  19.153  0.00  0.00    +0.000 C 
ATOM      2  C   UNL     1       3.806   4.326  19.486  0.00  0.00    +0.000 A 
ATOM      3  N   UNL     1       2.959   3.905  20.469  0.00  0.00    +0.000 NA
ATOM      4  C   UNL     1       1.945   4.697  20.843  0.00  0.00    +0.000 A 
ATOM      5  N   UNL     1       1.636   5.902  20.357  0.00  0.00    +0.000 NA
ATOM      6  C   UNL     1       2.477   6.295  19.388  0.00  0.00    +0.000 A 
ATOM      7  C   UNL     1       3.565   5.577  18.882  0.00  0.00    +0.000 A 
ATOM      8  C   UNL     1       4.131   6.397  17.850  0.00  0.00    +0.000 A 
ATOM      9  C   UNL     1       3.409   7.575  17.803  0.00  0.00    +0.000 A 
ATOM     10  N   UNL     1       2.392   7.493  18.723  0.00  0.00    +0.000 N 
ENDROOT
BRANCH   8  11
ATOM     11  C   UNL     1       5.269   6.095  16.987  0.00  0.00    +0.000 A 
ATOM     12  C   UNL     1       5.231   5.217  15.872  0.00  0.00    +0.000 A 
ATOM     13  C   UNL     1       6.501   5.212  15.340  0.00  0.00    +0.000 A 
ATOM     14  O   UNL     1       7.325   5.997  16.079  0.00  0.00    +0.000 OA
ATOM     15  C   UNL     1       6.577   6.505  17.094  0.00  0.00    +0.000 A 
ENDBRANCH   8  11
BRANCH  10  16
ATOM     16  C1* UNL     1       1.369   8.513  18.910  0.00  0.00    +0.000 C 
ATOM     17  O4* UNL     1       1.402   9.456  17.813  0.00  0.00    +0.000 OA
ATOM     18  C4* UNL     1       1.190  10.787  18.351  0.00  0.00    +0.000 C 
ATOM     19  C3* UNL     1       0.802  10.613  19.817  0.00  0.00    +0.000 C 
ATOM     20  C2* UNL     1       1.477   9.308  20.211  0.00  0.00    +0.000 C 
BRANCH  19  21
ATOM     21  O3* UNL     1      -0.621  10.437  19.976  0.00  0.00    +0.000 OA
ATOM     22  H3* UNL     1      -0.788   9.591  20.432  0.00  0.00    +0.000 HD
ENDBRANCH  19  21
BRANCH  20  23
ATOM     23  O2* UNL     1       0.798   8.683  21.302  0.00  0.00    +0.000 OA
ATOM     24  H2* UNL     1       0.859   9.310  22.054  0.00  0.00    +0.000 HD
ENDBRANCH  20  23
BRANCH  18  25
ATOM     25  C5* UNL     1       2.457  11.624  18.164  0.00  0.00    +0.000 C 
BRANCH  25  26
ATOM     26  O5* UNL     1       2.161  12.780  17.384  0.00  0.00    +0.000 OA
ATOM     27  H5* UNL     1       1.938  12.448  16.492  0.00  0.00    +0.000 HD
ENDBRANCH  25  26
ENDBRANCH  18  25
ENDBRANCH  10  16
TORSDOF 6
ENDMDL
MODEL 2
REMARK VINA RESULT:      -6.6      2.702      4.514
REMARK  Name = 
REMARK  7 active torsions:
REMARK  status: ('A' for Active; 'I' for Inactive)
REMARK    1  A    between atoms: C_1  and  C_2
REMARK    2  A    between atoms: C_8  and  C_9
REMARK    3  A    between atoms: N_15  and  C1*_16
REMARK    4  A    between atoms: C4*_18  and  C5*_19
REMARK    5  A    between atoms: C5*_19  and  O5*_20
REMARK    6  A    between atoms: C3*_21  and  O3*_22
REMARK    7  A    between atoms: C2*_23  and  O2*_24
REMARK                            x       y       z     vdW  Elec       q    Type
REMARK                         _______ _______ _______ _____ _____    ______ ____
ROOT
ATOM      1  C   UNL     1       3.936   4.020  17.957  0.00  0.00    +0.000 C 
ATOM      2  C   UNL     1       3.610   5.479  17.997  0.00  0.00    +0.000 A 
ATOM      3  N   UNL     1       4.183   6.227  17.010  0.00  0.00    +0.000 NA
ATOM      4  C   UNL     1       3.936   7.542  16.958  0.00  0.00    +0.000 A 
ATOM      5  N   UNL     1       3.168   8.257  17.786  0.00  0.00    +0.000 NA
ATOM      6  C   UNL     1       2.619   7.504  18.752  0.00  0.00    +0.000 A 
ATOM      7  C   UNL     1       2.793   6.131  18.944  0.00  0.00    +0.000 A 
ATOM      8  C   UNL     1       2.031   5.797  20.112  0.00  0.00    +0.000 A 
ATOM      9  C   UNL     1       1.400   6.948  20.546  0.00  0.00    +0.000 A 
ATOM     10  N   UNL     1       1.783   7.984  19.729  0.00  0.00    +0.000 N 
ENDROOT
BRANCH   8  11
ATOM     11  C   UNL     1       1.901   4.495  20.758  0.00  0.00    +0.000 A 
ATOM     12  C   UNL     1       0.940   3.509  20.410  0.00  0.00    +0.000 A 
ATOM     13  C   UNL     1       1.156   2.443  21.254  0.00  0.00    +0.000 A 
ATOM     14  O   UNL     1       2.158   2.726  22.124  0.00  0.00    +0.000 OA
ATOM     15  C   UNL     1       2.585   3.984  21.836  0.00  0.00    +0.000 A 
ENDBRANCH   8  11
BRANCH  10  16
ATOM     16  C1* UNL     1       1.386   9.372  19.921  0.00  0.00    +0.000 C 
ATOM     17  O4* UNL     1       1.471   9.724  21.321  0.00  0.00    +0.000 OA
ATOM     18  C4* UNL     1       0.331  10.559  21.651  0.00  0.00    +0.000 C 
ATOM     19  C3* UNL     1      -0.362  10.898  20.335  0.00  0.00    +0.000 C 
ATOM     20  C2* UNL     1      -0.024   9.715  19.440  0.00  0.00    +0.000 C 
BRANCH  19  21
ATOM     21  O3* UNL     1       0.195  12.082  19.726  0.00  0.00    +0.000 OA
ATOM     22  H3* UNL     1      -0.106  12.135  18.800  0.00  0.00    +0.000 HD
ENDBRANCH  19  21
BRANCH  20  23
ATOM     23  O2* UNL     1      -0.066  10.082  18.060  0.00  0.00    +0.000 OA
ATOM     24  H2* UNL     1       0.757  10.588  17.889  0.00  0.00    +0.000 HD
ENDBRANCH  20  23
BRANCH  18  25
ATOM     25  C5* UNL     1      -0.581   9.818  22.632  0.00  0.00    +0.000 C 
BRANCH  25  26
ATOM     26  O5* UNL     1       0.090   9.648  23.879  0.00  0.00    +0.000 OA
ATOM     27  H5* UNL     1      -0.574   9.273  24.489  0.00  0.00    +0.000 HD
ENDBRANCH  25  26
ENDBRANCH  18  25
ENDBRANCH  10  16
TORSDOF 6
ENDMDL
MODEL 3
REMARK VINA RESULT:      -6.5      2.127      6.612
REMARK  Name = 
REMARK  7 active torsions:
REMARK  status: ('A' for Active; 'I' for Inactive)
REMARK    1  A    between atoms: C_1  and  C_2
REMARK    2  A    between atoms: C_8  and  C_9
REMARK    3  A    between atoms: N_15  and  C1*_16
REMARK    4  A    between atoms: C4*_18  and  C5*_19
REMARK    5  A    between atoms: C5*_19  and  O5*_20
REMARK    6  A    between atoms: C3*_21  and  O3*_22
REMARK    7  A    between atoms: C2*_23  and  O2*_24
REMARK                            x       y       z     vdW  Elec       q    Type
REMARK                         _______ _______ _______ _____ _____    ______ ____
ROOT
ATOM      1  C   UNL     1       1.101   4.388  20.051  0.00  0.00    +0.000 C 
ATOM      2  C   UNL     1       2.210   4.218  19.063  0.00  0.00    +0.000 A 
ATOM      3  N   UNL     1       2.532   2.925  18.771  0.00  0.00    +0.000 NA
ATOM      4  C   UNL     1       3.505   2.676  17.885  0.00  0.00    +0.000 A 
ATOM      5  N   UNL     1       4.242   3.570  17.218  0.00  0.00    +0.000 NA
ATOM      6  C   UNL     1       3.913   4.835  17.523  0.00  0.00    +0.000 A 
ATOM      7  C   UNL     1       2.937   5.249  18.433  0.00  0.00    +0.000 A 
ATOM      8  C   UNL     1       2.980   6.683  18.430  0.00  0.00    +0.000 A 
ATOM      9  C   UNL     1       3.929   7.074  17.503  0.00  0.00    +0.000 A 
ATOM     10  N   UNL     1       4.508   5.945  16.976  0.00  0.00    +0.000 N 
ENDROOT
BRANCH   8  11
ATOM     11  C   UNL     1       2.182   7.607  19.229  0.00  0.00    +0.000 A 
ATOM     12  C   UNL     1       1.621   8.820  18.748  0.00  0.00    +0.000 A 
ATOM     13  C   UNL     1       0.953   9.385  19.811  0.00  0.00    +0.000 A 
ATOM     14  O   UNL     1       1.100   8.621  20.922  0.00  0.00    +0.000 OA
ATOM     15  C   UNL     1       1.872   7.559  20.568  0.00  0.00    +0.000 A 
ENDBRANCH   8  11
BRANCH  10  16
ATOM     16  C1* UNL     1       5.609   5.954  16.024  0.00  0.00    +0.000 C 
ATOM     17  O4* UNL     1       5.105   5.779  14.680  0.00  0.00    +0.000 OA
ATOM     18  C4* UNL     1       6.014   4.902  13.964  0.00  0.00    +0.000 C 
ATOM     19  C3* UNL     1       7.235   4.708  14.857  0.00  0.00    +0.000 C 
ATOM     20  C2* UNL     1       6.680   4.888  16.262  0.00  0.00    +0.000 C 
BRANCH  19  21
ATOM     21  O3* UNL     1       8.225   5.736  14.642  0.00  0.00    +0.000 OA
ATOM     22  H3* UNL     1       8.542   6.058  15.506  0.00  0.00    +0.000 HD
ENDBRANCH  19  21
BRANCH  20  23
ATOM     23  O2* UNL     1       7.697   5.316  17.170  0.00  0.00    +0.000 OA
ATOM     24  H2* UNL     1       7.345   5.147  18.070  0.00  0.00    +0.000 HD
ENDBRANCH  20  23
BRANCH  18  25
ATOM     25  C5* UNL     1       5.303   3.589  13.630  0.00  0.00    +0.000 C 
BRANCH  25  26
ATOM     26  O5* UNL     1       6.087   2.838  12.707  0.00  0.00    +0.000 OA
ATOM     27  H5* UNL     1       6.756   3.460  12.358  0.00  0.00    +0.000 HD
ENDBRANCH  25  26
ENDBRANCH  18  25
ENDBRANCH  10  16
TORSDOF 6
ENDMDL
MODEL 4
REMARK VINA RESULT:      -6.2      2.034      6.340
REMARK  Name = 
REMARK  7 active torsions:
REMARK  status: ('A' for Active; 'I' for Inactive)
REMARK    1  A    between atoms: C_1  and  C_2
REMARK    2  A    between atoms: C_8  and  C_9
REMARK    3  A    between atoms: N_15  and  C1*_16
REMARK    4  A    between atoms: C4*_18  and  C5*_19
REMARK    5  A    between atoms: C5*_19  and  O5*_20
REMARK    6  A    between atoms: C3*_21  and  O3*_22
REMARK    7  A    between atoms: C2*_23  and  O2*_24
REMARK                            x       y       z     vdW  Elec       q    Type
REMARK                         _______ _______ _______ _____ _____    ______ ____
ROOT
ATOM      1  C   UNL     1       0.105   4.710  20.493  0.00  0.00    +0.000 C 
ATOM      2  C   UNL     1       1.322   4.203  19.787  0.00  0.00    +0.000 A 
ATOM      3  N   UNL     1       1.421   2.844  19.710  0.00  0.00    +0.000 NA
ATOM      4  C   UNL     1       2.472   2.299  19.082  0.00  0.00    +0.000 A 
ATOM      5  N   UNL     1       3.488   2.940  18.496  0.00  0.00    +0.000 NA
ATOM      6  C   UNL     1       3.373   4.274  18.588  0.00  0.00    +0.000 A 
ATOM      7  C   UNL     1       2.348   4.985  19.219  0.00  0.00    +0.000 A 
ATOM      8  C   UNL     1       2.684   6.372  19.073  0.00  0.00    +0.000 A 
ATOM      9  C   UNL     1       3.850   6.448  18.333  0.00  0.00    +0.000 A 
ATOM     10  N   UNL     1       4.273   5.169  18.065  0.00  0.00    +0.000 N 
ENDROOT
BRANCH   8  11
ATOM     11  C   UNL     1       1.955   7.530  19.581  0.00  0.00    +0.000 A 
ATOM     12  C   UNL     1       1.604   8.669  18.810  0.00  0.00    +0.000 A 
ATOM     13  C   UNL     1       0.934   9.520  19.661  0.00  0.00    +0.000 A 
ATOM     14  O   UNL     1       0.887   8.997  20.911  0.00  0.00    +0.000 OA
ATOM     15  C   UNL     1       1.535   7.803  20.861  0.00  0.00    +0.000 A 
ENDBRANCH   8  11
BRANCH  10  16
ATOM     16  C1* UNL     1       5.513   4.842  17.373  0.00  0.00    +0.000 C 
ATOM     17  O4* UNL     1       6.499   4.369  18.319  0.00  0.00    +0.000 OA
ATOM     18  C4* UNL     1       7.789   4.922  17.947  0.00  0.00    +0.000 C 
ATOM     19  C3* UNL     1       7.605   5.592  16.589  0.00  0.00    +0.000 C 
ATOM     20  C2* UNL     1       6.138   5.995  16.586  0.00  0.00    +0.000 C 
BRANCH  19  21
ATOM     21  O3* UNL     1       7.808   4.665  15.502  0.00  0.00    +0.000 OA
ATOM     22  H3* UNL     1       8.579   4.952  14.979  0.00  0.00    +0.000 HD
ENDBRANCH  19  21
BRANCH  20  23
ATOM     23  O2* UNL     1       5.632   6.096  15.254  0.00  0.00    +0.000 OA
ATOM     24  H2* UNL     1       6.415   6.064  14.664  0.00  0.00    +0.000 HD
ENDBRANCH  20  23
BRANCH  18  25
ATOM     25  C5* UNL     1       8.264   5.890  19.032  0.00  0.00    +0.000 C 
BRANCH  25  26
ATOM     26  O5* UNL     1       7.830   5.432  20.311  0.00  0.00    +0.000 OA
ATOM     27  H5* UNL     1       6.886   5.201  20.203  0.00  0.00    +0.000 HD
ENDBRANCH  25  26
ENDBRANCH  18  25
ENDBRANCH  10  16
TORSDOF 6
ENDMDL
MODEL 5
REMARK VINA RESULT:      -6.1      2.704      6.890
REMARK  Name = 
REMARK  7 active torsions:
REMARK  status: ('A' for Active; 'I' for Inactive)
REMARK    1  A    between atoms: C_1  and  C_2
REMARK    2  A    between atoms: C_8  and  C_9
REMARK    3  A    between atoms: N_15  and  C1*_16
REMARK    4  A    between atoms: C4*_18  and  C5*_19
REMARK    5  A    between atoms: C5*_19  and  O5*_20
REMARK    6  A    between atoms: C3*_21  and  O3*_22
REMARK    7  A    between atoms: C2*_23  and  O2*_24
REMARK                            x       y       z     vdW  Elec       q    Type
REMARK                         _______ _______ _______ _____ _____    ______ ____
ROOT
ATOM      1  C   UNL     1       1.322  10.612  19.063  0.00  0.00    +0.000 C 
ATOM      2  C   UNL     1       1.858   9.265  18.699  0.00  0.00    +0.000 A 
ATOM      3  N   UNL     1       2.357   9.164  17.433  0.00  0.00    +0.000 NA
ATOM      4  C   UNL     1       2.873   7.998  17.023  0.00  0.00    +0.000 A 
ATOM      5  N   UNL     1       2.966   6.862  17.722  0.00  0.00    +0.000 NA
ATOM      6  C   UNL     1       2.465   6.982  18.961  0.00  0.00    +0.000 A 
ATOM      7  C   UNL     1       1.885   8.122  19.524  0.00  0.00    +0.000 A 
ATOM      8  C   UNL     1       1.482   7.746  20.848  0.00  0.00    +0.000 A 
ATOM      9  C   UNL     1       1.868   6.433  21.049  0.00  0.00    +0.000 A 
ATOM     10  N   UNL     1       2.441   5.970  19.890  0.00  0.00    +0.000 N 
ENDROOT
BRANCH   8  11
ATOM     11  C   UNL     1       0.798   8.564  21.845  0.00  0.00    +0.000 A 
ATOM     12  C   UNL     1      -0.599   8.820  21.864  0.00  0.00    +0.000 A 
ATOM     13  C   UNL     1      -0.828   9.628  22.955  0.00  0.00    +0.000 A 
ATOM     14  O   UNL     1       0.340   9.917  23.583  0.00  0.00    +0.000 OA
ATOM     15  C   UNL     1       1.325   9.292  22.885  0.00  0.00    +0.000 A 
ENDBRANCH   8  11
BRANCH  10  16
ATOM     16  C1* UNL     1       2.900   4.603  19.689  0.00  0.00    +0.000 C 
ATOM     17  O4* UNL     1       4.345   4.567  19.634  0.00  0.00    +0.000 OA
ATOM     18  C4* UNL     1       4.738   3.625  18.601  0.00  0.00    +0.000 C 
ATOM     19  C3* UNL     1       3.469   2.904  18.157  0.00  0.00    +0.000 C 
ATOM     20  C2* UNL     1       2.369   3.920  18.428  0.00  0.00    +0.000 C 
BRANCH  19  21
ATOM     21  O3* UNL     1       3.202   1.742  18.968  0.00  0.00    +0.000 OA
ATOM     22  H3* UNL     1       2.280   1.780  19.285  0.00  0.00    +0.000 HD
ENDBRANCH  19  21
BRANCH  20  23
ATOM     23  O2* UNL     1       1.110   3.277  18.633  0.00  0.00    +0.000 OA
ATOM     24  H2* UNL     1       1.007   3.187  19.605  0.00  0.00    +0.000 HD
ENDBRANCH  20  23
BRANCH  18  25
ATOM     25  C5* UNL     1       5.431   4.374  17.461  0.00  0.00    +0.000 C 
BRANCH  25  26
ATOM     26  O5* UNL     1       5.712   5.713  17.864  0.00  0.00    +0.000 OA
ATOM     27  H5* UNL     1       5.108   5.898  18.610  0.00  0.00    +0.000 HD
ENDBRANCH  25  26
ENDBRANCH  18  25
ENDBRANCH  10  16
TORSDOF 6
ENDMDL
MODEL 6
REMARK VINA RESULT:      -6.0      2.682      6.961
REMARK  Name = 
REMARK  7 active torsions:
REMARK  status: ('A' for Active; 'I' for Inactive)
REMARK    1  A    between atoms: C_1  and  C_2
REMARK    2  A    between atoms: C_8  and  C_9
REMARK    3  A    between atoms: N_15  and  C1*_16
REMARK    4  A    between atoms: C4*_18  and  C5*_19
REMARK    5  A    between atoms: C5*_19  and  O5*_20
REMARK    6  A    between atoms: C3*_21  and  O3*_22
REMARK    7  A    between atoms: C2*_23  and  O2*_24
REMARK                            x       y       z     vdW  Elec       q    Type
REMARK                         _______ _______ _______ _____ _____    ______ ____
ROOT
ATOM      1  C   UNL     1       1.151  11.070  18.837  0.00  0.00    +0.000 C 
ATOM      2  C   UNL     1       1.662   9.673  18.683  0.00  0.00    +0.000 A 
ATOM      3  N   UNL     1       2.265   9.406  17.489  0.00  0.00    +0.000 NA
ATOM      4  C   UNL     1       2.766   8.183  17.267  0.00  0.00    +0.000 A 
ATOM      5  N   UNL     1       2.751   7.138  18.099  0.00  0.00    +0.000 NA
ATOM      6  C   UNL     1       2.150   7.420  19.265  0.00  0.00    +0.000 A 
ATOM      7  C   UNL     1       1.570   8.637  19.635  0.00  0.00    +0.000 A 
ATOM      8  C   UNL     1       1.039   8.435  20.952  0.00  0.00    +0.000 A 
ATOM      9  C   UNL     1       1.352   7.145  21.340  0.00  0.00    +0.000 A 
ATOM     10  N   UNL     1       2.005   6.529  20.299  0.00  0.00    +0.000 N 
ENDROOT
BRANCH   8  11
ATOM     11  C   UNL     1       0.305   9.387  21.780  0.00  0.00    +0.000 A 
ATOM     12  C   UNL     1      -0.575  10.384  21.283  0.00  0.00    +0.000 A 
ATOM     13  C   UNL     1      -1.052  11.061  22.383  0.00  0.00    +0.000 A 
ATOM     14  O   UNL     1      -0.492  10.573  23.518  0.00  0.00    +0.000 OA
ATOM     15  C   UNL     1       0.353   9.577  23.141  0.00  0.00    +0.000 A 
ENDBRANCH   8  11
BRANCH  10  16
ATOM     16  C1* UNL     1       2.423   5.134  20.303  0.00  0.00    +0.000 C 
ATOM     17  O4* UNL     1       3.779   5.021  19.811  0.00  0.00    +0.000 OA
ATOM     18  C4* UNL     1       3.860   3.843  18.967  0.00  0.00    +0.000 C 
ATOM     19  C3* UNL     1       2.540   3.094  19.129  0.00  0.00    +0.000 C 
ATOM     20  C2* UNL     1       1.547   4.194  19.475  0.00  0.00    +0.000 C 
BRANCH  19  21
ATOM     21  O3* UNL     1       2.580   2.173  20.238  0.00  0.00    +0.000 OA
ATOM     22  H3* UNL     1       2.283   2.634  21.045  0.00  0.00    +0.000 HD
ENDBRANCH  19  21
BRANCH  20  23
ATOM     23  O2* UNL     1       0.438   3.676  20.212  0.00  0.00    +0.000 OA
ATOM     24  H2* UNL     1      -0.161   3.269  19.549  0.00  0.00    +0.000 HD
ENDBRANCH  20  23
BRANCH  18  25
ATOM     25  C5* UNL     1       4.135   4.264  17.522  0.00  0.00    +0.000 C 
BRANCH  25  26
ATOM     26  O5* UNL     1       5.061   5.348  17.504  0.00  0.00    +0.000 OA
ATOM     27  H5* UNL     1       5.260   5.511  16.561  0.00  0.00    +0.000 HD
ENDBRANCH  25  26
ENDBRANCH  18  25
ENDBRANCH  10  16
TORSDOF 6
ENDMDL
MODEL 7
REMARK VINA RESULT:      -6.0      3.128      7.252
REMARK  Name = 
REMARK  7 active torsions:
REMARK  status: ('A' for Active; 'I' for Inactive)
REMARK    1  A    between atoms: C_1  and  C_2
REMARK    2  A    between atoms: C_8  and  C_9
REMARK    3  A    between atoms: N_15  and  C1*_16
REMARK    4  A    between atoms: C4*_18  and  C5*_19
REMARK    5  A    between atoms: C5*_19  and  O5*_20
REMARK    6  A    between atoms: C3*_21  and  O3*_22
REMARK    7  A    between atoms: C2*_23  and  O2*_24
REMARK                            x       y       z     vdW  Elec       q    Type
REMARK                         _______ _______ _______ _____ _____    ______ ____
ROOT
ATOM      1  C   UNL     1       1.240  11.024  19.391  0.00  0.00    +0.000 C 
ATOM      2  C   UNL     1       1.740   9.731  18.832  0.00  0.00    +0.000 A 
ATOM      3  N   UNL     1       2.194   9.793  17.547  0.00  0.00    +0.000 NA
ATOM      4  C   UNL     1       2.675   8.685  16.968  0.00  0.00    +0.000 A 
ATOM      5  N   UNL     1       2.771   7.466  17.505  0.00  0.00    +0.000 NA
ATOM      6  C   UNL     1       2.315   7.425  18.767  0.00  0.00    +0.000 A 
ATOM      7  C   UNL     1       1.774   8.487  19.496  0.00  0.00    +0.000 A 
ATOM      8  C   UNL     1       1.410   7.943  20.773  0.00  0.00    +0.000 A 
ATOM      9  C   UNL     1       1.779   6.611  20.784  0.00  0.00    +0.000 A 
ATOM     10  N   UNL     1       2.305   6.299  19.553  0.00  0.00    +0.000 N 
ENDROOT
BRANCH   8  11
ATOM     11  C   UNL     1       0.775   8.630  21.893  0.00  0.00    +0.000 A 
ATOM     12  C   UNL     1      -0.625   8.815  22.043  0.00  0.00    +0.000 A 
ATOM     13  C   UNL     1      -0.800   9.505  23.222  0.00  0.00    +0.000 A 
ATOM     14  O   UNL     1       0.401   9.791  23.784  0.00  0.00    +0.000 OA
ATOM     15  C   UNL     1       1.353   9.282  22.956  0.00  0.00    +0.000 A 
ENDBRANCH   8  11
BRANCH  10  16
ATOM     16  C1* UNL     1       2.732   4.965  19.156  0.00  0.00    +0.000 C 
ATOM     17  O4* UNL     1       1.642   4.027  19.312  0.00  0.00    +0.000 OA
ATOM     18  C4* UNL     1       2.181   2.787  19.841  0.00  0.00    +0.000 C 
ATOM     19  C3* UNL     1       3.701   2.916  19.804  0.00  0.00    +0.000 C 
ATOM     20  C2* UNL     1       3.934   4.415  19.926  0.00  0.00    +0.000 C 
BRANCH  19  21
ATOM     21  O3* UNL     1       4.244   2.489  18.538  0.00  0.00    +0.000 OA
ATOM     22  H3* UNL     1       4.088   1.532  18.432  0.00  0.00    +0.000 HD
ENDBRANCH  19  21
BRANCH  20  23
ATOM     23  O2* UNL     1       5.184   4.792  19.347  0.00  0.00    +0.000 OA
ATOM     24  H2* UNL     1       5.190   4.411  18.443  0.00  0.00    +0.000 HD
ENDBRANCH  20  23
BRANCH  18  25
ATOM     25  C5* UNL     1       1.635   2.551  21.251  0.00  0.00    +0.000 C 
BRANCH  25  26
ATOM     26  O5* UNL     1       2.716   2.404  22.168  0.00  0.00    +0.000 OA
ATOM     27  H5* UNL     1       2.686   1.474  22.467  0.00  0.00    +0.000 HD
ENDBRANCH  25  26
ENDBRANCH  18  25
ENDBRANCH  10  16
TORSDOF 6
ENDMDL
MODEL 8
REMARK VINA RESULT:      -5.9      1.713      6.211
REMARK  Name = 
REMARK  7 active torsions:
REMARK  status: ('A' for Active; 'I' for Inactive)
REMARK    1  A    between atoms: C_1  and  C_2
REMARK    2  A    between atoms: C_8  and  C_9
REMARK    3  A    between atoms: N_15  and  C1*_16
REMARK    4  A    between atoms: C4*_18  and  C5*_19
REMARK    5  A    between atoms: C5*_19  and  O5*_20
REMARK    6  A    between atoms: C3*_21  and  O3*_22
REMARK    7  A    between atoms: C2*_23  and  O2*_24
REMARK                            x       y       z     vdW  Elec       q    Type
REMARK                         _______ _______ _______ _____ _____    ______ ____
ROOT
ATOM      1  C   UNL     1       0.372   6.282  21.148  0.00  0.00    +0.000 C 
ATOM      2  C   UNL     1       1.523   5.563  20.520  0.00  0.00    +0.000 A 
ATOM      3  N   UNL     1       1.748   4.305  20.996  0.00  0.00    +0.000 NA
ATOM      4  C   UNL     1       2.750   3.580  20.482  0.00  0.00    +0.000 A 
ATOM      5  N   UNL     1       3.604   3.943  19.520  0.00  0.00    +0.000 NA
ATOM      6  C   UNL     1       3.368   5.185  19.070  0.00  0.00    +0.000 A 
ATOM      7  C   UNL     1       2.376   6.063  19.514  0.00  0.00    +0.000 A 
ATOM      8  C   UNL     1       2.545   7.267  18.753  0.00  0.00    +0.000 A 
ATOM      9  C   UNL     1       3.582   7.059  17.862  0.00  0.00    +0.000 A 
ATOM     10  N   UNL     1       4.091   5.802  18.079  0.00  0.00    +0.000 N 
ENDROOT
BRANCH   8  11
ATOM     11  C   UNL     1       1.781   8.507  18.851  0.00  0.00    +0.000 A 
ATOM     12  C   UNL     1       1.387   9.307  17.746  0.00  0.00    +0.000 A 
ATOM     13  C   UNL     1       0.695  10.375  18.271  0.00  0.00    +0.000 A 
ATOM     14  O   UNL     1       0.673  10.305  19.625  0.00  0.00    +0.000 OA
ATOM     15  C   UNL     1       1.360   9.184  19.971  0.00  0.00    +0.000 A 
ENDBRANCH   8  11
BRANCH  10  16
ATOM     16  C1* UNL     1       5.248   5.253  17.385  0.00  0.00    +0.000 C 
ATOM     17  O4* UNL     1       6.157   4.650  18.335  0.00  0.00    +0.000 OA
ATOM     18  C4* UNL     1       7.515   4.969  17.932  0.00  0.00    +0.000 C 
ATOM     19  C3* UNL     1       7.424   5.621  16.555  0.00  0.00    +0.000 C 
ATOM     20  C2* UNL     1       6.044   6.262  16.556  0.00  0.00    +0.000 C 
BRANCH  19  21
ATOM     21  O3* UNL     1       7.452   4.641  15.497  0.00  0.00    +0.000 OA
ATOM     22  H3* UNL     1       7.388   3.749  15.887  0.00  0.00    +0.000 HD
ENDBRANCH  19  21
BRANCH  20  23
ATOM     23  O2* UNL     1       5.541   6.407  15.226  0.00  0.00    +0.000 OA
ATOM     24  H2* UNL     1       6.296   6.217  14.629  0.00  0.00    +0.000 HD
ENDBRANCH  20  23
BRANCH  18  25
ATOM     25  C5* UNL     1       8.161   5.877  18.981  0.00  0.00    +0.000 C 
BRANCH  25  26
ATOM     26  O5* UNL     1       7.788   5.445  20.288  0.00  0.00    +0.000 OA
ATOM     27  H5* UNL     1       8.507   5.742  20.880  0.00  0.00    +0.000 HD
ENDBRANCH  25  26
ENDBRANCH  18  25
ENDBRANCH  10  16
TORSDOF 6
ENDMDL
MODEL 9
REMARK VINA RESULT:      -5.9      2.248      4.354
REMARK  Name = 
REMARK  7 active torsions:
REMARK  status: ('A' for Active; 'I' for Inactive)
REMARK    1  A    between atoms: C_1  and  C_2
REMARK    2  A    between atoms: C_8  and  C_9
REMARK    3  A    between atoms: N_15  and  C1*_16
REMARK    4  A    between atoms: C4*_18  and  C5*_19
REMARK    5  A    between atoms: C5*_19  and  O5*_20
REMARK    6  A    between atoms: C3*_21  and  O3*_22
REMARK    7  A    between atoms: C2*_23  and  O2*_24
REMARK                            x       y       z     vdW  Elec       q    Type
REMARK                         _______ _______ _______ _____ _____    ______ ____
ROOT
ATOM      1  C   UNL     1       4.070   3.439  17.447  0.00  0.00    +0.000 C 
ATOM      2  C   UNL     1       3.926   4.926  17.519  0.00  0.00    +0.000 A 
ATOM      3  N   UNL     1       4.630   5.621  16.580  0.00  0.00    +0.000 NA
ATOM      4  C   UNL     1       4.551   6.958  16.559  0.00  0.00    +0.000 A 
ATOM      5  N   UNL     1       3.841   7.741  17.377  0.00  0.00    +0.000 NA
ATOM      6  C   UNL     1       3.161   7.038  18.296  0.00  0.00    +0.000 A 
ATOM      7  C   UNL     1       3.155   5.649  18.452  0.00  0.00    +0.000 A 
ATOM      8  C   UNL     1       2.306   5.383  19.577  0.00  0.00    +0.000 A 
ATOM      9  C   UNL     1       1.804   6.593  20.021  0.00  0.00    +0.000 A 
ATOM     10  N   UNL     1       2.348   7.594  19.253  0.00  0.00    +0.000 N 
ENDROOT
BRANCH   8  11
ATOM     11  C   UNL     1       1.988   4.091  20.176  0.00  0.00    +0.000 A 
ATOM     12  C   UNL     1       1.190   3.088  19.565  0.00  0.00    +0.000 A 
ATOM     13  C   UNL     1       1.137   2.040  20.456  0.00  0.00    +0.000 A 
ATOM     14  O   UNL     1       1.814   2.349  21.590  0.00  0.00    +0.000 OA
ATOM     15  C   UNL     1       2.303   3.607  21.424  0.00  0.00    +0.000 A 
ENDBRANCH   8  11
BRANCH  10  16
ATOM     16  C1* UNL     1       2.119   9.015  19.472  0.00  0.00    +0.000 C 
ATOM     17  O4* UNL     1       1.589   9.233  20.800  0.00  0.00    +0.000 OA
ATOM     18  C4* UNL     1       0.565  10.259  20.719  0.00  0.00    +0.000 C 
ATOM     19  C3* UNL     1       0.628  10.833  19.307  0.00  0.00    +0.000 C 
ATOM     20  C2* UNL     1       1.166   9.678  18.476  0.00  0.00    +0.000 C 
BRANCH  19  21
ATOM     21  O3* UNL     1       1.574  11.919  19.213  0.00  0.00    +0.000 OA
ATOM     22  H3* UNL     1       1.324  12.494  18.466  0.00  0.00    +0.000 HD
ENDBRANCH  19  21
BRANCH  20  23
ATOM     23  O2* UNL     1       1.830  10.150  17.303  0.00  0.00    +0.000 OA
ATOM     24  H2* UNL     1       2.734  10.405  17.587  0.00  0.00    +0.000 HD
ENDBRANCH  20  23
BRANCH  18  25
ATOM     25  C5* UNL     1      -0.798   9.650  21.056  0.00  0.00    +0.000 C 
BRANCH  25  26
ATOM     26  O5* UNL     1      -0.630   8.571  21.972  0.00  0.00    +0.000 OA
ATOM     27  H5* UNL     1       0.056   7.994  21.581  0.00  0.00    +0.000 HD
ENDBRANCH  25  26
ENDBRANCH  18  25
ENDBRANCH  10  16
TORSDOF 6
ENDMDL
