MODEL 1
REMARK VINA RESULT:      -8.4      0.000      0.000
REMARK  Name = 
REMARK  1 active torsions:
REMARK  status: ('A' for Active; 'I' for Inactive)
REMARK    1  A    between atoms: O_1  and  C_2
REMARK                            x       y       z     vdW  Elec       q    Type
REMARK                         _______ _______ _______ _____ _____    ______ ____
ROOT
ATOM      1  C   UNL     1       2.044   9.071  18.303  0.00  0.00    +0.000 A 
ATOM      2  C   UNL     1       1.295   9.226  19.457  0.00  0.00    +0.000 A 
ATOM      3  C   UNL     1       1.181   8.173  20.375  0.00  0.00    +0.000 A 
ATOM      4  C   UNL     1       1.892   6.993  20.108  0.00  0.00    +0.000 A 
ATOM      5  N   UNL     1       1.959   5.817  20.816  0.00  0.00    +0.000 N 
ATOM      6  C   UNL     1       2.794   4.931  20.196  0.00  0.00    +0.000 A 
ATOM      7  N   UNL     1       3.032   3.690  20.645  0.00  0.00    +0.000 NA
ATOM      8  C   UNL     1       3.889   3.041  19.843  0.00  0.00    +0.000 A 
ATOM      9  N   UNL     1       4.503   3.509  18.735  0.00  0.00    +0.000 NA
ATOM     10  C   UNL     1       4.282   4.791  18.330  0.00  0.00    +0.000 A 
ATOM     11  N   UNL     1       5.009   5.260  17.260  0.00  0.00    +0.000 N 
ATOM     12  C   UNL     1       5.416   4.368  16.175  0.00  0.00    +0.000 C 
ATOM     13  C   UNL     1       6.920   4.503  15.885  0.00  0.00    +0.000 C 
ATOM     14  O   UNL     1       7.325   5.872  15.714  0.00  0.00    +0.000 OA
ATOM     15  C   UNL     1       7.038   6.617  16.907  0.00  0.00    +0.000 C 
ATOM     16  C   UNL     1       5.535   6.621  17.198  0.00  0.00    +0.000 C 
ATOM     17  C   UNL     1       3.327   5.539  19.066  0.00  0.00    +0.000 A 
ATOM     18  C   UNL     1       2.688   6.827  18.972  0.00  0.00    +0.000 A 
ATOM     19  C   UNL     1       2.703   7.876  18.031  0.00  0.00    +0.000 A 
ATOM     20  H   UNL     1       1.465   5.613  21.673  0.00  0.00    +0.000 HD
ENDROOT
BRANCH   1  21
ATOM     21  O   UNL     1       2.180  10.073  17.388  0.00  0.00    +0.000 OA
ATOM     22  H   UNL     1       1.301  10.332  17.071  0.00  0.00    +0.000 HD
ENDBRANCH   1  21
TORSDOF 1
ENDMDL
MODEL 2
REMARK VINA RESULT:      -7.4      1.392      5.152
REMARK  Name = 
REMARK  1 active torsions:
REMARK  status: ('A' for Active; 'I' for Inactive)
REMARK    1  A    between atoms: O_1  and  C_2
REMARK                            x       y       z     vdW  Elec       q    Type
REMARK                         _______ _______ _______ _____ _____    ______ ____
ROOT
ATOM      1  C   UNL     1       6.321   6.235  16.823  0.00  0.00    +0.000 A 
ATOM      2  C   UNL     1       6.652   5.098  16.104  0.00  0.00    +0.000 A 
ATOM      3  C   UNL     1       5.905   3.922  16.256  0.00  0.00    +0.000 A 
ATOM      4  C   UNL     1       4.792   3.959  17.111  0.00  0.00    +0.000 A 
ATOM      5  N   UNL     1       3.901   2.970  17.450  0.00  0.00    +0.000 N 
ATOM      6  C   UNL     1       2.953   3.454  18.307  0.00  0.00    +0.000 A 
ATOM      7  N   UNL     1       1.968   2.709  18.829  0.00  0.00    +0.000 NA
ATOM      8  C   UNL     1       1.183   3.438  19.635  0.00  0.00    +0.000 A 
ATOM      9  N   UNL     1       1.278   4.756  19.913  0.00  0.00    +0.000 NA
ATOM     10  C   UNL     1       2.259   5.501  19.329  0.00  0.00    +0.000 A 
ATOM     11  N   UNL     1       2.255   6.858  19.555  0.00  0.00    +0.000 N 
ATOM     12  C   UNL     1       1.781   7.410  20.825  0.00  0.00    +0.000 C 
ATOM     13  C   UNL     1       0.750   8.527  20.589  0.00  0.00    +0.000 C 
ATOM     14  O   UNL     1       1.212   9.510  19.647  0.00  0.00    +0.000 OA
ATOM     15  C   UNL     1       1.480   8.885  18.384  0.00  0.00    +0.000 C 
ATOM     16  C   UNL     1       2.584   7.833  18.519  0.00  0.00    +0.000 C 
ATOM     17  C   UNL     1       3.194   4.806  18.519  0.00  0.00    +0.000 A 
ATOM     18  C   UNL     1       4.414   5.105  17.815  0.00  0.00    +0.000 A 
ATOM     19  C   UNL     1       5.245   6.239  17.703  0.00  0.00    +0.000 A 
ATOM     20  H   UNL     1       3.926   2.014  17.128  0.00  0.00    +0.000 HD
ENDROOT
BRANCH   1  21
ATOM     21  O   UNL     1       7.023   7.398  16.700  0.00  0.00    +0.000 OA
ATOM     22  H   UNL     1       7.820   7.231  16.172  0.00  0.00    +0.000 HD
ENDBRANCH   1  21
TORSDOF 1
ENDMDL
MODEL 3
REMARK VINA RESULT:      -7.3      2.505      5.553
REMARK  Name = 
REMARK  1 active torsions:
REMARK  status: ('A' for Active; 'I' for Inactive)
REMARK    1  A    between atoms: O_1  and  C_2
REMARK                            x       y       z     vdW  Elec       q    Type
REMARK                         _______ _______ _______ _____ _____    ______ ____
ROOT
ATOM      1  C   UNL     1       1.211   2.651  19.073  0.00  0.00    +0.000 A 
ATOM      2  C   UNL     1       2.058   1.558  18.992  0.00  0.00    +0.000 A 
ATOM      3  C   UNL     1       3.356   1.704  18.484  0.00  0.00    +0.000 A 
ATOM      4  C   UNL     1       3.774   2.993  18.119  0.00  0.00    +0.000 A 
ATOM      5  N   UNL     1       4.969   3.422  17.594  0.00  0.00    +0.000 N 
ATOM      6  C   UNL     1       4.950   4.776  17.405  0.00  0.00    +0.000 A 
ATOM      7  N   UNL     1       5.970   5.471  16.881  0.00  0.00    +0.000 NA
ATOM      8  C   UNL     1       5.680   6.778  16.812  0.00  0.00    +0.000 A 
ATOM      9  N   UNL     1       4.556   7.401  17.224  0.00  0.00    +0.000 NA
ATOM     10  C   UNL     1       3.555   6.677  17.800  0.00  0.00    +0.000 A 
ATOM     11  N   UNL     1       2.474   7.363  18.303  0.00  0.00    +0.000 N 
ATOM     12  C   UNL     1       2.011   8.603  17.679  0.00  0.00    +0.000 C 
ATOM     13  C   UNL     1       1.849   9.718  18.725  0.00  0.00    +0.000 C 
ATOM     14  O   UNL     1       1.073   9.297  19.861  0.00  0.00    +0.000 OA
ATOM     15  C   UNL     1       1.713   8.184  20.501  0.00  0.00    +0.000 C 
ATOM     16  C   UNL     1       1.809   6.989  19.548  0.00  0.00    +0.000 C 
ATOM     17  C   UNL     1       3.730   5.269  17.848  0.00  0.00    +0.000 A 
ATOM     18  C   UNL     1       2.953   4.118  18.230  0.00  0.00    +0.000 A 
ATOM     19  C   UNL     1       1.626   3.912  18.660  0.00  0.00    +0.000 A 
ATOM     20  H   UNL     1       5.761   2.838  17.366  0.00  0.00    +0.000 HD
ENDROOT
BRANCH   1  21
ATOM     21  O   UNL     1      -0.058   2.549  19.564  0.00  0.00    +0.000 OA
ATOM     22  H   UNL     1      -0.022   2.154  20.449  0.00  0.00    +0.000 HD
ENDBRANCH   1  21
TORSDOF 1
ENDMDL
MODEL 4
REMARK VINA RESULT:      -7.2      2.449      5.479
REMARK  Name = 
REMARK  1 active torsions:
REMARK  status: ('A' for Active; 'I' for Inactive)
REMARK    1  A    between atoms: O_1  and  C_2
REMARK                            x       y       z     vdW  Elec       q    Type
REMARK                         _______ _______ _______ _____ _____    ______ ____
ROOT
ATOM      1  C   UNL     1       2.044   3.007  20.718  0.00  0.00    +0.000 A 
ATOM      2  C   UNL     1       3.048   2.067  20.887  0.00  0.00    +0.000 A 
ATOM      3  C   UNL     1       4.287   2.232  20.253  0.00  0.00    +0.000 A 
ATOM      4  C   UNL     1       4.485   3.398  19.497  0.00  0.00    +0.000 A 
ATOM      5  N   UNL     1       5.577   3.811  18.773  0.00  0.00    +0.000 N 
ATOM      6  C   UNL     1       5.340   5.031  18.204  0.00  0.00    +0.000 A 
ATOM      7  N   UNL     1       6.218   5.671  17.418  0.00  0.00    +0.000 NA
ATOM      8  C   UNL     1       5.726   6.846  16.999  0.00  0.00    +0.000 A 
ATOM      9  N   UNL     1       4.534   7.402  17.305  0.00  0.00    +0.000 NA
ATOM     10  C   UNL     1       3.682   6.752  18.147  0.00  0.00    +0.000 A 
ATOM     11  N   UNL     1       2.527   7.402  18.517  0.00  0.00    +0.000 N 
ATOM     12  C   UNL     1       1.853   8.323  17.602  0.00  0.00    +0.000 C 
ATOM     13  C   UNL     1       1.559   9.666  18.290  0.00  0.00    +0.000 C 
ATOM     14  O   UNL     1       0.902   9.500  19.560  0.00  0.00    +0.000 OA
ATOM     15  C   UNL     1       1.732   8.727  20.439  0.00  0.00    +0.000 C 
ATOM     16  C   UNL     1       1.977   7.328  19.867  0.00  0.00    +0.000 C 
ATOM     17  C   UNL     1       4.075   5.461  18.584  0.00  0.00    +0.000 A 
ATOM     18  C   UNL     1       3.503   4.380  19.346  0.00  0.00    +0.000 A 
ATOM     19  C   UNL     1       2.242   4.132  19.925  0.00  0.00    +0.000 A 
ATOM     20  H   UNL     1       6.441   3.301  18.660  0.00  0.00    +0.000 HD
ENDROOT
BRANCH   1  21
ATOM     21  O   UNL     1       0.827   2.882  21.321  0.00  0.00    +0.000 OA
ATOM     22  H   UNL     1       0.588   3.730  21.726  0.00  0.00    +0.000 HD
ENDBRANCH   1  21
TORSDOF 1
ENDMDL
MODEL 5
REMARK VINA RESULT:      -6.9      3.294      6.449
REMARK  Name = 
REMARK  1 active torsions:
REMARK  status: ('A' for Active; 'I' for Inactive)
REMARK    1  A    between atoms: O_1  and  C_2
REMARK                            x       y       z     vdW  Elec       q    Type
REMARK                         _______ _______ _______ _____ _____    ______ ____
ROOT
ATOM      1  C   UNL     1       5.192   3.638  12.646  0.00  0.00    +0.000 A 
ATOM      2  C   UNL     1       6.499   3.805  12.216  0.00  0.00    +0.000 A 
ATOM      3  C   UNL     1       7.443   4.426  13.044  0.00  0.00    +0.000 A 
ATOM      4  C   UNL     1       7.032   4.815  14.328  0.00  0.00    +0.000 A 
ATOM      5  N   UNL     1       7.731   5.442  15.332  0.00  0.00    +0.000 N 
ATOM      6  C   UNL     1       6.938   5.614  16.431  0.00  0.00    +0.000 A 
ATOM      7  N   UNL     1       7.343   6.222  17.556  0.00  0.00    +0.000 NA
ATOM      8  C   UNL     1       6.363   6.252  18.471  0.00  0.00    +0.000 A 
ATOM      9  N   UNL     1       5.120   5.734  18.371  0.00  0.00    +0.000 NA
ATOM     10  C   UNL     1       4.751   5.077  17.235  0.00  0.00    +0.000 A 
ATOM     11  N   UNL     1       3.515   4.472  17.216  0.00  0.00    +0.000 N 
ATOM     12  C   UNL     1       2.387   5.040  17.954  0.00  0.00    +0.000 C 
ATOM     13  C   UNL     1       1.709   3.972  18.829  0.00  0.00    +0.000 C 
ATOM     14  O   UNL     1       1.399   2.776  18.094  0.00  0.00    +0.000 OA
ATOM     15  C   UNL     1       2.603   2.207  17.561  0.00  0.00    +0.000 C 
ATOM     16  C   UNL     1       3.279   3.176  16.587  0.00  0.00    +0.000 C 
ATOM     17  C   UNL     1       5.692   5.059  16.172  0.00  0.00    +0.000 A 
ATOM     18  C   UNL     1       5.732   4.620  14.801  0.00  0.00    +0.000 A 
ATOM     19  C   UNL     1       4.791   4.074  13.904  0.00  0.00    +0.000 A 
ATOM     20  H   UNL     1       8.692   5.745  15.284  0.00  0.00    +0.000 HD
ENDROOT
BRANCH   1  21
ATOM     21  O   UNL     1       4.246   3.036  11.870  0.00  0.00    +0.000 OA
ATOM     22  H   UNL     1       3.644   2.532  12.441  0.00  0.00    +0.000 HD
ENDBRANCH   1  21
TORSDOF 1
ENDMDL
MODEL 6
REMARK VINA RESULT:      -6.8      2.895      4.617
REMARK  Name = 
REMARK  1 active torsions:
REMARK  status: ('A' for Active; 'I' for Inactive)
REMARK    1  A    between atoms: O_1  and  C_2
REMARK                            x       y       z     vdW  Elec       q    Type
REMARK                         _______ _______ _______ _____ _____    ______ ____
ROOT
ATOM      1  C   UNL     1      -0.035   8.987  21.595  0.00  0.00    +0.000 A 
ATOM      2  C   UNL     1      -0.288  10.149  20.884  0.00  0.00    +0.000 A 
ATOM      3  C   UNL     1       0.377  10.399  19.676  0.00  0.00    +0.000 A 
ATOM      4  C   UNL     1       1.254   9.415  19.196  0.00  0.00    +0.000 A 
ATOM      5  N   UNL     1       2.033   9.396  18.064  0.00  0.00    +0.000 N 
ATOM      6  C   UNL     1       2.724   8.220  17.978  0.00  0.00    +0.000 A 
ATOM      7  N   UNL     1       3.585   7.930  16.992  0.00  0.00    +0.000 NA
ATOM      8  C   UNL     1       4.120   6.712  17.158  0.00  0.00    +0.000 A 
ATOM      9  N   UNL     1       3.857   5.818  18.134  0.00  0.00    +0.000 NA
ATOM     10  C   UNL     1       2.940   6.118  19.097  0.00  0.00    +0.000 A 
ATOM     11  N   UNL     1       2.624   5.139  20.010  0.00  0.00    +0.000 N 
ATOM     12  C   UNL     1       3.621   4.159  20.441  0.00  0.00    +0.000 C 
ATOM     13  C   UNL     1       3.074   2.727  20.322  0.00  0.00    +0.000 C 
ATOM     14  O   UNL     1       1.786   2.578  20.944  0.00  0.00    +0.000 OA
ATOM     15  C   UNL     1       0.842   3.463  20.323  0.00  0.00    +0.000 C 
ATOM     16  C   UNL     1       1.265   4.924  20.500  0.00  0.00    +0.000 C 
ATOM     17  C   UNL     1       2.374   7.419  19.057  0.00  0.00    +0.000 A 
ATOM     18  C   UNL     1       1.495   8.217  19.873  0.00  0.00    +0.000 A 
ATOM     19  C   UNL     1       0.874   8.045  21.127  0.00  0.00    +0.000 A 
ATOM     20  H   UNL     1       2.104  10.136  17.381  0.00  0.00    +0.000 HD
ENDROOT
BRANCH   1  21
ATOM     21  O   UNL     1      -0.665   8.708  22.772  0.00  0.00    +0.000 OA
ATOM     22  H   UNL     1      -0.148   8.044  23.255  0.00  0.00    +0.000 HD
ENDBRANCH   1  21
TORSDOF 1
ENDMDL
MODEL 7
REMARK VINA RESULT:      -6.7      2.335      4.377
REMARK  Name = 
REMARK  1 active torsions:
REMARK  status: ('A' for Active; 'I' for Inactive)
REMARK    1  A    between atoms: O_1  and  C_2
REMARK                            x       y       z     vdW  Elec       q    Type
REMARK                         _______ _______ _______ _____ _____    ______ ____
ROOT
ATOM      1  C   UNL     1       4.332   2.195  20.468  0.00  0.00    +0.000 A 
ATOM      2  C   UNL     1       3.203   2.246  21.270  0.00  0.00    +0.000 A 
ATOM      3  C   UNL     1       2.361   3.366  21.237  0.00  0.00    +0.000 A 
ATOM      4  C   UNL     1       2.672   4.392  20.333  0.00  0.00    +0.000 A 
ATOM      5  N   UNL     1       2.038   5.588  20.096  0.00  0.00    +0.000 N 
ATOM      6  C   UNL     1       2.678   6.281  19.106  0.00  0.00    +0.000 A 
ATOM      7  N   UNL     1       2.300   7.495  18.680  0.00  0.00    +0.000 NA
ATOM      8  C   UNL     1       3.103   7.937  17.703  0.00  0.00    +0.000 A 
ATOM      9  N   UNL     1       4.151   7.299  17.139  0.00  0.00    +0.000 NA
ATOM     10  C   UNL     1       4.482   6.045  17.556  0.00  0.00    +0.000 A 
ATOM     11  N   UNL     1       5.487   5.389  16.882  0.00  0.00    +0.000 N 
ATOM     12  C   UNL     1       6.609   6.125  16.298  0.00  0.00    +0.000 C 
ATOM     13  C   UNL     1       6.823   5.726  14.829  0.00  0.00    +0.000 C 
ATOM     14  O   UNL     1       6.888   4.300  14.650  0.00  0.00    +0.000 OA
ATOM     15  C   UNL     1       5.664   3.698  15.095  0.00  0.00    +0.000 C 
ATOM     16  C   UNL     1       5.438   3.960  16.587  0.00  0.00    +0.000 C 
ATOM     17  C   UNL     1       3.741   5.516  18.645  0.00  0.00    +0.000 A 
ATOM     18  C   UNL     1       3.780   4.346  19.484  0.00  0.00    +0.000 A 
ATOM     19  C   UNL     1       4.651   3.244  19.613  0.00  0.00    +0.000 A 
ATOM     20  H   UNL     1       1.219   5.930  20.576  0.00  0.00    +0.000 HD
ENDROOT
BRANCH   1  21
ATOM     21  O   UNL     1       5.173   1.122  20.470  0.00  0.00    +0.000 OA
ATOM     22  H   UNL     1       5.383   0.889  21.388  0.00  0.00    +0.000 HD
ENDBRANCH   1  21
TORSDOF 1
ENDMDL
MODEL 8
REMARK VINA RESULT:      -6.4      2.633      4.496
REMARK  Name = 
REMARK  1 active torsions:
REMARK  status: ('A' for Active; 'I' for Inactive)
REMARK    1  A    between atoms: O_1  and  C_2
REMARK                            x       y       z     vdW  Elec       q    Type
REMARK                         _______ _______ _______ _____ _____    ______ ____
ROOT
ATOM      1  C   UNL     1       3.204   1.634  18.759  0.00  0.00    +0.000 A 
ATOM      2  C   UNL     1       1.986   1.756  19.408  0.00  0.00    +0.000 A 
ATOM      3  C   UNL     1       1.396   3.016  19.574  0.00  0.00    +0.000 A 
ATOM      4  C   UNL     1       2.052   4.125  19.017  0.00  0.00    +0.000 A 
ATOM      5  N   UNL     1       1.713   5.456  19.033  0.00  0.00    +0.000 N 
ATOM      6  C   UNL     1       2.636   6.193  18.345  0.00  0.00    +0.000 A 
ATOM      7  N   UNL     1       2.580   7.526  18.215  0.00  0.00    +0.000 NA
ATOM      8  C   UNL     1       3.611   7.986  17.490  0.00  0.00    +0.000 A 
ATOM      9  N   UNL     1       4.595   7.272  16.904  0.00  0.00    +0.000 NA
ATOM     10  C   UNL     1       4.599   5.913  17.010  0.00  0.00    +0.000 A 
ATOM     11  N   UNL     1       5.558   5.218  16.309  0.00  0.00    +0.000 N 
ATOM     12  C   UNL     1       6.885   5.789  16.077  0.00  0.00    +0.000 C 
ATOM     13  C   UNL     1       7.267   5.706  14.590  0.00  0.00    +0.000 C 
ATOM     14  O   UNL     1       7.083   4.386  14.048  0.00  0.00    +0.000 OA
ATOM     15  C   UNL     1       5.707   3.998  14.171  0.00  0.00    +0.000 C 
ATOM     16  C   UNL     1       5.284   3.949  15.641  0.00  0.00    +0.000 C 
ATOM     17  C   UNL     1       3.594   5.332  17.825  0.00  0.00    +0.000 A 
ATOM     18  C   UNL     1       3.259   4.022  18.322  0.00  0.00    +0.000 A 
ATOM     19  C   UNL     1       3.863   2.750  18.256  0.00  0.00    +0.000 A 
ATOM     20  H   UNL     1       0.906   5.857  19.488  0.00  0.00    +0.000 HD
ENDROOT
BRANCH   1  21
ATOM     21  O   UNL     1       3.808   0.424  18.575  0.00  0.00    +0.000 OA
ATOM     22  H   UNL     1       4.767   0.558  18.510  0.00  0.00    +0.000 HD
ENDBRANCH   1  21
TORSDOF 1
ENDMDL
MODEL 9
REMARK VINA RESULT:      -6.3      9.000     10.511
REMARK  Name = 
REMARK  1 active torsions:
REMARK  status: ('A' for Active; 'I' for Inactive)
REMARK    1  A    between atoms: O_1  and  C_2
REMARK                            x       y       z     vdW  Elec       q    Type
REMARK                         _______ _______ _______ _____ _____    ______ ____
ROOT
ATOM      1  C   UNL     1      11.052  13.248  17.245  0.00  0.00    +0.000 A 
ATOM      2  C   UNL     1      11.856  12.187  17.631  0.00  0.00    +0.000 A 
ATOM      3  C   UNL     1      11.741  11.643  18.916  0.00  0.00    +0.000 A 
ATOM      4  C   UNL     1      10.756  12.170  19.765  0.00  0.00    +0.000 A 
ATOM      5  N   UNL     1      10.429  11.841  21.059  0.00  0.00    +0.000 N 
ATOM      6  C   UNL     1       9.383  12.603  21.497  0.00  0.00    +0.000 A 
ATOM      7  N   UNL     1       8.866  12.521  22.732  0.00  0.00    +0.000 NA
ATOM      8  C   UNL     1       7.850  13.382  22.889  0.00  0.00    +0.000 A 
ATOM      9  N   UNL     1       7.331  14.227  21.974  0.00  0.00    +0.000 NA
ATOM     10  C   UNL     1       7.844  14.254  20.711  0.00  0.00    +0.000 A 
ATOM     11  N   UNL     1       7.216  15.051  19.781  0.00  0.00    +0.000 N 
ATOM     12  C   UNL     1       6.568  16.302  20.174  0.00  0.00    +0.000 C 
ATOM     13  C   UNL     1       5.133  16.374  19.626  0.00  0.00    +0.000 C 
ATOM     14  O   UNL     1       5.067  16.085  18.218  0.00  0.00    +0.000 OA
ATOM     15  C   UNL     1       5.567  14.763  17.970  0.00  0.00    +0.000 C 
ATOM     16  C   UNL     1       7.035  14.648  18.389  0.00  0.00    +0.000 C 
ATOM     17  C   UNL     1       8.976  13.436  20.463  0.00  0.00    +0.000 A 
ATOM     18  C   UNL     1       9.905  13.211  19.386  0.00  0.00    +0.000 A 
ATOM     19  C   UNL     1      10.114  13.790  18.117  0.00  0.00    +0.000 A 
ATOM     20  H   UNL     1      10.887  11.142  21.626  0.00  0.00    +0.000 HD
ENDROOT
BRANCH   1  21
ATOM     21  O   UNL     1      11.133  13.803  16.002  0.00  0.00    +0.000 OA
ATOM     22  H   UNL     1      11.923  14.363  15.958  0.00  0.00    +0.000 HD
ENDBRANCH   1  21
TORSDOF 1
ENDMDL
