MODEL 1
REMARK VINA RESULT:      -7.9      0.000      0.000
REMARK  Name = 
REMARK  5 active torsions:
REMARK  status: ('A' for Active; 'I' for Inactive)
REMARK    1  A    between atoms: C_2  and  O_3
REMARK    2  A    between atoms: C_2  and  C_4
REMARK    3  A    between atoms: C_6  and  C_7
REMARK    4  A    between atoms: N_10  and  C_11
REMARK    5  A    between atoms: C_11  and  C_12
REMARK                            x       y       z     vdW  Elec       q    Type
REMARK                         _______ _______ _______ _____ _____    ______ ____
ROOT
ATOM      1  C   UNL     1       6.343   5.098  16.791  0.00  0.00    +0.000 A 
ATOM      2  C   UNL     1       7.316   5.254  17.812  0.00  0.00    +0.000 A 
ATOM      3  C   UNL     1       6.644   5.452  18.999  0.00  0.00    +0.000 A 
ATOM      4  N   UNL     1       5.299   5.438  18.728  0.00  0.00    +0.000 N 
ATOM      5  C   UNL     1       5.105   5.244  17.384  0.00  0.00    +0.000 A 
ENDROOT
BRANCH   1   8
ATOM      6  C   UNL     1       6.456   3.924  13.349  0.00  0.00    +0.000 A 
ATOM      7  C   UNL     1       5.961   3.806  14.633  0.00  0.00    +0.000 A 
ATOM      8  C   UNL     1       6.626   4.799  15.386  0.00  0.00    +0.000 A 
ATOM      9  N   UNL     1       7.514   5.471  14.647  0.00  0.00    +0.000 NA
ATOM     10  N   UNL     1       7.404   4.912  13.430  0.00  0.00    +0.000 N 
ATOM     11  H   UNL     1       7.988   5.261  12.674  0.00  0.00    +0.000 HD
BRANCH   6  13
ATOM     12  O   UNL     1       5.105   3.305  11.529  0.00  0.00    +0.000 OA
ATOM     13  C   UNL     1       6.177   3.262  12.111  0.00  0.00    +0.000 C 
BRANCH  13  14
ATOM     14  O   UNL     1       7.226   2.543  11.643  0.00  0.00    +0.000 OA
ATOM     15  H   UNL     1       7.329   2.571  10.676  0.00  0.00    +0.000 HD
ENDBRANCH  13  14
ENDBRANCH   6  13
ENDBRANCH   1   8
BRANCH   4  16
ATOM     16  C   UNL     1       4.243   5.542  19.727  0.00  0.00    +0.000 C 
BRANCH  16  17
ATOM     17  C   UNL     1       3.145   4.546  19.456  0.00  0.00    +0.000 A 
ATOM     18  C   UNL     1       3.162   3.286  20.075  0.00  0.00    +0.000 A 
ATOM     19  C   UNL     1       2.184   2.338  19.771  0.00  0.00    +0.000 A 
ATOM     20  C   UNL     1       1.192   2.647  18.849  0.00  0.00    +0.000 A 
ATOM     21  F   UNL     1       0.267   1.728  18.543  0.00  0.00    +0.000 F 
ATOM     22  C   UNL     1       1.149   3.892  18.234  0.00  0.00    +0.000 A 
ATOM     23  C   UNL     1       2.123   4.844  18.536  0.00  0.00    +0.000 A 
ENDBRANCH  16  17
ENDBRANCH   4  16
TORSDOF 5
ENDMDL
MODEL 2
REMARK VINA RESULT:      -7.6      3.010      3.574
REMARK  Name = 
REMARK  5 active torsions:
REMARK  status: ('A' for Active; 'I' for Inactive)
REMARK    1  A    between atoms: C_2  and  O_3
REMARK    2  A    between atoms: C_2  and  C_4
REMARK    3  A    between atoms: C_6  and  C_7
REMARK    4  A    between atoms: N_10  and  C_11
REMARK    5  A    between atoms: C_11  and  C_12
REMARK                            x       y       z     vdW  Elec       q    Type
REMARK                         _______ _______ _______ _____ _____    ______ ____
ROOT
ATOM      1  C   UNL     1       5.593   5.242  17.260  0.00  0.00    +0.000 A 
ATOM      2  C   UNL     1       6.216   5.148  18.533  0.00  0.00    +0.000 A 
ATOM      3  C   UNL     1       5.239   5.324  19.487  0.00  0.00    +0.000 A 
ATOM      4  N   UNL     1       4.049   5.538  18.837  0.00  0.00    +0.000 N 
ATOM      5  C   UNL     1       4.257   5.509  17.482  0.00  0.00    +0.000 A 
ENDROOT
BRANCH   1   8
ATOM      6  C   UNL     1       6.660   4.347  13.899  0.00  0.00    +0.000 A 
ATOM      7  C   UNL     1       5.817   4.148  14.975  0.00  0.00    +0.000 A 
ATOM      8  C   UNL     1       6.259   5.045  15.972  0.00  0.00    +0.000 A 
ATOM      9  N   UNL     1       7.334   5.734  15.578  0.00  0.00    +0.000 NA
ATOM     10  N   UNL     1       7.565   5.281  14.334  0.00  0.00    +0.000 N 
ATOM     11  H   UNL     1       8.347   5.664  13.809  0.00  0.00    +0.000 HD
BRANCH   6  13
ATOM     12  O   UNL     1       7.330   4.317  11.647  0.00  0.00    +0.000 OA
ATOM     13  C   UNL     1       6.733   3.800  12.578  0.00  0.00    +0.000 C 
BRANCH  13  14
ATOM     14  O   UNL     1       6.042   2.644  12.441  0.00  0.00    +0.000 OA
ATOM     15  H   UNL     1       6.250   2.148  11.631  0.00  0.00    +0.000 HD
ENDBRANCH  13  14
ENDBRANCH   6  13
ENDBRANCH   1   8
BRANCH   4  16
ATOM     16  C   UNL     1       2.755   5.697  19.489  0.00  0.00    +0.000 C 
BRANCH  16  17
ATOM     17  C   UNL     1       2.259   7.114  19.360  0.00  0.00    +0.000 A 
ATOM     18  C   UNL     1       1.657   7.757  20.455  0.00  0.00    +0.000 A 
ATOM     19  C   UNL     1       1.136   9.043  20.317  0.00  0.00    +0.000 A 
ATOM     20  C   UNL     1       1.211   9.687  19.087  0.00  0.00    +0.000 A 
ATOM     21  F   UNL     1       0.690  10.913  18.951  0.00  0.00    +0.000 F 
ATOM     22  C   UNL     1       1.812   9.074  17.994  0.00  0.00    +0.000 A 
ATOM     23  C   UNL     1       2.338   7.789  18.129  0.00  0.00    +0.000 A 
ENDBRANCH  16  17
ENDBRANCH   4  16
TORSDOF 5
ENDMDL
MODEL 3
REMARK VINA RESULT:      -7.6      0.653      1.074
REMARK  Name = 
REMARK  5 active torsions:
REMARK  status: ('A' for Active; 'I' for Inactive)
REMARK    1  A    between atoms: C_2  and  O_3
REMARK    2  A    between atoms: C_2  and  C_4
REMARK    3  A    between atoms: C_6  and  C_7
REMARK    4  A    between atoms: N_10  and  C_11
REMARK    5  A    between atoms: C_11  and  C_12
REMARK                            x       y       z     vdW  Elec       q    Type
REMARK                         _______ _______ _______ _____ _____    ______ ____
ROOT
ATOM      1  C   UNL     1       6.213   5.092  16.708  0.00  0.00    +0.000 A 
ATOM      2  C   UNL     1       7.129   5.007  17.789  0.00  0.00    +0.000 A 
ATOM      3  C   UNL     1       6.451   5.359  18.936  0.00  0.00    +0.000 A 
ATOM      4  N   UNL     1       5.162   5.669  18.584  0.00  0.00    +0.000 N 
ATOM      5  C   UNL     1       5.011   5.529  17.228  0.00  0.00    +0.000 A 
ENDROOT
BRANCH   1   8
ATOM      6  C   UNL     1       6.328   3.797  13.309  0.00  0.00    +0.000 A 
ATOM      7  C   UNL     1       5.812   3.741  14.590  0.00  0.00    +0.000 A 
ATOM      8  C   UNL     1       6.503   4.735  15.319  0.00  0.00    +0.000 A 
ATOM      9  N   UNL     1       7.423   5.349  14.570  0.00  0.00    +0.000 NA
ATOM     10  N   UNL     1       7.309   4.754  13.371  0.00  0.00    +0.000 N 
ATOM     11  H   UNL     1       7.915   5.056  12.612  0.00  0.00    +0.000 HD
BRANCH   6  13
ATOM     12  O   UNL     1       4.955   3.105  11.532  0.00  0.00    +0.000 OA
ATOM     13  C   UNL     1       6.041   3.104  12.091  0.00  0.00    +0.000 C 
BRANCH  13  14
ATOM     14  O   UNL     1       7.100   2.407  11.613  0.00  0.00    +0.000 OA
ATOM     15  H   UNL     1       7.371   2.659  10.714  0.00  0.00    +0.000 HD
ENDBRANCH  13  14
ENDBRANCH   6  13
ENDBRANCH   1   8
BRANCH   4  16
ATOM     16  C   UNL     1       4.101   6.023  19.519  0.00  0.00    +0.000 C 
BRANCH  16  17
ATOM     17  C   UNL     1       3.010   4.984  19.514  0.00  0.00    +0.000 A 
ATOM     18  C   UNL     1       2.478   4.521  18.299  0.00  0.00    +0.000 A 
ATOM     19  C   UNL     1       1.421   3.611  18.294  0.00  0.00    +0.000 A 
ATOM     20  C   UNL     1       0.893   3.165  19.500  0.00  0.00    +0.000 A 
ATOM     21  F   UNL     1      -0.136   2.308  19.492  0.00  0.00    +0.000 F 
ATOM     22  C   UNL     1       1.411   3.601  20.713  0.00  0.00    +0.000 A 
ATOM     23  C   UNL     1       2.470   4.509  20.722  0.00  0.00    +0.000 A 
ENDBRANCH  16  17
ENDBRANCH   4  16
TORSDOF 5
ENDMDL
MODEL 4
REMARK VINA RESULT:      -7.6      0.582      1.382
REMARK  Name = 
REMARK  5 active torsions:
REMARK  status: ('A' for Active; 'I' for Inactive)
REMARK    1  A    between atoms: C_2  and  O_3
REMARK    2  A    between atoms: C_2  and  C_4
REMARK    3  A    between atoms: C_6  and  C_7
REMARK    4  A    between atoms: N_10  and  C_11
REMARK    5  A    between atoms: C_11  and  C_12
REMARK                            x       y       z     vdW  Elec       q    Type
REMARK                         _______ _______ _______ _____ _____    ______ ____
ROOT
ATOM      1  C   UNL     1       6.394   5.291  16.253  0.00  0.00    +0.000 A 
ATOM      2  C   UNL     1       7.238   6.164  16.988  0.00  0.00    +0.000 A 
ATOM      3  C   UNL     1       6.693   6.307  18.246  0.00  0.00    +0.000 A 
ATOM      4  N   UNL     1       5.540   5.563  18.291  0.00  0.00    +0.000 N 
ATOM      5  C   UNL     1       5.339   4.957  17.078  0.00  0.00    +0.000 A 
ENDROOT
BRANCH   1   8
ATOM      6  C   UNL     1       6.423   3.693  12.984  0.00  0.00    +0.000 A 
ATOM      7  C   UNL     1       5.958   3.739  14.285  0.00  0.00    +0.000 A 
ATOM      8  C   UNL     1       6.642   4.817  14.891  0.00  0.00    +0.000 A 
ATOM      9  N   UNL     1       7.512   5.387  14.052  0.00  0.00    +0.000 NA
ATOM     10  N   UNL     1       7.372   4.680  12.918  0.00  0.00    +0.000 N 
ATOM     11  H   UNL     1       7.937   4.929  12.110  0.00  0.00    +0.000 HD
BRANCH   6  13
ATOM     12  O   UNL     1       6.925   2.197  11.243  0.00  0.00    +0.000 OA
ATOM     13  C   UNL     1       6.113   2.881  11.847  0.00  0.00    +0.000 C 
BRANCH  13  14
ATOM     14  O   UNL     1       4.814   2.959  11.474  0.00  0.00    +0.000 OA
ATOM     15  H   UNL     1       4.587   2.414  10.701  0.00  0.00    +0.000 HD
ENDBRANCH  13  14
ENDBRANCH   6  13
ENDBRANCH   1   8
BRANCH   4  16
ATOM     16  C   UNL     1       4.702   5.389  19.472  0.00  0.00    +0.000 C 
BRANCH  16  17
ATOM     17  C   UNL     1       3.548   4.465  19.181  0.00  0.00    +0.000 A 
ATOM     18  C   UNL     1       2.413   4.941  18.504  0.00  0.00    +0.000 A 
ATOM     19  C   UNL     1       1.316   4.105  18.295  0.00  0.00    +0.000 A 
ATOM     20  C   UNL     1       1.350   2.797  18.764  0.00  0.00    +0.000 A 
ATOM     21  F   UNL     1       0.286   2.004  18.582  0.00  0.00    +0.000 F 
ATOM     22  C   UNL     1       2.467   2.303  19.425  0.00  0.00    +0.000 A 
ATOM     23  C   UNL     1       3.567   3.134  19.634  0.00  0.00    +0.000 A 
ENDBRANCH  16  17
ENDBRANCH   4  16
TORSDOF 5
ENDMDL
MODEL 5
REMARK VINA RESULT:      -7.6      3.903      4.928
REMARK  Name = 
REMARK  5 active torsions:
REMARK  status: ('A' for Active; 'I' for Inactive)
REMARK    1  A    between atoms: C_2  and  O_3
REMARK    2  A    between atoms: C_2  and  C_4
REMARK    3  A    between atoms: C_6  and  C_7
REMARK    4  A    between atoms: N_10  and  C_11
REMARK    5  A    between atoms: C_11  and  C_12
REMARK                            x       y       z     vdW  Elec       q    Type
REMARK                         _______ _______ _______ _____ _____    ______ ____
ROOT
ATOM      1  C   UNL     1       6.242   5.376  17.278  0.00  0.00    +0.000 A 
ATOM      2  C   UNL     1       6.516   4.553  16.154  0.00  0.00    +0.000 A 
ATOM      3  C   UNL     1       5.382   3.816  15.893  0.00  0.00    +0.000 A 
ATOM      4  N   UNL     1       4.437   4.153  16.830  0.00  0.00    +0.000 N 
ATOM      5  C   UNL     1       4.957   5.086  17.689  0.00  0.00    +0.000 A 
ENDROOT
BRANCH   1   8
ATOM      6  C   UNL     1       8.145   8.314  18.273  0.00  0.00    +0.000 A 
ATOM      7  C   UNL     1       7.246   7.709  17.414  0.00  0.00    +0.000 A 
ATOM      8  C   UNL     1       7.155   6.367  17.848  0.00  0.00    +0.000 A 
ATOM      9  N   UNL     1       7.970   6.123  18.878  0.00  0.00    +0.000 NA
ATOM     10  N   UNL     1       8.566   7.306  19.102  0.00  0.00    +0.000 N 
ATOM     11  H   UNL     1       9.244   7.380  19.857  0.00  0.00    +0.000 HD
BRANCH   6  13
ATOM     12  O   UNL     1       8.425  10.554  17.622  0.00  0.00    +0.000 OA
ATOM     13  C   UNL     1       8.643   9.648  18.412  0.00  0.00    +0.000 C 
BRANCH  13  14
ATOM     14  O   UNL     1       9.418   9.816  19.509  0.00  0.00    +0.000 OA
ATOM     15  H   UNL     1       9.096  10.498  20.124  0.00  0.00    +0.000 HD
ENDBRANCH  13  14
ENDBRANCH   6  13
ENDBRANCH   1   8
BRANCH   4  16
ATOM     16  C   UNL     1       3.070   3.647  16.859  0.00  0.00    +0.000 C 
BRANCH  16  17
ATOM     17  C   UNL     1       2.601   3.443  18.276  0.00  0.00    +0.000 A 
ATOM     18  C   UNL     1       3.237   2.504  19.105  0.00  0.00    +0.000 A 
ATOM     19  C   UNL     1       2.761   2.266  20.394  0.00  0.00    +0.000 A 
ATOM     20  C   UNL     1       1.649   2.961  20.855  0.00  0.00    +0.000 A 
ATOM     21  F   UNL     1       1.181   2.713  22.085  0.00  0.00    +0.000 F 
ATOM     22  C   UNL     1       1.012   3.902  20.057  0.00  0.00    +0.000 A 
ATOM     23  C   UNL     1       1.487   4.146  18.768  0.00  0.00    +0.000 A 
ENDBRANCH  16  17
ENDBRANCH   4  16
TORSDOF 5
ENDMDL
MODEL 6
REMARK VINA RESULT:      -7.5      2.904      3.527
REMARK  Name = 
REMARK  5 active torsions:
REMARK  status: ('A' for Active; 'I' for Inactive)
REMARK    1  A    between atoms: C_2  and  O_3
REMARK    2  A    between atoms: C_2  and  C_4
REMARK    3  A    between atoms: C_6  and  C_7
REMARK    4  A    between atoms: N_10  and  C_11
REMARK    5  A    between atoms: C_11  and  C_12
REMARK                            x       y       z     vdW  Elec       q    Type
REMARK                         _______ _______ _______ _____ _____    ______ ____
ROOT
ATOM      1  C   UNL     1       5.685   5.203  17.234  0.00  0.00    +0.000 A 
ATOM      2  C   UNL     1       6.355   5.214  18.485  0.00  0.00    +0.000 A 
ATOM      3  C   UNL     1       5.397   5.344  19.467  0.00  0.00    +0.000 A 
ATOM      4  N   UNL     1       4.173   5.428  18.852  0.00  0.00    +0.000 N 
ATOM      5  C   UNL     1       4.339   5.363  17.492  0.00  0.00    +0.000 A 
ENDROOT
BRANCH   1   8
ATOM      6  C   UNL     1       6.677   4.331  13.843  0.00  0.00    +0.000 A 
ATOM      7  C   UNL     1       5.851   4.130  14.933  0.00  0.00    +0.000 A 
ATOM      8  C   UNL     1       6.324   5.012  15.931  0.00  0.00    +0.000 A 
ATOM      9  N   UNL     1       7.399   5.692  15.523  0.00  0.00    +0.000 NA
ATOM     10  N   UNL     1       7.600   5.251  14.270  0.00  0.00    +0.000 N 
ATOM     11  H   UNL     1       8.376   5.630  13.733  0.00  0.00    +0.000 HD
BRANCH   6  13
ATOM     12  O   UNL     1       7.283   4.330  11.572  0.00  0.00    +0.000 OA
ATOM     13  C   UNL     1       6.717   3.798  12.515  0.00  0.00    +0.000 C 
BRANCH  13  14
ATOM     14  O   UNL     1       6.034   2.636  12.386  0.00  0.00    +0.000 OA
ATOM     15  H   UNL     1       5.072   2.723  12.501  0.00  0.00    +0.000 HD
ENDBRANCH  13  14
ENDBRANCH   6  13
ENDBRANCH   1   8
BRANCH   4  16
ATOM     16  C   UNL     1       2.892   5.503  19.544  0.00  0.00    +0.000 C 
BRANCH  16  17
ATOM     17  C   UNL     1       2.284   6.875  19.405  0.00  0.00    +0.000 A 
ATOM     18  C   UNL     1       2.352   7.560  18.181  0.00  0.00    +0.000 A 
ATOM     19  C   UNL     1       1.851   8.857  18.071  0.00  0.00    +0.000 A 
ATOM     20  C   UNL     1       1.285   9.471  19.182  0.00  0.00    +0.000 A 
ATOM     21  F   UNL     1       0.825  10.724  19.079  0.00  0.00    +0.000 F 
ATOM     22  C   UNL     1       1.196   8.807  20.399  0.00  0.00    +0.000 A 
ATOM     23  C   UNL     1       1.693   7.509  20.513  0.00  0.00    +0.000 A 
ENDBRANCH  16  17
ENDBRANCH   4  16
TORSDOF 5
ENDMDL
MODEL 7
REMARK VINA RESULT:      -7.4      1.458      1.683
REMARK  Name = 
REMARK  5 active torsions:
REMARK  status: ('A' for Active; 'I' for Inactive)
REMARK    1  A    between atoms: C_2  and  O_3
REMARK    2  A    between atoms: C_2  and  C_4
REMARK    3  A    between atoms: C_6  and  C_7
REMARK    4  A    between atoms: N_10  and  C_11
REMARK    5  A    between atoms: C_11  and  C_12
REMARK                            x       y       z     vdW  Elec       q    Type
REMARK                         _______ _______ _______ _____ _____    ______ ____
ROOT
ATOM      1  C   UNL     1       5.614   5.278  16.861  0.00  0.00    +0.000 A 
ATOM      2  C   UNL     1       6.100   4.953  18.155  0.00  0.00    +0.000 A 
ATOM      3  C   UNL     1       5.098   5.233  19.058  0.00  0.00    +0.000 A 
ATOM      4  N   UNL     1       4.029   5.732  18.357  0.00  0.00    +0.000 N 
ATOM      5  C   UNL     1       4.339   5.782  17.022  0.00  0.00    +0.000 A 
ENDROOT
BRANCH   1   8
ATOM      6  C   UNL     1       6.813   4.371  13.548  0.00  0.00    +0.000 A 
ATOM      7  C   UNL     1       5.912   4.193  14.580  0.00  0.00    +0.000 A 
ATOM      8  C   UNL     1       6.334   5.068  15.605  0.00  0.00    +0.000 A 
ATOM      9  N   UNL     1       7.450   5.723  15.269  0.00  0.00    +0.000 NA
ATOM     10  N   UNL     1       7.725   5.272  14.034  0.00  0.00    +0.000 N 
ATOM     11  H   UNL     1       8.544   5.632  13.550  0.00  0.00    +0.000 HD
BRANCH   6  13
ATOM     12  O   UNL     1       7.312   4.463  11.253  0.00  0.00    +0.000 OA
ATOM     13  C   UNL     1       6.932   3.832  12.227  0.00  0.00    +0.000 C 
BRANCH  13  14
ATOM     14  O   UNL     1       6.551   2.535  12.145  0.00  0.00    +0.000 OA
ATOM     15  H   UNL     1       6.028   2.322  11.354  0.00  0.00    +0.000 HD
ENDBRANCH  13  14
ENDBRANCH   6  13
ENDBRANCH   1   8
BRANCH   4  16
ATOM     16  C   UNL     1       2.739   6.085  18.938  0.00  0.00    +0.000 C 
BRANCH  16  17
ATOM     17  C   UNL     1       2.224   4.976  19.819  0.00  0.00    +0.000 A 
ATOM     18  C   UNL     1       2.613   4.901  21.166  0.00  0.00    +0.000 A 
ATOM     19  C   UNL     1       2.193   3.837  21.964  0.00  0.00    +0.000 A 
ATOM     20  C   UNL     1       1.386   2.847  21.417  0.00  0.00    +0.000 A 
ATOM     21  F   UNL     1       1.001   1.815  22.179  0.00  0.00    +0.000 F 
ATOM     22  C   UNL     1       0.978   2.907  20.090  0.00  0.00    +0.000 A 
ATOM     23  C   UNL     1       1.395   3.971  19.290  0.00  0.00    +0.000 A 
ENDBRANCH  16  17
ENDBRANCH   4  16
TORSDOF 5
ENDMDL
MODEL 8
REMARK VINA RESULT:      -7.4      3.303      4.097
REMARK  Name = 
REMARK  5 active torsions:
REMARK  status: ('A' for Active; 'I' for Inactive)
REMARK    1  A    between atoms: C_2  and  O_3
REMARK    2  A    between atoms: C_2  and  C_4
REMARK    3  A    between atoms: C_6  and  C_7
REMARK    4  A    between atoms: N_10  and  C_11
REMARK    5  A    between atoms: C_11  and  C_12
REMARK                            x       y       z     vdW  Elec       q    Type
REMARK                         _______ _______ _______ _____ _____    ______ ____
ROOT
ATOM      1  C   UNL     1       4.574   4.728  17.296  0.00  0.00    +0.000 A 
ATOM      2  C   UNL     1       3.387   3.961  17.160  0.00  0.00    +0.000 A 
ATOM      3  C   UNL     1       2.537   4.329  18.180  0.00  0.00    +0.000 A 
ATOM      4  N   UNL     1       3.175   5.279  18.937  0.00  0.00    +0.000 N 
ATOM      5  C   UNL     1       4.423   5.515  18.419  0.00  0.00    +0.000 A 
ENDROOT
BRANCH   1   8
ATOM      6  C   UNL     1       6.906   4.828  14.504  0.00  0.00    +0.000 A 
ATOM      7  C   UNL     1       5.606   4.796  14.971  0.00  0.00    +0.000 A 
ATOM      8  C   UNL     1       5.713   4.699  16.377  0.00  0.00    +0.000 A 
ATOM      9  N   UNL     1       6.987   4.628  16.773  0.00  0.00    +0.000 NA
ATOM     10  N   UNL     1       7.683   4.691  15.626  0.00  0.00    +0.000 N 
ATOM     11  H   UNL     1       8.699   4.658  15.664  0.00  0.00    +0.000 HD
BRANCH   6  13
ATOM     12  O   UNL     1       8.342   5.787  12.910  0.00  0.00    +0.000 OA
ATOM     13  C   UNL     1       7.493   4.960  13.205  0.00  0.00    +0.000 C 
BRANCH  13  14
ATOM     14  O   UNL     1       6.992   4.084  12.303  0.00  0.00    +0.000 OA
ATOM     15  H   UNL     1       6.693   4.493  11.473  0.00  0.00    +0.000 HD
ENDBRANCH  13  14
ENDBRANCH   6  13
ENDBRANCH   1   8
BRANCH   4  16
ATOM     16  C   UNL     1       2.586   5.980  20.072  0.00  0.00    +0.000 C 
BRANCH  16  17
ATOM     17  C   UNL     1       2.093   7.345  19.665  0.00  0.00    +0.000 A 
ATOM     18  C   UNL     1       1.456   8.176  20.600  0.00  0.00    +0.000 A 
ATOM     19  C   UNL     1       0.938   9.410  20.208  0.00  0.00    +0.000 A 
ATOM     20  C   UNL     1       1.054   9.814  18.884  0.00  0.00    +0.000 A 
ATOM     21  F   UNL     1       0.537  10.990  18.505  0.00  0.00    +0.000 F 
ATOM     22  C   UNL     1       1.692   9.013  17.945  0.00  0.00    +0.000 A 
ATOM     23  C   UNL     1       2.213   7.779  18.333  0.00  0.00    +0.000 A 
ENDBRANCH  16  17
ENDBRANCH   4  16
TORSDOF 5
ENDMDL
MODEL 9
REMARK VINA RESULT:      -7.4      1.063      1.367
REMARK  Name = 
REMARK  5 active torsions:
REMARK  status: ('A' for Active; 'I' for Inactive)
REMARK    1  A    between atoms: C_2  and  O_3
REMARK    2  A    between atoms: C_2  and  C_4
REMARK    3  A    between atoms: C_6  and  C_7
REMARK    4  A    between atoms: N_10  and  C_11
REMARK    5  A    between atoms: C_11  and  C_12
REMARK                            x       y       z     vdW  Elec       q    Type
REMARK                         _______ _______ _______ _____ _____    ______ ____
ROOT
ATOM      1  C   UNL     1       6.342   5.082  16.457  0.00  0.00    +0.000 A 
ATOM      2  C   UNL     1       7.284   4.908  17.505  0.00  0.00    +0.000 A 
ATOM      3  C   UNL     1       6.698   5.356  18.669  0.00  0.00    +0.000 A 
ATOM      4  N   UNL     1       5.441   5.810  18.358  0.00  0.00    +0.000 N 
ATOM      5  C   UNL     1       5.222   5.667  17.012  0.00  0.00    +0.000 A 
ENDROOT
BRANCH   1   8
ATOM      6  C   UNL     1       6.217   3.658  13.111  0.00  0.00    +0.000 A 
ATOM      7  C   UNL     1       5.791   3.654  14.426  0.00  0.00    +0.000 A 
ATOM      8  C   UNL     1       6.534   4.671  15.066  0.00  0.00    +0.000 A 
ATOM      9  N   UNL     1       7.401   5.251  14.232  0.00  0.00    +0.000 NA
ATOM     10  N   UNL     1       7.202   4.611  13.067  0.00  0.00    +0.000 N 
ATOM     11  H   UNL     1       7.754   4.881  12.257  0.00  0.00    +0.000 HD
BRANCH   6  13
ATOM     12  O   UNL     1       4.772   3.029  11.368  0.00  0.00    +0.000 OA
ATOM     13  C   UNL     1       5.844   2.920  11.943  0.00  0.00    +0.000 C 
BRANCH  13  14
ATOM     14  O   UNL     1       6.797   2.049  11.536  0.00  0.00    +0.000 OA
ATOM     15  H   UNL     1       6.943   2.037  10.575  0.00  0.00    +0.000 HD
ENDBRANCH  13  14
ENDBRANCH   6  13
ENDBRANCH   1   8
BRANCH   4  16
ATOM     16  C   UNL     1       4.466   6.302  19.325  0.00  0.00    +0.000 C 
BRANCH  16  17
ATOM     17  C   UNL     1       3.479   5.223  19.690  0.00  0.00    +0.000 A 
ATOM     18  C   UNL     1       2.186   5.562  20.121  0.00  0.00    +0.000 A 
ATOM     19  C   UNL     1       1.295   4.568  20.525  0.00  0.00    +0.000 A 
ATOM     20  C   UNL     1       1.695   3.237  20.501  0.00  0.00    +0.000 A 
ATOM     21  F   UNL     1       0.845   2.286  20.910  0.00  0.00    +0.000 F 
ATOM     22  C   UNL     1       2.965   2.878  20.067  0.00  0.00    +0.000 A 
ATOM     23  C   UNL     1       3.858   3.870  19.660  0.00  0.00    +0.000 A 
ENDBRANCH  16  17
ENDBRANCH   4  16
TORSDOF 5
ENDMDL
