MODEL 1
REMARK VINA RESULT:      -7.5      0.000      0.000
REMARK  Name = 
REMARK  9 active torsions:
REMARK  status: ('A' for Active; 'I' for Inactive)
REMARK    1  A    between atoms: N_4  and  C_5
REMARK    2  A    between atoms: C_5  and  C_6
REMARK    3  A    between atoms: C_6  and  C_7
REMARK    4  A    between atoms: C_7  and  C_8
REMARK    5  A    between atoms: C_8  and  O_9
REMARK    6  A    between atoms: O_9  and  C_10
REMARK    7  A    between atoms: N_18  and  C_19
REMARK    8  A    between atoms: C_19  and  C_20
REMARK    9  A    between atoms: C_20  and  O_22
REMARK                            x       y       z     vdW  Elec       q    Type
REMARK                         _______ _______ _______ _____ _____    ______ ____
ROOT
ATOM      1  C   UNL     1       7.039   6.768  17.574  0.00  0.00    +0.000 A 
ATOM      2  C   UNL     1       7.629   5.661  18.188  0.00  0.00    +0.000 A 
ATOM      3  C   UNL     1       6.838   4.659  18.747  0.00  0.00    +0.000 A 
ATOM      4  C   UNL     1       5.445   4.752  18.684  0.00  0.00    +0.000 A 
ATOM      5  C   UNL     1       4.834   5.842  18.047  0.00  0.00    +0.000 A 
ATOM      6  C   UNL     1       5.642   6.848  17.496  0.00  0.00    +0.000 A 
ATOM      7  C   UNL     1       3.337   5.883  17.887  0.00  0.00    +0.000 C 
ATOM      8  C   UNL     1       2.640   5.001  18.920  0.00  0.00    +0.000 C 
ATOM      9  N   UNL     1       3.270   3.691  19.031  0.00  0.00    +0.000 N 
ATOM     10  C   UNL     1       4.633   3.654  19.270  0.00  0.00    +0.000 C 
ATOM     11  O   UNL     1       5.136   2.774  19.962  0.00  0.00    +0.000 OA
ENDROOT
BRANCH   1  12
ATOM     12  O   UNL     1       7.721   7.813  17.017  0.00  0.00    +0.000 OA
BRANCH  12  13
ATOM     13  C   UNL     1       7.570   9.082  17.655  0.00  0.00    +0.000 C 
BRANCH  13  14
ATOM     14  C   UNL     1       8.815   9.374  18.491  0.00  0.00    +0.000 C 
BRANCH  14  15
ATOM     15  C   UNL     1       9.036  10.868  18.760  0.00  0.00    +0.000 C 
BRANCH  15  16
ATOM     16  C   UNL     1      10.483  11.176  19.136  0.00  0.00    +0.000 C 
BRANCH  16  20
ATOM     17  N   UNL     1      11.945  14.357  18.141  0.00  0.00    +0.000 NA
ATOM     18  C   UNL     1      11.667  13.103  18.076  0.00  0.00    +0.000 C 
ATOM     19  N   UNL     1      12.214  12.280  17.167  0.00  0.00    +0.000 N 
ATOM     20  N   UNL     1      10.792  12.570  18.949  0.00  0.00    +0.000 N 
ATOM     21  H   UNL     1      12.631  14.587  17.422  0.00  0.00    +0.000 HD
ATOM     22  H   UNL     1      12.622  12.735  16.359  0.00  0.00    +0.000 HD
ATOM     23  H   UNL     1      11.641  11.494  16.901  0.00  0.00    +0.000 HD
ATOM     24  H   UNL     1      10.522  13.217  19.683  0.00  0.00    +0.000 HD
ENDBRANCH  16  20
ENDBRANCH  15  16
ENDBRANCH  14  15
ENDBRANCH  13  14
ENDBRANCH  12  13
ENDBRANCH   1  12
BRANCH   9  25
ATOM     25  C   UNL     1       2.449   2.550  19.437  0.00  0.00    +0.000 C 
BRANCH  25  26
ATOM     26  C   UNL     1       1.694   2.784  20.737  0.00  0.00    +0.000 C 
ATOM     27  O   UNL     1       2.211   2.722  21.844  0.00  0.00    +0.000 OA
BRANCH  26  28
ATOM     28  O   UNL     1       0.398   3.137  20.559  0.00  0.00    +0.000 OA
ATOM     29  H   UNL     1      -0.212   2.563  21.089  0.00  0.00    +0.000 HD
ENDBRANCH  26  28
ENDBRANCH  25  26
ENDBRANCH   9  25
TORSDOF 9
ENDMDL
MODEL 2
REMARK VINA RESULT:      -7.5      1.140      1.362
REMARK  Name = 
REMARK  9 active torsions:
REMARK  status: ('A' for Active; 'I' for Inactive)
REMARK    1  A    between atoms: N_4  and  C_5
REMARK    2  A    between atoms: C_5  and  C_6
REMARK    3  A    between atoms: C_6  and  C_7
REMARK    4  A    between atoms: C_7  and  C_8
REMARK    5  A    between atoms: C_8  and  O_9
REMARK    6  A    between atoms: O_9  and  C_10
REMARK    7  A    between atoms: N_18  and  C_19
REMARK    8  A    between atoms: C_19  and  C_20
REMARK    9  A    between atoms: C_20  and  O_22
REMARK                            x       y       z     vdW  Elec       q    Type
REMARK                         _______ _______ _______ _____ _____    ______ ____
ROOT
ATOM      1  C   UNL     1       7.135   6.885  17.548  0.00  0.00    +0.000 A 
ATOM      2  C   UNL     1       7.612   5.651  17.994  0.00  0.00    +0.000 A 
ATOM      3  C   UNL     1       6.740   4.717  18.551  0.00  0.00    +0.000 A 
ATOM      4  C   UNL     1       5.378   5.009  18.655  0.00  0.00    +0.000 A 
ATOM      5  C   UNL     1       4.876   6.232  18.186  0.00  0.00    +0.000 A 
ATOM      6  C   UNL     1       5.765   7.166  17.635  0.00  0.00    +0.000 A 
ATOM      7  C   UNL     1       3.392   6.497  18.202  0.00  0.00    +0.000 C 
ATOM      8  C   UNL     1       2.679   5.622  19.228  0.00  0.00    +0.000 C 
ATOM      9  N   UNL     1       3.114   4.232  19.155  0.00  0.00    +0.000 N 
ATOM     10  C   UNL     1       4.474   3.981  19.234  0.00  0.00    +0.000 C 
ATOM     11  O   UNL     1       4.906   2.975  19.787  0.00  0.00    +0.000 OA
ENDROOT
BRANCH   1  12
ATOM     12  O   UNL     1       7.907   7.876  17.007  0.00  0.00    +0.000 OA
BRANCH  12  13
ATOM     13  C   UNL     1       7.833   9.154  17.641  0.00  0.00    +0.000 C 
BRANCH  13  14
ATOM     14  C   UNL     1       8.932   9.254  18.698  0.00  0.00    +0.000 C 
BRANCH  14  15
ATOM     15  C   UNL     1       9.085  10.660  19.292  0.00  0.00    +0.000 C 
BRANCH  15  16
ATOM     16  C   UNL     1      10.404  11.313  18.887  0.00  0.00    +0.000 C 
BRANCH  16  20
ATOM     17  N   UNL     1      10.775  14.098  16.573  0.00  0.00    +0.000 NA
ATOM     18  C   UNL     1      11.072  12.995  17.165  0.00  0.00    +0.000 C 
ATOM     19  N   UNL     1      12.238  12.355  16.978  0.00  0.00    +0.000 N 
ATOM     20  N   UNL     1      10.189  12.440  18.017  0.00  0.00    +0.000 N 
ATOM     21  H   UNL     1      11.556  14.381  15.980  0.00  0.00    +0.000 HD
ATOM     22  H   UNL     1      12.745  12.614  16.140  0.00  0.00    +0.000 HD
ATOM     23  H   UNL     1      12.201  11.354  17.095  0.00  0.00    +0.000 HD
ATOM     24  H   UNL     1       9.394  13.041  18.209  0.00  0.00    +0.000 HD
ENDBRANCH  16  20
ENDBRANCH  15  16
ENDBRANCH  14  15
ENDBRANCH  13  14
ENDBRANCH  12  13
ENDBRANCH   1  12
BRANCH   9  25
ATOM     25  C   UNL     1       2.176   3.181  19.553  0.00  0.00    +0.000 C 
BRANCH  25  26
ATOM     26  C   UNL     1       1.392   2.600  18.386  0.00  0.00    +0.000 C 
ATOM     27  O   UNL     1       0.293   2.075  18.499  0.00  0.00    +0.000 OA
BRANCH  26  28
ATOM     28  O   UNL     1       1.993   2.775  17.184  0.00  0.00    +0.000 OA
ATOM     29  H   UNL     1       2.607   2.027  16.971  0.00  0.00    +0.000 HD
ENDBRANCH  26  28
ENDBRANCH  25  26
ENDBRANCH   9  25
TORSDOF 9
ENDMDL
MODEL 3
REMARK VINA RESULT:      -7.5      1.355      1.606
REMARK  Name = 
REMARK  9 active torsions:
REMARK  status: ('A' for Active; 'I' for Inactive)
REMARK    1  A    between atoms: N_4  and  C_5
REMARK    2  A    between atoms: C_5  and  C_6
REMARK    3  A    between atoms: C_6  and  C_7
REMARK    4  A    between atoms: C_7  and  C_8
REMARK    5  A    between atoms: C_8  and  O_9
REMARK    6  A    between atoms: O_9  and  C_10
REMARK    7  A    between atoms: N_18  and  C_19
REMARK    8  A    between atoms: C_19  and  C_20
REMARK    9  A    between atoms: C_20  and  O_22
REMARK                            x       y       z     vdW  Elec       q    Type
REMARK                         _______ _______ _______ _____ _____    ______ ____
ROOT
ATOM      1  C   UNL     1       7.013   6.657  17.127  0.00  0.00    +0.000 A 
ATOM      2  C   UNL     1       7.180   5.313  16.790  0.00  0.00    +0.000 A 
ATOM      3  C   UNL     1       6.122   4.416  16.922  0.00  0.00    +0.000 A 
ATOM      4  C   UNL     1       4.881   4.863  17.383  0.00  0.00    +0.000 A 
ATOM      5  C   UNL     1       4.686   6.216  17.699  0.00  0.00    +0.000 A 
ATOM      6  C   UNL     1       5.762   7.106  17.570  0.00  0.00    +0.000 A 
ATOM      7  C   UNL     1       3.318   6.711  18.092  0.00  0.00    +0.000 C 
ATOM      8  C   UNL     1       2.444   5.579  18.622  0.00  0.00    +0.000 C 
ATOM      9  N   UNL     1       2.513   4.395  17.775  0.00  0.00    +0.000 N 
ATOM     10  C   UNL     1       3.768   3.883  17.490  0.00  0.00    +0.000 C 
ATOM     11  O   UNL     1       3.953   2.676  17.366  0.00  0.00    +0.000 OA
ENDROOT
BRANCH   1  12
ATOM     12  O   UNL     1       7.990   7.612  17.055  0.00  0.00    +0.000 OA
BRANCH  12  13
ATOM     13  C   UNL     1       7.650   8.906  17.555  0.00  0.00    +0.000 C 
BRANCH  13  14
ATOM     14  C   UNL     1       8.838   9.471  18.332  0.00  0.00    +0.000 C 
BRANCH  14  15
ATOM     15  C   UNL     1       8.988  10.992  18.200  0.00  0.00    +0.000 C 
BRANCH  15  16
ATOM     16  C   UNL     1      10.388  11.466  18.584  0.00  0.00    +0.000 C 
BRANCH  16  20
ATOM     17  N   UNL     1      12.201  13.169  15.927  0.00  0.00    +0.000 NA
ATOM     18  C   UNL     1      11.657  13.006  17.081  0.00  0.00    +0.000 C 
ATOM     19  N   UNL     1      11.543  13.995  17.981  0.00  0.00    +0.000 N 
ATOM     20  N   UNL     1      11.170  11.798  17.421  0.00  0.00    +0.000 N 
ATOM     21  H   UNL     1      12.499  14.140  15.830  0.00  0.00    +0.000 HD
ATOM     22  H   UNL     1      12.159  14.786  17.837  0.00  0.00    +0.000 HD
ATOM     23  H   UNL     1      11.540  13.698  18.946  0.00  0.00    +0.000 HD
ATOM     24  H   UNL     1      11.170  11.140  16.648  0.00  0.00    +0.000 HD
ENDBRANCH  16  20
ENDBRANCH  15  16
ENDBRANCH  14  15
ENDBRANCH  13  14
ENDBRANCH  12  13
ENDBRANCH   1  12
BRANCH   9  25
ATOM     25  C   UNL     1       1.356   3.500  17.723  0.00  0.00    +0.000 C 
BRANCH  25  26
ATOM     26  C   UNL     1       1.147   2.712  19.008  0.00  0.00    +0.000 C 
ATOM     27  O   UNL     1       0.536   3.141  19.976  0.00  0.00    +0.000 OA
BRANCH  26  28
ATOM     28  O   UNL     1       1.645   1.453  18.962  0.00  0.00    +0.000 OA
ATOM     29  H   UNL     1       2.479   1.410  18.429  0.00  0.00    +0.000 HD
ENDBRANCH  26  28
ENDBRANCH  25  26
ENDBRANCH   9  25
TORSDOF 9
ENDMDL
MODEL 4
REMARK VINA RESULT:      -7.3      4.769      7.106
REMARK  Name = 
REMARK  9 active torsions:
REMARK  status: ('A' for Active; 'I' for Inactive)
REMARK    1  A    between atoms: N_4  and  C_5
REMARK    2  A    between atoms: C_5  and  C_6
REMARK    3  A    between atoms: C_6  and  C_7
REMARK    4  A    between atoms: C_7  and  C_8
REMARK    5  A    between atoms: C_8  and  O_9
REMARK    6  A    between atoms: O_9  and  C_10
REMARK    7  A    between atoms: N_18  and  C_19
REMARK    8  A    between atoms: C_19  and  C_20
REMARK    9  A    between atoms: C_20  and  O_22
REMARK                            x       y       z     vdW  Elec       q    Type
REMARK                         _______ _______ _______ _____ _____    ______ ____
ROOT
ATOM      1  C   UNL     1       3.393   5.799  19.006  0.00  0.00    +0.000 A 
ATOM      2  C   UNL     1       2.739   5.692  20.235  0.00  0.00    +0.000 A 
ATOM      3  C   UNL     1       1.898   6.712  20.677  0.00  0.00    +0.000 A 
ATOM      4  C   UNL     1       1.698   7.845  19.885  0.00  0.00    +0.000 A 
ATOM      5  C   UNL     1       2.325   7.957  18.635  0.00  0.00    +0.000 A 
ATOM      6  C   UNL     1       3.174   6.927  18.205  0.00  0.00    +0.000 A 
ATOM      7  C   UNL     1       2.020   9.129  17.738  0.00  0.00    +0.000 C 
ATOM      8  C   UNL     1       1.489  10.318  18.533  0.00  0.00    +0.000 C 
ATOM      9  N   UNL     1       0.464   9.919  19.491  0.00  0.00    +0.000 N 
ATOM     10  C   UNL     1       0.778   8.902  20.378  0.00  0.00    +0.000 C 
ATOM     11  O   UNL     1       0.341   8.899  21.525  0.00  0.00    +0.000 OA
ENDROOT
BRANCH   1  12
ATOM     12  O   UNL     1       4.253   4.869  18.491  0.00  0.00    +0.000 OA
BRANCH  12  13
ATOM     13  C   UNL     1       3.746   4.053  17.434  0.00  0.00    +0.000 C 
BRANCH  13  14
ATOM     14  C   UNL     1       4.865   3.781  16.430  0.00  0.00    +0.000 C 
BRANCH  14  15
ATOM     15  C   UNL     1       5.853   4.945  16.283  0.00  0.00    +0.000 C 
BRANCH  15  16
ATOM     16  C   UNL     1       7.252   4.575  16.772  0.00  0.00    +0.000 C 
BRANCH  16  20
ATOM     17  N   UNL     1       7.870   5.374  20.269  0.00  0.00    +0.000 NA
ATOM     18  C   UNL     1       7.708   5.586  19.010  0.00  0.00    +0.000 C 
ATOM     19  N   UNL     1       7.908   6.785  18.440  0.00  0.00    +0.000 N 
ATOM     20  N   UNL     1       7.324   4.574  18.210  0.00  0.00    +0.000 N 
ATOM     21  H   UNL     1       8.174   6.238  20.719  0.00  0.00    +0.000 HD
ATOM     22  H   UNL     1       7.902   7.574  19.075  0.00  0.00    +0.000 HD
ATOM     23  H   UNL     1       7.352   6.966  17.618  0.00  0.00    +0.000 HD
ATOM     24  H   UNL     1       7.321   3.675  18.682  0.00  0.00    +0.000 HD
ENDBRANCH  16  20
ENDBRANCH  15  16
ENDBRANCH  14  15
ENDBRANCH  13  14
ENDBRANCH  12  13
ENDBRANCH   1  12
BRANCH   9  25
ATOM     25  C   UNL     1      -0.566  10.890  19.863  0.00  0.00    +0.000 C 
BRANCH  25  26
ATOM     26  C   UNL     1       0.002  12.176  20.446  0.00  0.00    +0.000 C 
ATOM     27  O   UNL     1      -0.038  13.256  19.876  0.00  0.00    +0.000 OA
BRANCH  26  28
ATOM     28  O   UNL     1       0.503  12.031  21.697  0.00  0.00    +0.000 OA
ATOM     29  H   UNL     1      -0.104  12.415  22.380  0.00  0.00    +0.000 HD
ENDBRANCH  26  28
ENDBRANCH  25  26
ENDBRANCH   9  25
TORSDOF 9
ENDMDL
MODEL 5
REMARK VINA RESULT:      -7.3      5.455      7.403
REMARK  Name = 
REMARK  9 active torsions:
REMARK  status: ('A' for Active; 'I' for Inactive)
REMARK    1  A    between atoms: N_4  and  C_5
REMARK    2  A    between atoms: C_5  and  C_6
REMARK    3  A    between atoms: C_6  and  C_7
REMARK    4  A    between atoms: C_7  and  C_8
REMARK    5  A    between atoms: C_8  and  O_9
REMARK    6  A    between atoms: O_9  and  C_10
REMARK    7  A    between atoms: N_18  and  C_19
REMARK    8  A    between atoms: C_19  and  C_20
REMARK    9  A    between atoms: C_20  and  O_22
REMARK                            x       y       z     vdW  Elec       q    Type
REMARK                         _______ _______ _______ _____ _____    ______ ____
ROOT
ATOM      1  C   UNL     1       6.440   5.548  16.064  0.00  0.00    +0.000 A 
ATOM      2  C   UNL     1       5.411   6.487  15.980  0.00  0.00    +0.000 A 
ATOM      3  C   UNL     1       4.347   6.452  16.879  0.00  0.00    +0.000 A 
ATOM      4  C   UNL     1       4.312   5.478  17.881  0.00  0.00    +0.000 A 
ATOM      5  C   UNL     1       5.352   4.543  17.999  0.00  0.00    +0.000 A 
ATOM      6  C   UNL     1       6.412   4.585  17.082  0.00  0.00    +0.000 A 
ATOM      7  C   UNL     1       5.363   3.565  19.145  0.00  0.00    +0.000 C 
ATOM      8  C   UNL     1       3.964   3.359  19.719  0.00  0.00    +0.000 C 
ATOM      9  N   UNL     1       3.266   4.623  19.919  0.00  0.00    +0.000 N 
ATOM     10  C   UNL     1       3.175   5.483  18.837  0.00  0.00    +0.000 C 
ATOM     11  O   UNL     1       2.185   6.187  18.663  0.00  0.00    +0.000 OA
ENDROOT
BRANCH   1  12
ATOM     12  O   UNL     1       7.514   5.482  15.221  0.00  0.00    +0.000 OA
BRANCH  12  13
ATOM     13  C   UNL     1       7.231   5.172  13.856  0.00  0.00    +0.000 C 
BRANCH  13  14
ATOM     14  C   UNL     1       6.499   3.833  13.787  0.00  0.00    +0.000 C 
BRANCH  14  15
ATOM     15  C   UNL     1       5.162   3.904  13.037  0.00  0.00    +0.000 C 
BRANCH  15  16
ATOM     16  C   UNL     1       5.268   3.341  11.621  0.00  0.00    +0.000 C 
BRANCH  16  20
ATOM     17  N   UNL     1       6.199  -0.154  11.218  0.00  0.00    +0.000 NA
ATOM     18  C   UNL     1       6.364   1.117  11.317  0.00  0.00    +0.000 C 
ATOM     19  N   UNL     1       7.549   1.717  11.120  0.00  0.00    +0.000 N 
ATOM     20  N   UNL     1       5.316   1.902  11.629  0.00  0.00    +0.000 N 
ATOM     21  H   UNL     1       7.086  -0.590  10.964  0.00  0.00    +0.000 HD
ATOM     22  H   UNL     1       8.358   1.111  11.182  0.00  0.00    +0.000 HD
ATOM     23  H   UNL     1       7.687   2.574  11.635  0.00  0.00    +0.000 HD
ATOM     24  H   UNL     1       4.433   1.400  11.632  0.00  0.00    +0.000 HD
ENDBRANCH  16  20
ENDBRANCH  15  16
ENDBRANCH  14  15
ENDBRANCH  13  14
ENDBRANCH  12  13
ENDBRANCH   1  12
BRANCH   9  25
ATOM     25  C   UNL     1       2.259   4.709  20.978  0.00  0.00    +0.000 C 
BRANCH  25  26
ATOM     26  C   UNL     1       1.326   3.507  21.020  0.00  0.00    +0.000 C 
ATOM     27  O   UNL     1       0.524   3.239  20.137  0.00  0.00    +0.000 OA
BRANCH  26  28
ATOM     28  O   UNL     1       1.508   2.713  22.102  0.00  0.00    +0.000 OA
ATOM     29  H   UNL     1       2.335   2.173  22.023  0.00  0.00    +0.000 HD
ENDBRANCH  26  28
ENDBRANCH  25  26
ENDBRANCH   9  25
TORSDOF 9
ENDMDL
MODEL 6
REMARK VINA RESULT:      -7.3      5.480      8.435
REMARK  Name = 
REMARK  9 active torsions:
REMARK  status: ('A' for Active; 'I' for Inactive)
REMARK    1  A    between atoms: N_4  and  C_5
REMARK    2  A    between atoms: C_5  and  C_6
REMARK    3  A    between atoms: C_6  and  C_7
REMARK    4  A    between atoms: C_7  and  C_8
REMARK    5  A    between atoms: C_8  and  O_9
REMARK    6  A    between atoms: O_9  and  C_10
REMARK    7  A    between atoms: N_18  and  C_19
REMARK    8  A    between atoms: C_19  and  C_20
REMARK    9  A    between atoms: C_20  and  O_22
REMARK                            x       y       z     vdW  Elec       q    Type
REMARK                         _______ _______ _______ _____ _____    ______ ____
ROOT
ATOM      1  C   UNL     1       1.609   8.282  19.703  0.00  0.00    +0.000 A 
ATOM      2  C   UNL     1       1.901   8.805  18.441  0.00  0.00    +0.000 A 
ATOM      3  C   UNL     1       2.824   8.173  17.612  0.00  0.00    +0.000 A 
ATOM      4  C   UNL     1       3.457   7.001  18.036  0.00  0.00    +0.000 A 
ATOM      5  C   UNL     1       3.155   6.445  19.288  0.00  0.00    +0.000 A 
ATOM      6  C   UNL     1       2.230   7.096  20.117  0.00  0.00    +0.000 A 
ATOM      7  C   UNL     1       3.758   5.125  19.695  0.00  0.00    +0.000 C 
ATOM      8  C   UNL     1       5.041   4.834  18.921  0.00  0.00    +0.000 C 
ATOM      9  N   UNL     1       4.887   5.094  17.494  0.00  0.00    +0.000 N 
ATOM     10  C   UNL     1       4.420   6.341  17.116  0.00  0.00    +0.000 C 
ATOM     11  O   UNL     1       4.812   6.885  16.088  0.00  0.00    +0.000 OA
ENDROOT
BRANCH   1  12
ATOM     12  O   UNL     1       0.737   8.835  20.600  0.00  0.00    +0.000 OA
BRANCH  12  13
ATOM     13  C   UNL     1      -0.260   9.705  20.062  0.00  0.00    +0.000 C 
BRANCH  13  14
ATOM     14  C   UNL     1      -0.013  11.125  20.569  0.00  0.00    +0.000 C 
BRANCH  14  15
ATOM     15  C   UNL     1      -0.400  12.212  19.558  0.00  0.00    +0.000 C 
BRANCH  15  16
ATOM     16  C   UNL     1      -1.895  12.200  19.248  0.00  0.00    +0.000 C 
BRANCH  16  20
ATOM     17  N   UNL     1      -2.553  11.337  15.773  0.00  0.00    +0.000 NA
ATOM     18  C   UNL     1      -2.534  11.195  17.052  0.00  0.00    +0.000 C 
ATOM     19  N   UNL     1      -2.890  10.055  17.665  0.00  0.00    +0.000 N 
ATOM     20  N   UNL     1      -2.139  12.221  17.829  0.00  0.00    +0.000 N 
ATOM     21  H   UNL     1      -2.860  10.465  15.343  0.00  0.00    +0.000 HD
ATOM     22  H   UNL     1      -3.450   9.420  17.109  0.00  0.00    +0.000 HD
ATOM     23  H   UNL     1      -3.269  10.169  18.593  0.00  0.00    +0.000 HD
ATOM     24  H   UNL     1      -1.760  12.998  17.296  0.00  0.00    +0.000 HD
ENDBRANCH  16  20
ENDBRANCH  15  16
ENDBRANCH  14  15
ENDBRANCH  13  14
ENDBRANCH  12  13
ENDBRANCH   1  12
BRANCH   9  25
ATOM     25  C   UNL     1       5.701   4.327  16.550  0.00  0.00    +0.000 C 
BRANCH  25  26
ATOM     26  C   UNL     1       7.166   4.738  16.546  0.00  0.00    +0.000 C 
ATOM     27  O   UNL     1       8.024   4.201  17.232  0.00  0.00    +0.000 OA
BRANCH  26  28
ATOM     28  O   UNL     1       7.454   5.719  15.656  0.00  0.00    +0.000 OA
ATOM     29  H   UNL     1       6.702   5.876  15.031  0.00  0.00    +0.000 HD
ENDBRANCH  26  28
ENDBRANCH  25  26
ENDBRANCH   9  25
TORSDOF 9
ENDMDL
MODEL 7
REMARK VINA RESULT:      -7.3      5.371      8.022
REMARK  Name = 
REMARK  9 active torsions:
REMARK  status: ('A' for Active; 'I' for Inactive)
REMARK    1  A    between atoms: N_4  and  C_5
REMARK    2  A    between atoms: C_5  and  C_6
REMARK    3  A    between atoms: C_6  and  C_7
REMARK    4  A    between atoms: C_7  and  C_8
REMARK    5  A    between atoms: C_8  and  O_9
REMARK    6  A    between atoms: O_9  and  C_10
REMARK    7  A    between atoms: N_18  and  C_19
REMARK    8  A    between atoms: C_19  and  C_20
REMARK    9  A    between atoms: C_20  and  O_22
REMARK                            x       y       z     vdW  Elec       q    Type
REMARK                         _______ _______ _______ _____ _____    ______ ____
ROOT
ATOM      1  C   UNL     1       1.739   6.579  20.362  0.00  0.00    +0.000 A 
ATOM      2  C   UNL     1       1.710   5.185  20.447  0.00  0.00    +0.000 A 
ATOM      3  C   UNL     1       2.445   4.409  19.554  0.00  0.00    +0.000 A 
ATOM      4  C   UNL     1       3.227   5.024  18.573  0.00  0.00    +0.000 A 
ATOM      5  C   UNL     1       3.291   6.423  18.490  0.00  0.00    +0.000 A 
ATOM      6  C   UNL     1       2.540   7.193  19.390  0.00  0.00    +0.000 A 
ATOM      7  C   UNL     1       4.219   7.080  17.502  0.00  0.00    +0.000 C 
ATOM      8  C   UNL     1       4.562   6.143  16.348  0.00  0.00    +0.000 C 
ATOM      9  N   UNL     1       4.914   4.808  16.817  0.00  0.00    +0.000 N 
ATOM     10  C   UNL     1       4.016   4.165  17.652  0.00  0.00    +0.000 C 
ATOM     11  O   UNL     1       3.859   2.949  17.605  0.00  0.00    +0.000 OA
ENDROOT
BRANCH   1  12
ATOM     12  O   UNL     1       1.039   7.429  21.173  0.00  0.00    +0.000 OA
BRANCH  12  13
ATOM     13  C   UNL     1       0.998   8.799  20.770  0.00  0.00    +0.000 C 
BRANCH  13  14
ATOM     14  C   UNL     1       0.010   9.554  21.658  0.00  0.00    +0.000 C 
BRANCH  14  15
ATOM     15  C   UNL     1      -0.553  10.823  21.006  0.00  0.00    +0.000 C 
BRANCH  15  16
ATOM     16  C   UNL     1      -0.236  10.891  19.514  0.00  0.00    +0.000 C 
BRANCH  16  20
ATOM     17  N   UNL     1      -3.012  11.792  17.340  0.00  0.00    +0.000 NA
ATOM     18  C   UNL     1      -1.834  11.853  17.853  0.00  0.00    +0.000 C 
ATOM     19  N   UNL     1      -0.962  12.832  17.565  0.00  0.00    +0.000 N 
ATOM     20  N   UNL     1      -1.437  10.903  18.721  0.00  0.00    +0.000 N 
ATOM     21  H   UNL     1      -3.151  12.592  16.721  0.00  0.00    +0.000 HD
ATOM     22  H   UNL     1      -1.154  13.350  16.716  0.00  0.00    +0.000 HD
ATOM     23  H   UNL     1       0.011  12.572  17.630  0.00  0.00    +0.000 HD
ATOM     24  H   UNL     1      -2.188  10.275  18.990  0.00  0.00    +0.000 HD
ENDBRANCH  16  20
ENDBRANCH  15  16
ENDBRANCH  14  15
ENDBRANCH  13  14
ENDBRANCH  12  13
ENDBRANCH   1  12
BRANCH   9  25
ATOM     25  C   UNL     1       5.835   4.002  16.013  0.00  0.00    +0.000 C 
BRANCH  25  26
ATOM     26  C   UNL     1       7.229   4.604  15.912  0.00  0.00    +0.000 C 
ATOM     27  O   UNL     1       7.609   5.281  14.967  0.00  0.00    +0.000 OA
BRANCH  26  28
ATOM     28  O   UNL     1       8.001   4.378  17.002  0.00  0.00    +0.000 OA
ATOM     29  H   UNL     1       8.693   3.692  16.822  0.00  0.00    +0.000 HD
ENDBRANCH  26  28
ENDBRANCH  25  26
ENDBRANCH   9  25
TORSDOF 9
ENDMDL
MODEL 8
REMARK VINA RESULT:      -7.2      5.956      8.851
REMARK  Name = 
REMARK  9 active torsions:
REMARK  status: ('A' for Active; 'I' for Inactive)
REMARK    1  A    between atoms: N_4  and  C_5
REMARK    2  A    between atoms: C_5  and  C_6
REMARK    3  A    between atoms: C_6  and  C_7
REMARK    4  A    between atoms: C_7  and  C_8
REMARK    5  A    between atoms: C_8  and  O_9
REMARK    6  A    between atoms: O_9  and  C_10
REMARK    7  A    between atoms: N_18  and  C_19
REMARK    8  A    between atoms: C_19  and  C_20
REMARK    9  A    between atoms: C_20  and  O_22
REMARK                            x       y       z     vdW  Elec       q    Type
REMARK                         _______ _______ _______ _____ _____    ______ ____
ROOT
ATOM      1  C   UNL     1       3.455   6.440  18.209  0.00  0.00    +0.000 A 
ATOM      2  C   UNL     1       3.018   6.005  19.462  0.00  0.00    +0.000 A 
ATOM      3  C   UNL     1       2.184   6.808  20.236  0.00  0.00    +0.000 A 
ATOM      4  C   UNL     1       1.770   8.053  19.756  0.00  0.00    +0.000 A 
ATOM      5  C   UNL     1       2.176   8.496  18.487  0.00  0.00    +0.000 A 
ATOM      6  C   UNL     1       3.022   7.681  17.722  0.00  0.00    +0.000 A 
ATOM      7  C   UNL     1       1.640   9.789  17.930  0.00  0.00    +0.000 C 
ATOM      8  C   UNL     1       1.153  10.717  19.039  0.00  0.00    +0.000 C 
ATOM      9  N   UNL     1       0.331  10.013  20.017  0.00  0.00    +0.000 N 
ATOM     10  C   UNL     1       0.862   8.874  20.599  0.00  0.00    +0.000 C 
ATOM     11  O   UNL     1       0.619   8.580  21.765  0.00  0.00    +0.000 OA
ENDROOT
BRANCH   1  12
ATOM     12  O   UNL     1       4.290   5.741  17.382  0.00  0.00    +0.000 OA
BRANCH  12  13
ATOM     13  C   UNL     1       4.715   4.459  17.845  0.00  0.00    +0.000 C 
BRANCH  13  14
ATOM     14  C   UNL     1       4.047   3.374  17.002  0.00  0.00    +0.000 C 
BRANCH  14  15
ATOM     15  C   UNL     1       3.581   2.163  17.820  0.00  0.00    +0.000 C 
BRANCH  15  16
ATOM     16  C   UNL     1       2.221   2.401  18.472  0.00  0.00    +0.000 C 
BRANCH  16  20
ATOM     17  N   UNL     1       1.810   2.726  22.074  0.00  0.00    +0.000 NA
ATOM     18  C   UNL     1       1.519   2.850  20.827  0.00  0.00    +0.000 C 
ATOM     19  N   UNL     1       0.471   3.566  20.389  0.00  0.00    +0.000 N 
ATOM     20  N   UNL     1       2.287   2.245  19.902  0.00  0.00    +0.000 N 
ATOM     21  H   UNL     1       1.139   3.256  22.630  0.00  0.00    +0.000 HD
ATOM     22  H   UNL     1      -0.243   3.757  21.081  0.00  0.00    +0.000 HD
ATOM     23  H   UNL     1       0.071   3.251  19.518  0.00  0.00    +0.000 HD
ATOM     24  H   UNL     1       3.130   1.835  20.294  0.00  0.00    +0.000 HD
ENDBRANCH  16  20
ENDBRANCH  15  16
ENDBRANCH  14  15
ENDBRANCH  13  14
ENDBRANCH  12  13
ENDBRANCH   1  12
BRANCH   9  25
ATOM     25  C   UNL     1      -0.698  10.763  20.739  0.00  0.00    +0.000 C 
BRANCH  25  26
ATOM     26  C   UNL     1      -0.144  11.582  21.896  0.00  0.00    +0.000 C 
ATOM     27  O   UNL     1       0.417  12.659  21.758  0.00  0.00    +0.000 OA
BRANCH  26  28
ATOM     28  O   UNL     1      -0.388  11.039  23.113  0.00  0.00    +0.000 OA
ATOM     29  H   UNL     1      -1.290  10.631  23.157  0.00  0.00    +0.000 HD
ENDBRANCH  26  28
ENDBRANCH  25  26
ENDBRANCH   9  25
TORSDOF 9
ENDMDL
MODEL 9
REMARK VINA RESULT:      -7.2      4.994      8.631
REMARK  Name = 
REMARK  9 active torsions:
REMARK  status: ('A' for Active; 'I' for Inactive)
REMARK    1  A    between atoms: N_4  and  C_5
REMARK    2  A    between atoms: C_5  and  C_6
REMARK    3  A    between atoms: C_6  and  C_7
REMARK    4  A    between atoms: C_7  and  C_8
REMARK    5  A    between atoms: C_8  and  O_9
REMARK    6  A    between atoms: O_9  and  C_10
REMARK    7  A    between atoms: N_18  and  C_19
REMARK    8  A    between atoms: C_19  and  C_20
REMARK    9  A    between atoms: C_20  and  O_22
REMARK                            x       y       z     vdW  Elec       q    Type
REMARK                         _______ _______ _______ _____ _____    ______ ____
ROOT
ATOM      1  C   UNL     1       3.421   5.887  19.460  0.00  0.00    +0.000 A 
ATOM      2  C   UNL     1       2.972   6.720  18.434  0.00  0.00    +0.000 A 
ATOM      3  C   UNL     1       3.666   6.791  17.228  0.00  0.00    +0.000 A 
ATOM      4  C   UNL     1       4.813   6.017  17.035  0.00  0.00    +0.000 A 
ATOM      5  C   UNL     1       5.265   5.153  18.045  0.00  0.00    +0.000 A 
ATOM      6  C   UNL     1       4.561   5.097  19.257  0.00  0.00    +0.000 A 
ATOM      7  C   UNL     1       6.438   4.242  17.792  0.00  0.00    +0.000 C 
ATOM      8  C   UNL     1       7.321   4.768  16.664  0.00  0.00    +0.000 C 
ATOM      9  N   UNL     1       6.537   5.191  15.511  0.00  0.00    +0.000 N 
ATOM     10  C   UNL     1       5.516   6.101  15.729  0.00  0.00    +0.000 C 
ATOM     11  O   UNL     1       5.233   6.955  14.894  0.00  0.00    +0.000 OA
ENDROOT
BRANCH   1  12
ATOM     12  O   UNL     1       2.828   5.760  20.685  0.00  0.00    +0.000 OA
BRANCH  12  13
ATOM     13  C   UNL     1       1.403   5.669  20.694  0.00  0.00    +0.000 C 
BRANCH  13  14
ATOM     14  C   UNL     1       0.994   4.196  20.704  0.00  0.00    +0.000 C 
BRANCH  14  15
ATOM     15  C   UNL     1       1.859   3.327  21.627  0.00  0.00    +0.000 C 
BRANCH  15  16
ATOM     16  C   UNL     1       2.715   2.335  20.844  0.00  0.00    +0.000 C 
BRANCH  16  20
ATOM     17  N   UNL     1       2.478   1.924  17.235  0.00  0.00    +0.000 NA
ATOM     18  C   UNL     1       2.989   1.834  18.412  0.00  0.00    +0.000 C 
ATOM     19  N   UNL     1       4.232   1.378  18.635  0.00  0.00    +0.000 N 
ATOM     20  N   UNL     1       2.264   2.209  19.483  0.00  0.00    +0.000 N 
ATOM     21  H   UNL     1       3.164   1.615  16.546  0.00  0.00    +0.000 HD
ATOM     22  H   UNL     1       4.639   0.838  17.881  0.00  0.00    +0.000 HD
ATOM     23  H   UNL     1       4.371   0.931  19.529  0.00  0.00    +0.000 HD
ATOM     24  H   UNL     1       1.392   2.663  19.230  0.00  0.00    +0.000 HD
ENDBRANCH  16  20
ENDBRANCH  15  16
ENDBRANCH  14  15
ENDBRANCH  13  14
ENDBRANCH  12  13
ENDBRANCH   1  12
BRANCH   9  25
ATOM     25  C   UNL     1       7.147   5.117  14.182  0.00  0.00    +0.000 C 
BRANCH  25  26
ATOM     26  C   UNL     1       6.606   3.974  13.335  0.00  0.00    +0.000 C 
ATOM     27  O   UNL     1       6.757   3.895  12.124  0.00  0.00    +0.000 OA
BRANCH  26  28
ATOM     28  O   UNL     1       5.992   3.005  14.056  0.00  0.00    +0.000 OA
ATOM     29  H   UNL     1       5.007   3.114  14.048  0.00  0.00    +0.000 HD
ENDBRANCH  26  28
ENDBRANCH  25  26
ENDBRANCH   9  25
TORSDOF 9
ENDMDL
