MODEL 1
REMARK VINA RESULT:      -6.6      0.000      0.000
REMARK  Name = 
REMARK  3 active torsions:
REMARK  status: ('A' for Active; 'I' for Inactive)
REMARK    1  A    between atoms: C_1  and  C_2
REMARK    2  A    between atoms: C_6  and  N_7
REMARK    3  A    between atoms: N_7  and  C_8
REMARK                            x       y       z     vdW  Elec       q    Type
REMARK                         _______ _______ _______ _____ _____    ______ ____
ROOT
ATOM      1  C   UNL     1      -0.180   9.487  22.592  0.00  0.00    +0.000 C 
ATOM      2  C   UNL     1       0.579   8.967  21.423  0.00  0.00    +0.000 A 
ATOM      3  N   UNL     1       1.110   7.766  21.354  0.00  0.00    +0.000 NA
ATOM      4  C   UNL     1       1.741   7.600  20.130  0.00  0.00    +0.000 A 
ATOM      5  C   UNL     1       2.420   6.440  19.698  0.00  0.00    +0.000 A 
ATOM      6  C   UNL     1       3.009   6.392  18.426  0.00  0.00    +0.000 A 
ATOM      7  C   UNL     1       2.928   7.526  17.607  0.00  0.00    +0.000 A 
ATOM      8  C   UNL     1       2.258   8.687  18.005  0.00  0.00    +0.000 A 
ATOM      9  C   UNL     1       1.673   8.701  19.275  0.00  0.00    +0.000 A 
ATOM     10  S   UNL     1       0.803   9.966  20.047  0.00  0.00    +0.000 S 
ENDROOT
BRANCH   6  11
ATOM     11  N   UNL     1       3.682   5.226  18.005  0.00  0.00    +0.000 N 
ATOM     12  H   UNL     1       3.087   4.509  17.604  0.00  0.00    +0.000 HD
BRANCH  11  13
ATOM     13  C   UNL     1       5.037   5.094  17.626  0.00  0.00    +0.000 A 
ATOM     14  C   UNL     1       5.364   4.723  16.322  0.00  0.00    +0.000 A 
ATOM     15  C   UNL     1       6.699   4.517  16.011  0.00  0.00    +0.000 A 
ATOM     16  N   UNL     1       7.714   4.671  16.890  0.00  0.00    +0.000 NA
ATOM     17  C   UNL     1       7.374   5.055  18.132  0.00  0.00    +0.000 A 
ATOM     18  C   UNL     1       6.074   5.284  18.538  0.00  0.00    +0.000 A 
ENDBRANCH  11  13
ENDBRANCH   6  11
TORSDOF 2
ENDMDL
MODEL 2
REMARK VINA RESULT:      -6.4      2.640      3.393
REMARK  Name = 
REMARK  3 active torsions:
REMARK  status: ('A' for Active; 'I' for Inactive)
REMARK    1  A    between atoms: C_1  and  C_2
REMARK    2  A    between atoms: C_6  and  N_7
REMARK    3  A    between atoms: N_7  and  C_8
REMARK                            x       y       z     vdW  Elec       q    Type
REMARK                         _______ _______ _______ _____ _____    ______ ____
ROOT
ATOM      1  C   UNL     1      -1.183  11.467  22.586  0.00  0.00    +0.000 C 
ATOM      2  C   UNL     1      -0.363  10.625  21.674  0.00  0.00    +0.000 A 
ATOM      3  N   UNL     1       0.155   9.461  21.999  0.00  0.00    +0.000 NA
ATOM      4  C   UNL     1       0.855   8.939  20.921  0.00  0.00    +0.000 A 
ATOM      5  C   UNL     1       1.543   7.707  20.898  0.00  0.00    +0.000 A 
ATOM      6  C   UNL     1       2.205   7.283  19.737  0.00  0.00    +0.000 A 
ATOM      7  C   UNL     1       2.187   8.120  18.612  0.00  0.00    +0.000 A 
ATOM      8  C   UNL     1       1.511   9.343  18.603  0.00  0.00    +0.000 A 
ATOM      9  C   UNL     1       0.852   9.733  19.773  0.00  0.00    +0.000 A 
ATOM     10  S   UNL     1      -0.045  11.167  20.078  0.00  0.00    +0.000 S 
ENDROOT
BRANCH   6  11
ATOM     11  N   UNL     1       2.886   6.048  19.724  0.00  0.00    +0.000 N 
ATOM     12  H   UNL     1       3.620   5.956  20.419  0.00  0.00    +0.000 HD
BRANCH  11  13
ATOM     13  C   UNL     1       2.418   4.803  19.249  0.00  0.00    +0.000 A 
ATOM     14  C   UNL     1       2.942   4.264  18.073  0.00  0.00    +0.000 A 
ATOM     15  C   UNL     1       2.396   3.085  17.589  0.00  0.00    +0.000 A 
ATOM     16  N   UNL     1       1.396   2.408  18.196  0.00  0.00    +0.000 NA
ATOM     17  C   UNL     1       0.928   2.934  19.340  0.00  0.00    +0.000 A 
ATOM     18  C   UNL     1       1.405   4.103  19.901  0.00  0.00    +0.000 A 
ENDBRANCH  11  13
ENDBRANCH   6  11
TORSDOF 2
ENDMDL
MODEL 3
REMARK VINA RESULT:      -6.3      1.509      2.075
REMARK  Name = 
REMARK  3 active torsions:
REMARK  status: ('A' for Active; 'I' for Inactive)
REMARK    1  A    between atoms: C_1  and  C_2
REMARK    2  A    between atoms: C_6  and  N_7
REMARK    3  A    between atoms: N_7  and  C_8
REMARK                            x       y       z     vdW  Elec       q    Type
REMARK                         _______ _______ _______ _____ _____    ______ ____
ROOT
ATOM      1  C   UNL     1       0.716  10.522  19.631  0.00  0.00    +0.000 C 
ATOM      2  C   UNL     1       1.242   9.130  19.653  0.00  0.00    +0.000 A 
ATOM      3  N   UNL     1       1.884   8.560  18.656  0.00  0.00    +0.000 NA
ATOM      4  C   UNL     1       2.241   7.267  19.005  0.00  0.00    +0.000 A 
ATOM      5  C   UNL     1       2.942   6.351  18.189  0.00  0.00    +0.000 A 
ATOM      6  C   UNL     1       3.257   5.070  18.665  0.00  0.00    +0.000 A 
ATOM      7  C   UNL     1       2.840   4.713  19.954  0.00  0.00    +0.000 A 
ATOM      8  C   UNL     1       2.149   5.598  20.787  0.00  0.00    +0.000 A 
ATOM      9  C   UNL     1       1.859   6.872  20.288  0.00  0.00    +0.000 A 
ATOM     10  S   UNL     1       1.023   8.164  21.053  0.00  0.00    +0.000 S 
ENDROOT
BRANCH   6  11
ATOM     11  N   UNL     1       3.960   4.167  17.841  0.00  0.00    +0.000 N 
ATOM     12  H   UNL     1       3.378   3.518  17.322  0.00  0.00    +0.000 HD
BRANCH  11  13
ATOM     13  C   UNL     1       5.247   4.324  17.280  0.00  0.00    +0.000 A 
ATOM     14  C   UNL     1       5.433   4.170  15.906  0.00  0.00    +0.000 A 
ATOM     15  C   UNL     1       6.723   4.243  15.403  0.00  0.00    +0.000 A 
ATOM     16  N   UNL     1       7.818   4.474  16.160  0.00  0.00    +0.000 NA
ATOM     17  C   UNL     1       7.610   4.645  17.477  0.00  0.00    +0.000 A 
ATOM     18  C   UNL     1       6.364   4.590  18.071  0.00  0.00    +0.000 A 
ENDBRANCH  11  13
ENDBRANCH   6  11
TORSDOF 2
ENDMDL
MODEL 4
REMARK VINA RESULT:      -6.2      0.501      1.234
REMARK  Name = 
REMARK  3 active torsions:
REMARK  status: ('A' for Active; 'I' for Inactive)
REMARK    1  A    between atoms: C_1  and  C_2
REMARK    2  A    between atoms: C_6  and  N_7
REMARK    3  A    between atoms: N_7  and  C_8
REMARK                            x       y       z     vdW  Elec       q    Type
REMARK                         _______ _______ _______ _____ _____    ______ ____
ROOT
ATOM      1  C   UNL     1      -0.358  10.285  22.364  0.00  0.00    +0.000 C 
ATOM      2  C   UNL     1       0.428   9.590  21.309  0.00  0.00    +0.000 A 
ATOM      3  N   UNL     1       0.994   8.411  21.455  0.00  0.00    +0.000 NA
ATOM      4  C   UNL     1       1.642   8.051  20.284  0.00  0.00    +0.000 A 
ATOM      5  C   UNL     1       2.359   6.854  20.067  0.00  0.00    +0.000 A 
ATOM      6  C   UNL     1       2.962   6.601  18.827  0.00  0.00    +0.000 A 
ATOM      7  C   UNL     1       2.856   7.569  17.819  0.00  0.00    +0.000 A 
ATOM      8  C   UNL     1       2.149   8.762  18.002  0.00  0.00    +0.000 A 
ATOM      9  C   UNL     1       1.551   8.982  19.247  0.00  0.00    +0.000 A 
ATOM     10  S   UNL     1       0.637  10.336  19.779  0.00  0.00    +0.000 S 
ENDROOT
BRANCH   6  11
ATOM     11  N   UNL     1       3.673   5.400  18.621  0.00  0.00    +0.000 N 
ATOM     12  H   UNL     1       3.102   4.561  18.606  0.00  0.00    +0.000 HD
BRANCH  11  13
ATOM     13  C   UNL     1       4.923   5.228  17.985  0.00  0.00    +0.000 A 
ATOM     14  C   UNL     1       6.103   5.453  18.694  0.00  0.00    +0.000 A 
ATOM     15  C   UNL     1       7.307   5.362  18.013  0.00  0.00    +0.000 A 
ATOM     16  N   UNL     1       7.415   5.049  16.703  0.00  0.00    +0.000 NA
ATOM     17  C   UNL     1       6.265   4.812  16.049  0.00  0.00    +0.000 A 
ATOM     18  C   UNL     1       5.017   4.879  16.639  0.00  0.00    +0.000 A 
ENDBRANCH  11  13
ENDBRANCH   6  11
TORSDOF 2
ENDMDL
MODEL 5
REMARK VINA RESULT:      -6.2      3.818      6.950
REMARK  Name = 
REMARK  3 active torsions:
REMARK  status: ('A' for Active; 'I' for Inactive)
REMARK    1  A    between atoms: C_1  and  C_2
REMARK    2  A    between atoms: C_6  and  N_7
REMARK    3  A    between atoms: N_7  and  C_8
REMARK                            x       y       z     vdW  Elec       q    Type
REMARK                         _______ _______ _______ _____ _____    ______ ____
ROOT
ATOM      1  C   UNL     1       5.930   3.407  12.360  0.00  0.00    +0.000 C 
ATOM      2  C   UNL     1       5.977   4.001  13.723  0.00  0.00    +0.000 A 
ATOM      3  N   UNL     1       4.994   3.944  14.596  0.00  0.00    +0.000 NA
ATOM      4  C   UNL     1       5.365   4.588  15.766  0.00  0.00    +0.000 A 
ATOM      5  C   UNL     1       4.569   4.729  16.924  0.00  0.00    +0.000 A 
ATOM      6  C   UNL     1       5.066   5.395  18.053  0.00  0.00    +0.000 A 
ATOM      7  C   UNL     1       6.358   5.936  17.997  0.00  0.00    +0.000 A 
ATOM      8  C   UNL     1       7.172   5.810  16.867  0.00  0.00    +0.000 A 
ATOM      9  C   UNL     1       6.651   5.132  15.761  0.00  0.00    +0.000 A 
ATOM     10  S   UNL     1       7.390   4.824  14.239  0.00  0.00    +0.000 S 
ENDROOT
BRANCH   6  11
ATOM     11  N   UNL     1       4.262   5.526  19.204  0.00  0.00    +0.000 N 
ATOM     12  H   UNL     1       4.097   6.481  19.505  0.00  0.00    +0.000 HD
BRANCH  11  13
ATOM     13  C   UNL     1       3.301   4.617  19.701  0.00  0.00    +0.000 A 
ATOM     14  C   UNL     1       1.978   5.024  19.871  0.00  0.00    +0.000 A 
ATOM     15  C   UNL     1       1.083   4.134  20.444  0.00  0.00    +0.000 A 
ATOM     16  N   UNL     1       1.407   2.881  20.833  0.00  0.00    +0.000 NA
ATOM     17  C   UNL     1       2.681   2.504  20.635  0.00  0.00    +0.000 A 
ATOM     18  C   UNL     1       3.645   3.319  20.073  0.00  0.00    +0.000 A 
ENDBRANCH  11  13
ENDBRANCH   6  11
TORSDOF 2
ENDMDL
MODEL 6
REMARK VINA RESULT:      -6.2      3.773      6.915
REMARK  Name = 
REMARK  3 active torsions:
REMARK  status: ('A' for Active; 'I' for Inactive)
REMARK    1  A    between atoms: C_1  and  C_2
REMARK    2  A    between atoms: C_6  and  N_7
REMARK    3  A    between atoms: N_7  and  C_8
REMARK                            x       y       z     vdW  Elec       q    Type
REMARK                         _______ _______ _______ _____ _____    ______ ____
ROOT
ATOM      1  C   UNL     1       5.934   3.411  12.413  0.00  0.00    +0.000 C 
ATOM      2  C   UNL     1       5.966   4.025  13.768  0.00  0.00    +0.000 A 
ATOM      3  N   UNL     1       4.976   3.976  14.632  0.00  0.00    +0.000 NA
ATOM      4  C   UNL     1       5.334   4.640  15.796  0.00  0.00    +0.000 A 
ATOM      5  C   UNL     1       4.527   4.795  16.944  0.00  0.00    +0.000 A 
ATOM      6  C   UNL     1       5.010   5.480  18.067  0.00  0.00    +0.000 A 
ATOM      7  C   UNL     1       6.300   6.027  18.015  0.00  0.00    +0.000 A 
ATOM      8  C   UNL     1       7.124   5.887  16.894  0.00  0.00    +0.000 A 
ATOM      9  C   UNL     1       6.617   5.190  15.794  0.00  0.00    +0.000 A 
ATOM     10  S   UNL     1       7.371   4.863  14.284  0.00  0.00    +0.000 S 
ENDROOT
BRANCH   6  11
ATOM     11  N   UNL     1       4.196   5.625  19.210  0.00  0.00    +0.000 N 
ATOM     12  H   UNL     1       4.013   6.583  19.487  0.00  0.00    +0.000 HD
BRANCH  11  13
ATOM     13  C   UNL     1       3.246   4.712  19.720  0.00  0.00    +0.000 A 
ATOM     14  C   UNL     1       3.603   3.381  19.935  0.00  0.00    +0.000 A 
ATOM     15  C   UNL     1       2.622   2.494  20.352  0.00  0.00    +0.000 A 
ATOM     16  N   UNL     1       1.337   2.842  20.584  0.00  0.00    +0.000 NA
ATOM     17  C   UNL     1       1.024   4.135  20.395  0.00  0.00    +0.000 A 
ATOM     18  C   UNL     1       1.931   5.092  19.981  0.00  0.00    +0.000 A 
ENDBRANCH  11  13
ENDBRANCH   6  11
TORSDOF 2
ENDMDL
MODEL 7
REMARK VINA RESULT:      -6.2      3.356      4.698
REMARK  Name = 
REMARK  3 active torsions:
REMARK  status: ('A' for Active; 'I' for Inactive)
REMARK    1  A    between atoms: C_1  and  C_2
REMARK    2  A    between atoms: C_6  and  N_7
REMARK    3  A    between atoms: N_7  and  C_8
REMARK                            x       y       z     vdW  Elec       q    Type
REMARK                         _______ _______ _______ _____ _____    ______ ____
ROOT
ATOM      1  C   UNL     1       2.701   2.632  21.062  0.00  0.00    +0.000 C 
ATOM      2  C   UNL     1       3.239   3.560  20.031  0.00  0.00    +0.000 A 
ATOM      3  N   UNL     1       4.241   3.280  19.226  0.00  0.00    +0.000 NA
ATOM      4  C   UNL     1       4.485   4.355  18.386  0.00  0.00    +0.000 A 
ATOM      5  C   UNL     1       5.484   4.420  17.390  0.00  0.00    +0.000 A 
ATOM      6  C   UNL     1       5.622   5.565  16.593  0.00  0.00    +0.000 A 
ATOM      7  C   UNL     1       4.765   6.649  16.824  0.00  0.00    +0.000 A 
ATOM      8  C   UNL     1       3.764   6.614  17.800  0.00  0.00    +0.000 A 
ATOM      9  C   UNL     1       3.645   5.455  18.571  0.00  0.00    +0.000 A 
ATOM     10  S   UNL     1       2.537   5.113  19.841  0.00  0.00    +0.000 S 
ENDROOT
BRANCH   6  11
ATOM     11  N   UNL     1       6.621   5.615  15.599  0.00  0.00    +0.000 N 
ATOM     12  H   UNL     1       7.544   5.878  15.930  0.00  0.00    +0.000 HD
BRANCH  11  13
ATOM     13  C   UNL     1       6.654   4.928  14.365  0.00  0.00    +0.000 A 
ATOM     14  C   UNL     1       7.682   5.176  13.455  0.00  0.00    +0.000 A 
ATOM     15  C   UNL     1       7.633   4.550  12.219  0.00  0.00    +0.000 A 
ATOM     16  N   UNL     1       6.658   3.695  11.841  0.00  0.00    +0.000 NA
ATOM     17  C   UNL     1       5.693   3.453  12.745  0.00  0.00    +0.000 A 
ATOM     18  C   UNL     1       5.654   4.028  14.001  0.00  0.00    +0.000 A 
ENDBRANCH  11  13
ENDBRANCH   6  11
TORSDOF 2
ENDMDL
MODEL 8
REMARK VINA RESULT:      -6.1      2.437      3.286
REMARK  Name = 
REMARK  3 active torsions:
REMARK  status: ('A' for Active; 'I' for Inactive)
REMARK    1  A    between atoms: C_1  and  C_2
REMARK    2  A    between atoms: C_6  and  N_7
REMARK    3  A    between atoms: N_7  and  C_8
REMARK                            x       y       z     vdW  Elec       q    Type
REMARK                         _______ _______ _______ _____ _____    ______ ____
ROOT
ATOM      1  C   UNL     1      -0.615  11.349  22.152  0.00  0.00    +0.000 C 
ATOM      2  C   UNL     1       0.118  10.504  21.172  0.00  0.00    +0.000 A 
ATOM      3  N   UNL     1       0.662   9.339  21.451  0.00  0.00    +0.000 NA
ATOM      4  C   UNL     1       1.260   8.814  20.315  0.00  0.00    +0.000 A 
ATOM      5  C   UNL     1       1.942   7.581  20.232  0.00  0.00    +0.000 A 
ATOM      6  C   UNL     1       2.495   7.153  19.017  0.00  0.00    +0.000 A 
ATOM      7  C   UNL     1       2.375   7.987  17.896  0.00  0.00    +0.000 A 
ATOM      8  C   UNL     1       1.702   9.211  17.946  0.00  0.00    +0.000 A 
ATOM      9  C   UNL     1       1.153   9.605  19.170  0.00  0.00    +0.000 A 
ATOM     10  S   UNL     1       0.289  11.041  19.552  0.00  0.00    +0.000 S 
ENDROOT
BRANCH   6  11
ATOM     11  N   UNL     1       3.171   5.918  18.946  0.00  0.00    +0.000 N 
ATOM     12  H   UNL     1       4.060   5.887  19.432  0.00  0.00    +0.000 HD
BRANCH  11  13
ATOM     13  C   UNL     1       2.617   4.636  18.728  0.00  0.00    +0.000 A 
ATOM     14  C   UNL     1       1.418   4.279  19.345  0.00  0.00    +0.000 A 
ATOM     15  C   UNL     1       0.952   2.984  19.179  0.00  0.00    +0.000 A 
ATOM     16  N   UNL     1       1.577   2.043  18.438  0.00  0.00    +0.000 NA
ATOM     17  C   UNL     1       2.716   2.420  17.833  0.00  0.00    +0.000 A 
ATOM     18  C   UNL     1       3.261   3.685  17.938  0.00  0.00    +0.000 A 
ENDBRANCH  11  13
ENDBRANCH   6  11
TORSDOF 2
ENDMDL
MODEL 9
REMARK VINA RESULT:      -6.1      3.054      4.336
REMARK  Name = 
REMARK  3 active torsions:
REMARK  status: ('A' for Active; 'I' for Inactive)
REMARK    1  A    between atoms: C_1  and  C_2
REMARK    2  A    between atoms: C_6  and  N_7
REMARK    3  A    between atoms: N_7  and  C_8
REMARK                            x       y       z     vdW  Elec       q    Type
REMARK                         _______ _______ _______ _____ _____    ______ ____
ROOT
ATOM      1  C   UNL     1      -0.856  12.906  18.195  0.00  0.00    +0.000 C 
ATOM      2  C   UNL     1      -0.327  11.735  18.946  0.00  0.00    +0.000 A 
ATOM      3  N   UNL     1       0.392  10.771  18.414  0.00  0.00    +0.000 NA
ATOM      4  C   UNL     1       0.726   9.841  19.387  0.00  0.00    +0.000 A 
ATOM      5  C   UNL     1       1.491   8.671  19.187  0.00  0.00    +0.000 A 
ATOM      6  C   UNL     1       1.773   7.813  20.260  0.00  0.00    +0.000 A 
ATOM      7  C   UNL     1       1.260   8.131  21.525  0.00  0.00    +0.000 A 
ATOM      8  C   UNL     1       0.503   9.284  21.755  0.00  0.00    +0.000 A 
ATOM      9  C   UNL     1       0.247  10.124  20.667  0.00  0.00    +0.000 A 
ATOM     10  S   UNL     1      -0.650  11.590  20.624  0.00  0.00    +0.000 S 
ENDROOT
BRANCH   6  11
ATOM     11  N   UNL     1       2.541   6.650  20.049  0.00  0.00    +0.000 N 
ATOM     12  H   UNL     1       3.422   6.620  20.552  0.00  0.00    +0.000 HD
BRANCH  11  13
ATOM     13  C   UNL     1       2.090   5.371  19.651  0.00  0.00    +0.000 A 
ATOM     14  C   UNL     1       2.290   4.937  18.341  0.00  0.00    +0.000 A 
ATOM     15  C   UNL     1       1.755   3.715  17.962  0.00  0.00    +0.000 A 
ATOM     16  N   UNL     1       1.064   2.902  18.791  0.00  0.00    +0.000 NA
ATOM     17  C   UNL     1       0.908   3.331  20.055  0.00  0.00    +0.000 A 
ATOM     18  C   UNL     1       1.402   4.532  20.526  0.00  0.00    +0.000 A 
ENDBRANCH  11  13
ENDBRANCH   6  11
TORSDOF 2
ENDMDL
