MODEL 1
REMARK VINA RESULT:      -8.5      0.000      0.000
REMARK  Name = 
REMARK  5 active torsions:
REMARK  status: ('A' for Active; 'I' for Inactive)
REMARK    1  A    between atoms: C_2  and  C_3
REMARK    2  A    between atoms: C_4  and  C_5
REMARK    3  A    between atoms: N_11  and  C_12
REMARK    4  A    between atoms: C_12  and  C_13
REMARK    5  A    between atoms: C_18  and  C_19
REMARK                            x       y       z     vdW  Elec       q    Type
REMARK                         _______ _______ _______ _____ _____    ______ ____
ROOT
ATOM      1  N   UNL     1       7.434   5.714  18.976  0.00  0.00    +0.000 NA
ATOM      2  C   UNL     1       6.571   4.938  18.387  0.00  0.00    +0.000 C 
ATOM      3  N   UNL     1       5.533   4.540  19.184  0.00  0.00    +0.000 N 
ATOM      4  H   UNL     1       8.190   5.978  18.336  0.00  0.00    +0.000 HD
ATOM      5  H   UNL     1       5.672   4.879  20.133  0.00  0.00    +0.000 HD
ENDROOT
BRANCH   2   6
ATOM      6  C   UNL     1       6.797   4.553  16.962  0.00  0.00    +0.000 C 
ATOM      7  C   UNL     1       6.239   5.184  15.922  0.00  0.00    +0.000 C 
BRANCH   7   8
ATOM      8  C   UNL     1       6.470   4.767  14.543  0.00  0.00    +0.000 A 
ATOM      9  C   UNL     1       5.628   3.834  13.930  0.00  0.00    +0.000 A 
ATOM     10  C   UNL     1       5.852   3.463  12.605  0.00  0.00    +0.000 A 
ATOM     11  C   UNL     1       6.909   4.030  11.893  0.00  0.00    +0.000 A 
ATOM     12  C   UNL     1       7.747   4.963  12.502  0.00  0.00    +0.000 A 
ATOM     13  C   UNL     1       7.526   5.334  13.827  0.00  0.00    +0.000 A 
ENDBRANCH   7   8
ENDBRANCH   2   6
BRANCH   3  14
ATOM     14  C   UNL     1       4.879   3.259  19.080  0.00  0.00    +0.000 C 
BRANCH  14  15
ATOM     15  C   UNL     1       3.508   3.266  19.712  0.00  0.00    +0.000 A 
ATOM     16  C   UNL     1       3.399   2.749  21.019  0.00  0.00    +0.000 A 
ATOM     17  C   UNL     1       2.160   2.612  21.640  0.00  0.00    +0.000 A 
ATOM     18  C   UNL     1       1.008   3.010  20.973  0.00  0.00    +0.000 A 
ATOM     19  C   UNL     1       1.100   3.565  19.698  0.00  0.00    +0.000 A 
ATOM     20  C   UNL     1       2.344   3.713  19.047  0.00  0.00    +0.000 A 
BRANCH  20  21
ATOM     21  C   UNL     1       2.317   4.315  17.655  0.00  0.00    +0.000 C 
ATOM     22  F   UNL     1       2.996   5.480  17.499  0.00  0.00    +0.000 F 
ATOM     23  F   UNL     1       2.846   3.462  16.730  0.00  0.00    +0.000 F 
ATOM     24  F   UNL     1       1.048   4.571  17.231  0.00  0.00    +0.000 F 
ENDBRANCH  20  21
ENDBRANCH  14  15
ENDBRANCH   3  14
TORSDOF 5
ENDMDL
MODEL 2
REMARK VINA RESULT:      -8.1      1.316      1.971
REMARK  Name = 
REMARK  5 active torsions:
REMARK  status: ('A' for Active; 'I' for Inactive)
REMARK    1  A    between atoms: C_2  and  C_3
REMARK    2  A    between atoms: C_4  and  C_5
REMARK    3  A    between atoms: N_11  and  C_12
REMARK    4  A    between atoms: C_12  and  C_13
REMARK    5  A    between atoms: C_18  and  C_19
REMARK                            x       y       z     vdW  Elec       q    Type
REMARK                         _______ _______ _______ _____ _____    ______ ____
ROOT
ATOM      1  N   UNL     1       7.196   4.762  19.013  0.00  0.00    +0.000 NA
ATOM      2  C   UNL     1       6.389   5.315  18.155  0.00  0.00    +0.000 C 
ATOM      3  N   UNL     1       5.273   5.878  18.710  0.00  0.00    +0.000 N 
ATOM      4  H   UNL     1       8.012   4.355  18.545  0.00  0.00    +0.000 HD
ATOM      5  H   UNL     1       5.249   5.693  19.710  0.00  0.00    +0.000 HD
ENDROOT
BRANCH   2   6
ATOM      6  C   UNL     1       6.733   5.266  16.703  0.00  0.00    +0.000 C 
ATOM      7  C   UNL     1       6.134   4.455  15.822  0.00  0.00    +0.000 C 
BRANCH   7   8
ATOM      8  C   UNL     1       6.509   4.424  14.413  0.00  0.00    +0.000 A 
ATOM      9  C   UNL     1       7.515   5.262  13.924  0.00  0.00    +0.000 A 
ATOM     10  C   UNL     1       7.875   5.202  12.578  0.00  0.00    +0.000 A 
ATOM     11  C   UNL     1       7.236   4.301  11.726  0.00  0.00    +0.000 A 
ATOM     12  C   UNL     1       6.235   3.462  12.214  0.00  0.00    +0.000 A 
ATOM     13  C   UNL     1       5.873   3.521  13.558  0.00  0.00    +0.000 A 
ENDBRANCH   7   8
ENDBRANCH   2   6
BRANCH   3  14
ATOM     14  C   UNL     1       3.985   5.925  18.065  0.00  0.00    +0.000 C 
BRANCH  14  15
ATOM     15  C   UNL     1       2.917   5.226  18.871  0.00  0.00    +0.000 A 
ATOM     16  C   UNL     1       2.334   5.952  19.931  0.00  0.00    +0.000 A 
ATOM     17  C   UNL     1       1.421   5.355  20.797  0.00  0.00    +0.000 A 
ATOM     18  C   UNL     1       1.058   4.027  20.608  0.00  0.00    +0.000 A 
ATOM     19  C   UNL     1       1.590   3.308  19.538  0.00  0.00    +0.000 A 
ATOM     20  C   UNL     1       2.517   3.890  18.647  0.00  0.00    +0.000 A 
BRANCH  20  21
ATOM     21  C   UNL     1       3.039   3.005  17.532  0.00  0.00    +0.000 C 
ATOM     22  F   UNL     1       3.057   3.559  16.293  0.00  0.00    +0.000 F 
ATOM     23  F   UNL     1       4.322   2.604  17.768  0.00  0.00    +0.000 F 
ATOM     24  F   UNL     1       2.316   1.855  17.408  0.00  0.00    +0.000 F 
ENDBRANCH  20  21
ENDBRANCH  14  15
ENDBRANCH   3  14
TORSDOF 5
ENDMDL
MODEL 3
REMARK VINA RESULT:      -7.9      1.334      1.721
REMARK  Name = 
REMARK  5 active torsions:
REMARK  status: ('A' for Active; 'I' for Inactive)
REMARK    1  A    between atoms: C_2  and  C_3
REMARK    2  A    between atoms: C_4  and  C_5
REMARK    3  A    between atoms: N_11  and  C_12
REMARK    4  A    between atoms: C_12  and  C_13
REMARK    5  A    between atoms: C_18  and  C_19
REMARK                            x       y       z     vdW  Elec       q    Type
REMARK                         _______ _______ _______ _____ _____    ______ ____
ROOT
ATOM      1  N   UNL     1       6.918   4.413  18.722  0.00  0.00    +0.000 NA
ATOM      2  C   UNL     1       6.066   4.875  17.854  0.00  0.00    +0.000 C 
ATOM      3  N   UNL     1       5.147   5.747  18.371  0.00  0.00    +0.000 N 
ATOM      4  H   UNL     1       7.578   3.764  18.283  0.00  0.00    +0.000 HD
ATOM      5  H   UNL     1       5.264   5.820  19.379  0.00  0.00    +0.000 HD
ENDROOT
BRANCH   2   6
ATOM      6  C   UNL     1       6.152   4.411  16.437  0.00  0.00    +0.000 C 
ATOM      7  C   UNL     1       6.674   5.141  15.444  0.00  0.00    +0.000 C 
BRANCH   7   8
ATOM      8  C   UNL     1       6.725   4.661  14.068  0.00  0.00    +0.000 A 
ATOM      9  C   UNL     1       5.845   3.668  13.626  0.00  0.00    +0.000 A 
ATOM     10  C   UNL     1       5.894   3.237  12.301  0.00  0.00    +0.000 A 
ATOM     11  C   UNL     1       6.815   3.801  11.419  0.00  0.00    +0.000 A 
ATOM     12  C   UNL     1       7.692   4.793  11.859  0.00  0.00    +0.000 A 
ATOM     13  C   UNL     1       7.645   5.225  13.182  0.00  0.00    +0.000 A 
ENDBRANCH   7   8
ENDBRANCH   2   6
BRANCH   3  14
ATOM     14  C   UNL     1       3.790   5.864  17.902  0.00  0.00    +0.000 C 
BRANCH  14  15
ATOM     15  C   UNL     1       2.807   5.175  18.818  0.00  0.00    +0.000 A 
ATOM     16  C   UNL     1       2.286   5.933  19.887  0.00  0.00    +0.000 A 
ATOM     17  C   UNL     1       1.460   5.352  20.847  0.00  0.00    +0.000 A 
ATOM     18  C   UNL     1       1.123   4.008  20.744  0.00  0.00    +0.000 A 
ATOM     19  C   UNL     1       1.593   3.255  19.669  0.00  0.00    +0.000 A 
ATOM     20  C   UNL     1       2.432   3.821  18.684  0.00  0.00    +0.000 A 
BRANCH  20  21
ATOM     21  C   UNL     1       2.893   2.899  17.572  0.00  0.00    +0.000 C 
ATOM     22  F   UNL     1       3.023   3.467  16.345  0.00  0.00    +0.000 F 
ATOM     23  F   UNL     1       4.113   2.352  17.847  0.00  0.00    +0.000 F 
ATOM     24  F   UNL     1       2.051   1.841  17.398  0.00  0.00    +0.000 F 
ENDBRANCH  20  21
ENDBRANCH  14  15
ENDBRANCH   3  14
TORSDOF 5
ENDMDL
MODEL 4
REMARK VINA RESULT:      -7.6      1.249      2.096
REMARK  Name = 
REMARK  5 active torsions:
REMARK  status: ('A' for Active; 'I' for Inactive)
REMARK    1  A    between atoms: C_2  and  C_3
REMARK    2  A    between atoms: C_4  and  C_5
REMARK    3  A    between atoms: N_11  and  C_12
REMARK    4  A    between atoms: C_12  and  C_13
REMARK    5  A    between atoms: C_18  and  C_19
REMARK                            x       y       z     vdW  Elec       q    Type
REMARK                         _______ _______ _______ _____ _____    ______ ____
ROOT
ATOM      1  N   UNL     1       6.526   5.721  18.719  0.00  0.00    +0.000 NA
ATOM      2  C   UNL     1       5.506   5.890  17.930  0.00  0.00    +0.000 C 
ATOM      3  N   UNL     1       4.353   6.258  18.568  0.00  0.00    +0.000 N 
ATOM      4  H   UNL     1       7.360   5.444  18.190  0.00  0.00    +0.000 HD
ATOM      5  H   UNL     1       4.498   6.264  19.575  0.00  0.00    +0.000 HD
ENDROOT
BRANCH   2   6
ATOM      6  C   UNL     1       5.675   5.655  16.465  0.00  0.00    +0.000 C 
ATOM      7  C   UNL     1       6.495   4.732  15.948  0.00  0.00    +0.000 C 
BRANCH   7   8
ATOM      8  C   UNL     1       6.647   4.544  14.510  0.00  0.00    +0.000 A 
ATOM      9  C   UNL     1       7.600   5.273  13.792  0.00  0.00    +0.000 A 
ATOM     10  C   UNL     1       7.745   5.063  12.421  0.00  0.00    +0.000 A 
ATOM     11  C   UNL     1       6.946   4.123  11.772  0.00  0.00    +0.000 A 
ATOM     12  C   UNL     1       5.997   3.393  12.488  0.00  0.00    +0.000 A 
ATOM     13  C   UNL     1       5.850   3.601  13.858  0.00  0.00    +0.000 A 
ENDBRANCH   7   8
ENDBRANCH   2   6
BRANCH   3  14
ATOM     14  C   UNL     1       3.032   5.868  18.141  0.00  0.00    +0.000 C 
BRANCH  14  15
ATOM     15  C   UNL     1       2.431   4.814  19.038  0.00  0.00    +0.000 A 
ATOM     16  C   UNL     1       1.898   5.246  20.271  0.00  0.00    +0.000 A 
ATOM     17  C   UNL     1       1.423   4.334  21.210  0.00  0.00    +0.000 A 
ATOM     18  C   UNL     1       1.452   2.974  20.926  0.00  0.00    +0.000 A 
ATOM     19  C   UNL     1       1.933   2.532  19.695  0.00  0.00    +0.000 A 
ATOM     20  C   UNL     1       2.421   3.436  18.727  0.00  0.00    +0.000 A 
BRANCH  20  21
ATOM     21  C   UNL     1       2.934   2.836  17.432  0.00  0.00    +0.000 C 
ATOM     22  F   UNL     1       2.527   1.569  17.163  0.00  0.00    +0.000 F 
ATOM     23  F   UNL     1       2.551   3.576  16.350  0.00  0.00    +0.000 F 
ATOM     24  F   UNL     1       4.296   2.801  17.386  0.00  0.00    +0.000 F 
ENDBRANCH  20  21
ENDBRANCH  14  15
ENDBRANCH   3  14
TORSDOF 5
ENDMDL
MODEL 5
REMARK VINA RESULT:      -7.6      2.181      2.796
REMARK  Name = 
REMARK  5 active torsions:
REMARK  status: ('A' for Active; 'I' for Inactive)
REMARK    1  A    between atoms: C_2  and  C_3
REMARK    2  A    between atoms: C_4  and  C_5
REMARK    3  A    between atoms: N_11  and  C_12
REMARK    4  A    between atoms: C_12  and  C_13
REMARK    5  A    between atoms: C_18  and  C_19
REMARK                            x       y       z     vdW  Elec       q    Type
REMARK                         _______ _______ _______ _____ _____    ______ ____
ROOT
ATOM      1  N   UNL     1       8.012   4.665  18.573  0.00  0.00    +0.000 NA
ATOM      2  C   UNL     1       6.788   4.511  18.161  0.00  0.00    +0.000 C 
ATOM      3  N   UNL     1       5.844   4.600  19.147  0.00  0.00    +0.000 N 
ATOM      4  H   UNL     1       8.677   4.585  17.796  0.00  0.00    +0.000 HD
ATOM      5  H   UNL     1       6.294   4.705  20.053  0.00  0.00    +0.000 HD
ENDROOT
BRANCH   2   6
ATOM      6  C   UNL     1       6.539   4.241  16.713  0.00  0.00    +0.000 C 
ATOM      7  C   UNL     1       7.203   4.842  15.718  0.00  0.00    +0.000 C 
BRANCH   7   8
ATOM      8  C   UNL     1       6.919   4.564  14.315  0.00  0.00    +0.000 A 
ATOM      9  C   UNL     1       7.732   5.089  13.306  0.00  0.00    +0.000 A 
ATOM     10  C   UNL     1       7.457   4.795  11.970  0.00  0.00    +0.000 A 
ATOM     11  C   UNL     1       6.378   3.973  11.646  0.00  0.00    +0.000 A 
ATOM     12  C   UNL     1       5.569   3.446  12.652  0.00  0.00    +0.000 A 
ATOM     13  C   UNL     1       5.841   3.740  13.987  0.00  0.00    +0.000 A 
ENDBRANCH   7   8
ENDBRANCH   2   6
BRANCH   3  14
ATOM     14  C   UNL     1       4.612   3.851  19.157  0.00  0.00    +0.000 C 
BRANCH  14  15
ATOM     15  C   UNL     1       3.436   4.693  19.591  0.00  0.00    +0.000 A 
ATOM     16  C   UNL     1       3.397   6.027  19.135  0.00  0.00    +0.000 A 
ATOM     17  C   UNL     1       2.412   6.909  19.572  0.00  0.00    +0.000 A 
ATOM     18  C   UNL     1       1.435   6.469  20.455  0.00  0.00    +0.000 A 
ATOM     19  C   UNL     1       1.431   5.141  20.881  0.00  0.00    +0.000 A 
ATOM     20  C   UNL     1       2.420   4.228  20.454  0.00  0.00    +0.000 A 
BRANCH  20  21
ATOM     21  C   UNL     1       2.322   2.816  20.998  0.00  0.00    +0.000 C 
ATOM     22  F   UNL     1       3.384   2.385  21.727  0.00  0.00    +0.000 F 
ATOM     23  F   UNL     1       1.239   2.666  21.814  0.00  0.00    +0.000 F 
ATOM     24  F   UNL     1       2.161   1.893  20.007  0.00  0.00    +0.000 F 
ENDBRANCH  20  21
ENDBRANCH  14  15
ENDBRANCH   3  14
TORSDOF 5
ENDMDL
MODEL 6
REMARK VINA RESULT:      -7.6      3.289      4.407
REMARK  Name = 
REMARK  5 active torsions:
REMARK  status: ('A' for Active; 'I' for Inactive)
REMARK    1  A    between atoms: C_2  and  C_3
REMARK    2  A    between atoms: C_4  and  C_5
REMARK    3  A    between atoms: N_11  and  C_12
REMARK    4  A    between atoms: C_12  and  C_13
REMARK    5  A    between atoms: C_18  and  C_19
REMARK                            x       y       z     vdW  Elec       q    Type
REMARK                         _______ _______ _______ _____ _____    ______ ____
ROOT
ATOM      1  N   UNL     1       4.112   0.593  17.992  0.00  0.00    +0.000 NA
ATOM      2  C   UNL     1       3.522   1.686  18.378  0.00  0.00    +0.000 C 
ATOM      3  N   UNL     1       2.204   1.531  18.709  0.00  0.00    +0.000 N 
ATOM      4  H   UNL     1       5.094   0.767  17.754  0.00  0.00    +0.000 HD
ATOM      5  H   UNL     1       1.907   0.576  18.521  0.00  0.00    +0.000 HD
ENDROOT
BRANCH   2   6
ATOM      6  C   UNL     1       4.300   2.961  18.400  0.00  0.00    +0.000 C 
ATOM      7  C   UNL     1       4.850   3.517  17.314  0.00  0.00    +0.000 C 
BRANCH   7   8
ATOM      8  C   UNL     1       5.619   4.755  17.379  0.00  0.00    +0.000 A 
ATOM      9  C   UNL     1       6.642   4.910  18.318  0.00  0.00    +0.000 A 
ATOM     10  C   UNL     1       7.381   6.092  18.351  0.00  0.00    +0.000 A 
ATOM     11  C   UNL     1       7.102   7.113  17.442  0.00  0.00    +0.000 A 
ATOM     12  C   UNL     1       6.083   6.957  16.502  0.00  0.00    +0.000 A 
ATOM     13  C   UNL     1       5.343   5.777  16.469  0.00  0.00    +0.000 A 
ENDBRANCH   7   8
ENDBRANCH   2   6
BRANCH   3  14
ATOM     14  C   UNL     1       1.193   2.538  18.503  0.00  0.00    +0.000 C 
BRANCH  14  15
ATOM     15  C   UNL     1       1.666   3.912  18.912  0.00  0.00    +0.000 A 
ATOM     16  C   UNL     1       1.726   4.898  17.905  0.00  0.00    +0.000 A 
ATOM     17  C   UNL     1       2.252   6.161  18.162  0.00  0.00    +0.000 A 
ATOM     18  C   UNL     1       2.709   6.470  19.438  0.00  0.00    +0.000 A 
ATOM     19  C   UNL     1       2.616   5.524  20.457  0.00  0.00    +0.000 A 
ATOM     20  C   UNL     1       2.087   4.236  20.221  0.00  0.00    +0.000 A 
BRANCH  20  21
ATOM     21  C   UNL     1       2.052   3.287  21.403  0.00  0.00    +0.000 C 
ATOM     22  F   UNL     1       2.969   2.286  21.388  0.00  0.00    +0.000 F 
ATOM     23  F   UNL     1       2.255   3.946  22.581  0.00  0.00    +0.000 F 
ATOM     24  F   UNL     1       0.842   2.672  21.533  0.00  0.00    +0.000 F 
ENDBRANCH  20  21
ENDBRANCH  14  15
ENDBRANCH   3  14
TORSDOF 5
ENDMDL
MODEL 7
REMARK VINA RESULT:      -7.5      1.893      2.317
REMARK  Name = 
REMARK  5 active torsions:
REMARK  status: ('A' for Active; 'I' for Inactive)
REMARK    1  A    between atoms: C_2  and  C_3
REMARK    2  A    between atoms: C_4  and  C_5
REMARK    3  A    between atoms: N_11  and  C_12
REMARK    4  A    between atoms: C_12  and  C_13
REMARK    5  A    between atoms: C_18  and  C_19
REMARK                            x       y       z     vdW  Elec       q    Type
REMARK                         _______ _______ _______ _____ _____    ______ ____
ROOT
ATOM      1  N   UNL     1       8.280   6.109  19.101  0.00  0.00    +0.000 NA
ATOM      2  C   UNL     1       7.252   5.542  18.539  0.00  0.00    +0.000 C 
ATOM      3  N   UNL     1       6.159   5.420  19.351  0.00  0.00    +0.000 N 
ATOM      4  H   UNL     1       9.069   6.172  18.451  0.00  0.00    +0.000 HD
ATOM      5  H   UNL     1       6.383   5.742  20.290  0.00  0.00    +0.000 HD
ENDROOT
BRANCH   2   6
ATOM      6  C   UNL     1       7.366   5.077  17.124  0.00  0.00    +0.000 C 
ATOM      7  C   UNL     1       6.501   5.410  16.159  0.00  0.00    +0.000 C 
BRANCH   7   8
ATOM      8  C   UNL     1       6.635   4.922  14.791  0.00  0.00    +0.000 A 
ATOM      9  C   UNL     1       5.756   3.957  14.289  0.00  0.00    +0.000 A 
ATOM     10  C   UNL     1       5.887   3.518  12.972  0.00  0.00    +0.000 A 
ATOM     11  C   UNL     1       6.888   4.047  12.158  0.00  0.00    +0.000 A 
ATOM     12  C   UNL     1       7.764   5.011  12.657  0.00  0.00    +0.000 A 
ATOM     13  C   UNL     1       7.635   5.450  13.973  0.00  0.00    +0.000 A 
ENDBRANCH   7   8
ENDBRANCH   2   6
BRANCH   3  14
ATOM     14  C   UNL     1       5.221   4.327  19.287  0.00  0.00    +0.000 C 
BRANCH  14  15
ATOM     15  C   UNL     1       3.902   4.741  18.682  0.00  0.00    +0.000 A 
ATOM     16  C   UNL     1       3.575   6.113  18.729  0.00  0.00    +0.000 A 
ATOM     17  C   UNL     1       2.334   6.573  18.297  0.00  0.00    +0.000 A 
ATOM     18  C   UNL     1       1.404   5.674  17.790  0.00  0.00    +0.000 A 
ATOM     19  C   UNL     1       1.726   4.321  17.694  0.00  0.00    +0.000 A 
ATOM     20  C   UNL     1       2.977   3.830  18.126  0.00  0.00    +0.000 A 
BRANCH  20  21
ATOM     21  C   UNL     1       3.207   2.337  17.987  0.00  0.00    +0.000 C 
ATOM     22  F   UNL     1       2.218   1.639  17.371  0.00  0.00    +0.000 F 
ATOM     23  F   UNL     1       4.338   2.068  17.273  0.00  0.00    +0.000 F 
ATOM     24  F   UNL     1       3.385   1.730  19.195  0.00  0.00    +0.000 F 
ENDBRANCH  20  21
ENDBRANCH  14  15
ENDBRANCH   3  14
TORSDOF 5
ENDMDL
MODEL 8
REMARK VINA RESULT:      -7.5      1.331      1.918
REMARK  Name = 
REMARK  5 active torsions:
REMARK  status: ('A' for Active; 'I' for Inactive)
REMARK    1  A    between atoms: C_2  and  C_3
REMARK    2  A    between atoms: C_4  and  C_5
REMARK    3  A    between atoms: N_11  and  C_12
REMARK    4  A    between atoms: C_12  and  C_13
REMARK    5  A    between atoms: C_18  and  C_19
REMARK                            x       y       z     vdW  Elec       q    Type
REMARK                         _______ _______ _______ _____ _____    ______ ____
ROOT
ATOM      1  N   UNL     1       6.808   6.097  18.556  0.00  0.00    +0.000 NA
ATOM      2  C   UNL     1       5.827   6.135  17.702  0.00  0.00    +0.000 C 
ATOM      3  N   UNL     1       4.607   6.417  18.254  0.00  0.00    +0.000 N 
ATOM      4  H   UNL     1       7.695   5.880  18.090  0.00  0.00    +0.000 HD
ATOM      5  H   UNL     1       4.688   6.478  19.266  0.00  0.00    +0.000 HD
ENDROOT
BRANCH   2   6
ATOM      6  C   UNL     1       6.108   5.857  16.262  0.00  0.00    +0.000 C 
ATOM      7  C   UNL     1       6.109   4.630  15.726  0.00  0.00    +0.000 C 
BRANCH   7   8
ATOM      8  C   UNL     1       6.406   4.396  14.318  0.00  0.00    +0.000 A 
ATOM      9  C   UNL     1       5.621   3.524  13.559  0.00  0.00    +0.000 A 
ATOM     10  C   UNL     1       5.907   3.329  12.208  0.00  0.00    +0.000 A 
ATOM     11  C   UNL     1       6.971   4.010  11.617  0.00  0.00    +0.000 A 
ATOM     12  C   UNL     1       7.754   4.883  12.373  0.00  0.00    +0.000 A 
ATOM     13  C   UNL     1       7.470   5.078  13.723  0.00  0.00    +0.000 A 
ENDBRANCH   7   8
ENDBRANCH   2   6
BRANCH   3  14
ATOM     14  C   UNL     1       3.358   5.885  17.770  0.00  0.00    +0.000 C 
BRANCH  14  15
ATOM     15  C   UNL     1       2.639   5.071  18.819  0.00  0.00    +0.000 A 
ATOM     16  C   UNL     1       2.163   5.761  19.954  0.00  0.00    +0.000 A 
ATOM     17  C   UNL     1       1.587   5.079  21.023  0.00  0.00    +0.000 A 
ATOM     18  C   UNL     1       1.457   3.697  20.969  0.00  0.00    +0.000 A 
ATOM     19  C   UNL     1       1.881   3.003  19.836  0.00  0.00    +0.000 A 
ATOM     20  C   UNL     1       2.469   3.672  18.740  0.00  0.00    +0.000 A 
BRANCH  20  21
ATOM     21  C   UNL     1       2.906   2.809  17.572  0.00  0.00    +0.000 C 
ATOM     22  F   UNL     1       2.434   1.536  17.565  0.00  0.00    +0.000 F 
ATOM     23  F   UNL     1       2.517   3.346  16.379  0.00  0.00    +0.000 F 
ATOM     24  F   UNL     1       4.262   2.696  17.496  0.00  0.00    +0.000 F 
ENDBRANCH  20  21
ENDBRANCH  14  15
ENDBRANCH   3  14
TORSDOF 5
ENDMDL
MODEL 9
REMARK VINA RESULT:      -7.5      0.579      1.437
REMARK  Name = 
REMARK  5 active torsions:
REMARK  status: ('A' for Active; 'I' for Inactive)
REMARK    1  A    between atoms: C_2  and  C_3
REMARK    2  A    between atoms: C_4  and  C_5
REMARK    3  A    between atoms: N_11  and  C_12
REMARK    4  A    between atoms: C_12  and  C_13
REMARK    5  A    between atoms: C_18  and  C_19
REMARK                            x       y       z     vdW  Elec       q    Type
REMARK                         _______ _______ _______ _____ _____    ______ ____
ROOT
ATOM      1  N   UNL     1       6.701   6.468  18.342  0.00  0.00    +0.000 NA
ATOM      2  C   UNL     1       5.994   5.418  18.043  0.00  0.00    +0.000 C 
ATOM      3  N   UNL     1       5.157   4.997  19.040  0.00  0.00    +0.000 N 
ATOM      4  H   UNL     1       7.311   6.737  17.564  0.00  0.00    +0.000 HD
ATOM      5  H   UNL     1       5.298   5.559  19.876  0.00  0.00    +0.000 HD
ENDROOT
BRANCH   2   6
ATOM      6  C   UNL     1       6.172   4.782  16.704  0.00  0.00    +0.000 C 
ATOM      7  C   UNL     1       5.861   5.381  15.547  0.00  0.00    +0.000 C 
BRANCH   7   8
ATOM      8  C   UNL     1       6.032   4.721  14.258  0.00  0.00    +0.000 A 
ATOM      9  C   UNL     1       7.242   4.816  13.564  0.00  0.00    +0.000 A 
ATOM     10  C   UNL     1       7.394   4.160  12.343  0.00  0.00    +0.000 A 
ATOM     11  C   UNL     1       6.343   3.405  11.822  0.00  0.00    +0.000 A 
ATOM     12  C   UNL     1       5.137   3.308  12.516  0.00  0.00    +0.000 A 
ATOM     13  C   UNL     1       4.982   3.963  13.735  0.00  0.00    +0.000 A 
ENDBRANCH   7   8
ENDBRANCH   2   6
BRANCH   3  14
ATOM     14  C   UNL     1       4.816   3.617  19.281  0.00  0.00    +0.000 C 
BRANCH  14  15
ATOM     15  C   UNL     1       3.415   3.462  19.822  0.00  0.00    +0.000 A 
ATOM     16  C   UNL     1       3.278   2.846  21.083  0.00  0.00    +0.000 A 
ATOM     17  C   UNL     1       2.022   2.560  21.613  0.00  0.00    +0.000 A 
ATOM     18  C   UNL     1       0.879   2.903  20.901  0.00  0.00    +0.000 A 
ATOM     19  C   UNL     1       0.995   3.554  19.673  0.00  0.00    +0.000 A 
ATOM     20  C   UNL     1       2.257   3.853  19.115  0.00  0.00    +0.000 A 
BRANCH  20  21
ATOM     21  C   UNL     1       2.257   4.547  17.767  0.00  0.00    +0.000 C 
ATOM     22  F   UNL     1       1.048   4.660  17.157  0.00  0.00    +0.000 F 
ATOM     23  F   UNL     1       2.736   5.822  17.859  0.00  0.00    +0.000 F 
ATOM     24  F   UNL     1       3.063   3.919  16.865  0.00  0.00    +0.000 F 
ENDBRANCH  20  21
ENDBRANCH  14  15
ENDBRANCH   3  14
TORSDOF 5
ENDMDL
