MODEL 1
REMARK VINA RESULT:      -8.2      0.000      0.000
REMARK  Name = 
REMARK  6 active torsions:
REMARK  status: ('A' for Active; 'I' for Inactive)
REMARK    1  A    between atoms: C_1  and  C_2
REMARK    2  A    between atoms: C_7  and  N_8
REMARK    3  A    between atoms: C_9  and  C_11
REMARK    4  A    between atoms: N_13  and  C_14
REMARK    5  A    between atoms: C_14  and  C_15
REMARK    6  A    between atoms: C_15  and  C_16
REMARK                            x       y       z     vdW  Elec       q    Type
REMARK                         _______ _______ _______ _____ _____    ______ ____
ROOT
ATOM      1  C   UNL     1       3.249   4.469  19.766  0.00  0.00    +0.000 C 
ATOM      2  O   UNL     1       3.364   3.443  20.428  0.00  0.00    +0.000 OA
ATOM      3  N   UNL     1       3.994   4.852  18.657  0.00  0.00    +0.000 N 
ATOM      4  H   UNL     1       3.779   5.793  18.317  0.00  0.00    +0.000 HD
ENDROOT
BRANCH   1   6
ATOM      5  N   UNL     1       2.575   6.894  20.016  0.00  0.00    +0.000 N 
ATOM      6  C   UNL     1       2.188   5.554  20.110  0.00  0.00    +0.000 C 
ATOM      7  O   UNL     1       1.092   5.123  20.466  0.00  0.00    +0.000 OA
ATOM      8  H   UNL     1       3.559   7.068  19.853  0.00  0.00    +0.000 HD
BRANCH   5  15
ATOM      9  C   UNL     1       1.902   8.836  17.818  0.00  0.00    +0.000 C 
ATOM     10  C   UNL     1       1.386   8.929  19.227  0.00  0.00    +0.000 A 
ATOM     11  C   UNL     1       0.537  10.026  19.524  0.00  0.00    +0.000 A 
ATOM     12  C   UNL     1       0.005  10.211  20.796  0.00  0.00    +0.000 A 
ATOM     13  C   UNL     1       0.291   9.292  21.789  0.00  0.00    +0.000 A 
ATOM     14  C   UNL     1       1.119   8.200  21.510  0.00  0.00    +0.000 A 
ATOM     15  C   UNL     1       1.702   8.003  20.245  0.00  0.00    +0.000 A 
ENDBRANCH   5  15
ENDBRANCH   1   6
BRANCH   3  16
ATOM     16  C   UNL     1       5.141   4.162  18.084  0.00  0.00    +0.000 C 
BRANCH  16  17
ATOM     17  C   UNL     1       6.130   5.124  17.323  0.00  0.00    +0.000 C 
ATOM     18  C   UNL     1       5.648   6.600  17.418  0.00  0.00    +0.000 C 
ATOM     19  C   UNL     1       6.932   7.421  17.377  0.00  0.00    +0.000 C 
ATOM     20  C   UNL     1       7.845   6.645  18.307  0.00  0.00    +0.000 C 
ATOM     21  C   UNL     1       7.484   5.168  18.106  0.00  0.00    +0.000 C 
BRANCH  17  22
ATOM     22  C   UNL     1       6.272   4.782  15.816  0.00  0.00    +0.000 A 
ATOM     23  C   UNL     1       5.189   4.238  15.099  0.00  0.00    +0.000 A 
ATOM     24  C   UNL     1       5.296   3.919  13.741  0.00  0.00    +0.000 A 
ATOM     25  C   UNL     1       6.482   4.158  13.055  0.00  0.00    +0.000 A 
ATOM     26  C   UNL     1       7.553   4.737  13.724  0.00  0.00    +0.000 A 
ATOM     27  C   UNL     1       7.446   5.049  15.085  0.00  0.00    +0.000 A 
ENDBRANCH  17  22
ENDBRANCH  16  17
ENDBRANCH   3  16
TORSDOF 5
ENDMDL
MODEL 2
REMARK VINA RESULT:      -8.1      2.207      3.923
REMARK  Name = 
REMARK  6 active torsions:
REMARK  status: ('A' for Active; 'I' for Inactive)
REMARK    1  A    between atoms: C_1  and  C_2
REMARK    2  A    between atoms: C_7  and  N_8
REMARK    3  A    between atoms: C_9  and  C_11
REMARK    4  A    between atoms: N_13  and  C_14
REMARK    5  A    between atoms: C_14  and  C_15
REMARK    6  A    between atoms: C_15  and  C_16
REMARK                            x       y       z     vdW  Elec       q    Type
REMARK                         _______ _______ _______ _____ _____    ______ ____
ROOT
ATOM      1  C   UNL     1       2.054   7.426  19.837  0.00  0.00    +0.000 C 
ATOM      2  O   UNL     1       1.515   7.076  20.882  0.00  0.00    +0.000 OA
ATOM      3  N   UNL     1       3.060   6.770  19.139  0.00  0.00    +0.000 N 
ATOM      4  H   UNL     1       3.418   7.293  18.336  0.00  0.00    +0.000 HD
ENDROOT
BRANCH   1   6
ATOM      5  N   UNL     1       0.863   9.657  19.811  0.00  0.00    +0.000 N 
ATOM      6  C   UNL     1       1.659   8.745  19.112  0.00  0.00    +0.000 C 
ATOM      7  O   UNL     1       2.071   8.854  17.958  0.00  0.00    +0.000 OA
ATOM      8  H   UNL     1       0.489   9.341  20.698  0.00  0.00    +0.000 HD
BRANCH   5  15
ATOM      9  C   UNL     1      -1.730  10.008  18.326  0.00  0.00    +0.000 C 
ATOM     10  C   UNL     1      -0.745  11.111  18.595  0.00  0.00    +0.000 A 
ATOM     11  C   UNL     1      -1.072  12.395  18.091  0.00  0.00    +0.000 A 
ATOM     12  C   UNL     1      -0.231  13.487  18.280  0.00  0.00    +0.000 A 
ATOM     13  C   UNL     1       0.941  13.323  18.996  0.00  0.00    +0.000 A 
ATOM     14  C   UNL     1       1.273  12.066  19.507  0.00  0.00    +0.000 A 
ATOM     15  C   UNL     1       0.464  10.933  19.304  0.00  0.00    +0.000 A 
ENDBRANCH   5  15
ENDBRANCH   1   6
BRANCH   3  16
ATOM     16  C   UNL     1       3.768   5.562  19.539  0.00  0.00    +0.000 C 
BRANCH  16  17
ATOM     17  C   UNL     1       3.733   4.428  18.446  0.00  0.00    +0.000 C 
ATOM     18  C   UNL     1       3.821   3.022  19.104  0.00  0.00    +0.000 C 
ATOM     19  C   UNL     1       3.043   2.111  18.160  0.00  0.00    +0.000 C 
ATOM     20  C   UNL     1       1.819   2.947  17.837  0.00  0.00    +0.000 C 
ATOM     21  C   UNL     1       2.308   4.400  17.800  0.00  0.00    +0.000 C 
BRANCH  17  22
ATOM     22  C   UNL     1       4.896   4.532  17.424  0.00  0.00    +0.000 A 
ATOM     23  C   UNL     1       6.235   4.537  17.861  0.00  0.00    +0.000 A 
ATOM     24  C   UNL     1       7.300   4.634  16.959  0.00  0.00    +0.000 A 
ATOM     25  C   UNL     1       7.057   4.702  15.591  0.00  0.00    +0.000 A 
ATOM     26  C   UNL     1       5.749   4.653  15.127  0.00  0.00    +0.000 A 
ATOM     27  C   UNL     1       4.685   4.563  16.033  0.00  0.00    +0.000 A 
ENDBRANCH  17  22
ENDBRANCH  16  17
ENDBRANCH   3  16
TORSDOF 5
ENDMDL
MODEL 3
REMARK VINA RESULT:      -7.9      0.721      2.943
REMARK  Name = 
REMARK  6 active torsions:
REMARK  status: ('A' for Active; 'I' for Inactive)
REMARK    1  A    between atoms: C_1  and  C_2
REMARK    2  A    between atoms: C_7  and  N_8
REMARK    3  A    between atoms: C_9  and  C_11
REMARK    4  A    between atoms: N_13  and  C_14
REMARK    5  A    between atoms: C_14  and  C_15
REMARK    6  A    between atoms: C_15  and  C_16
REMARK                            x       y       z     vdW  Elec       q    Type
REMARK                         _______ _______ _______ _____ _____    ______ ____
ROOT
ATOM      1  C   UNL     1       3.251   4.356  19.677  0.00  0.00    +0.000 C 
ATOM      2  O   UNL     1       3.425   3.386  20.408  0.00  0.00    +0.000 OA
ATOM      3  N   UNL     1       3.894   4.643  18.479  0.00  0.00    +0.000 N 
ATOM      4  H   UNL     1       3.649   5.555  18.085  0.00  0.00    +0.000 HD
ENDROOT
BRANCH   1   6
ATOM      5  N   UNL     1       2.645   6.800  19.914  0.00  0.00    +0.000 N 
ATOM      6  C   UNL     1       2.224   5.471  20.024  0.00  0.00    +0.000 C 
ATOM      7  O   UNL     1       1.120   5.073  20.395  0.00  0.00    +0.000 OA
ATOM      8  H   UNL     1       3.631   6.946  19.739  0.00  0.00    +0.000 HD
BRANCH   5  15
ATOM      9  C   UNL     1       2.018   8.755  17.714  0.00  0.00    +0.000 C 
ATOM     10  C   UNL     1       1.510   8.865  19.125  0.00  0.00    +0.000 A 
ATOM     11  C   UNL     1       0.694   9.986  19.422  0.00  0.00    +0.000 A 
ATOM     12  C   UNL     1       0.172  10.190  20.696  0.00  0.00    +0.000 A 
ATOM     13  C   UNL     1       0.436   9.265  21.691  0.00  0.00    +0.000 A 
ATOM     14  C   UNL     1       1.231   8.150  21.411  0.00  0.00    +0.000 A 
ATOM     15  C   UNL     1       1.804   7.934  20.145  0.00  0.00    +0.000 A 
ENDBRANCH   5  15
ENDBRANCH   1   6
BRANCH   3  16
ATOM     16  C   UNL     1       4.987   3.902  17.865  0.00  0.00    +0.000 C 
BRANCH  16  17
ATOM     17  C   UNL     1       5.801   4.749  16.815  0.00  0.00    +0.000 C 
ATOM     18  C   UNL     1       6.732   3.833  15.970  0.00  0.00    +0.000 C 
ATOM     19  C   UNL     1       6.830   4.535  14.619  0.00  0.00    +0.000 C 
ATOM     20  C   UNL     1       5.393   4.947  14.361  0.00  0.00    +0.000 C 
ATOM     21  C   UNL     1       4.808   5.295  15.736  0.00  0.00    +0.000 C 
BRANCH  17  22
ATOM     22  C   UNL     1       6.695   5.834  17.471  0.00  0.00    +0.000 A 
ATOM     23  C   UNL     1       7.477   5.532  18.602  0.00  0.00    +0.000 A 
ATOM     24  C   UNL     1       8.288   6.496  19.212  0.00  0.00    +0.000 A 
ATOM     25  C   UNL     1       8.359   7.783  18.692  0.00  0.00    +0.000 A 
ATOM     26  C   UNL     1       7.635   8.100  17.550  0.00  0.00    +0.000 A 
ATOM     27  C   UNL     1       6.819   7.135  16.945  0.00  0.00    +0.000 A 
ENDBRANCH  17  22
ENDBRANCH  16  17
ENDBRANCH   3  16
TORSDOF 5
ENDMDL
MODEL 4
REMARK VINA RESULT:      -7.9      0.802      3.003
REMARK  Name = 
REMARK  6 active torsions:
REMARK  status: ('A' for Active; 'I' for Inactive)
REMARK    1  A    between atoms: C_1  and  C_2
REMARK    2  A    between atoms: C_7  and  N_8
REMARK    3  A    between atoms: C_9  and  C_11
REMARK    4  A    between atoms: N_13  and  C_14
REMARK    5  A    between atoms: C_14  and  C_15
REMARK    6  A    between atoms: C_15  and  C_16
REMARK                            x       y       z     vdW  Elec       q    Type
REMARK                         _______ _______ _______ _____ _____    ______ ____
ROOT
ATOM      1  C   UNL     1       3.180   4.430  19.610  0.00  0.00    +0.000 C 
ATOM      2  O   UNL     1       2.987   3.239  19.835  0.00  0.00    +0.000 OA
ATOM      3  N   UNL     1       4.245   5.002  18.925  0.00  0.00    +0.000 N 
ATOM      4  H   UNL     1       4.243   6.025  18.934  0.00  0.00    +0.000 HD
ENDROOT
BRANCH   1   6
ATOM      5  N   UNL     1       2.540   6.863  19.867  0.00  0.00    +0.000 N 
ATOM      6  C   UNL     1       2.196   5.529  20.104  0.00  0.00    +0.000 C 
ATOM      7  O   UNL     1       1.198   5.115  20.692  0.00  0.00    +0.000 OA
ATOM      8  H   UNL     1       3.471   7.030  19.502  0.00  0.00    +0.000 HD
BRANCH   5  15
ATOM      9  C   UNL     1       1.824   8.960  17.831  0.00  0.00    +0.000 C 
ATOM     10  C   UNL     1       1.382   8.979  19.268  0.00  0.00    +0.000 A 
ATOM     11  C   UNL     1       0.586  10.080  19.676  0.00  0.00    +0.000 A 
ATOM     12  C   UNL     1       0.125  10.199  20.983  0.00  0.00    +0.000 A 
ATOM     13  C   UNL     1       0.429   9.211  21.901  0.00  0.00    +0.000 A 
ATOM     14  C   UNL     1       1.205   8.115  21.512  0.00  0.00    +0.000 A 
ATOM     15  C   UNL     1       1.718   7.981  20.209  0.00  0.00    +0.000 A 
ENDBRANCH   5  15
ENDBRANCH   1   6
BRANCH   3  16
ATOM     16  C   UNL     1       5.420   4.325  18.396  0.00  0.00    +0.000 C 
BRANCH  16  17
ATOM     17  C   UNL     1       6.106   5.101  17.209  0.00  0.00    +0.000 C 
ATOM     18  C   UNL     1       7.057   4.164  16.412  0.00  0.00    +0.000 C 
ATOM     19  C   UNL     1       7.025   4.711  14.989  0.00  0.00    +0.000 C 
ATOM     20  C   UNL     1       5.548   4.987  14.780  0.00  0.00    +0.000 C 
ATOM     21  C   UNL     1       5.015   5.448  16.142  0.00  0.00    +0.000 C 
BRANCH  17  22
ATOM     22  C   UNL     1       6.948   6.316  17.683  0.00  0.00    +0.000 A 
ATOM     23  C   UNL     1       6.789   7.578  17.078  0.00  0.00    +0.000 A 
ATOM     24  C   UNL     1       7.540   8.686  17.487  0.00  0.00    +0.000 A 
ATOM     25  C   UNL     1       8.452   8.569  18.529  0.00  0.00    +0.000 A 
ATOM     26  C   UNL     1       8.597   7.349  19.176  0.00  0.00    +0.000 A 
ATOM     27  C   UNL     1       7.850   6.240  18.761  0.00  0.00    +0.000 A 
ENDBRANCH  17  22
ENDBRANCH  16  17
ENDBRANCH   3  16
TORSDOF 5
ENDMDL
MODEL 5
REMARK VINA RESULT:      -7.9      2.177      7.643
REMARK  Name = 
REMARK  6 active torsions:
REMARK  status: ('A' for Active; 'I' for Inactive)
REMARK    1  A    between atoms: C_1  and  C_2
REMARK    2  A    between atoms: C_7  and  N_8
REMARK    3  A    between atoms: C_9  and  C_11
REMARK    4  A    between atoms: N_13  and  C_14
REMARK    5  A    between atoms: C_14  and  C_15
REMARK    6  A    between atoms: C_15  and  C_16
REMARK                            x       y       z     vdW  Elec       q    Type
REMARK                         _______ _______ _______ _____ _____    ______ ____
ROOT
ATOM      1  C   UNL     1       6.723   5.176  18.426  0.00  0.00    +0.000 C 
ATOM      2  O   UNL     1       7.515   5.318  19.353  0.00  0.00    +0.000 OA
ATOM      3  N   UNL     1       5.341   5.319  18.460  0.00  0.00    +0.000 N 
ATOM      4  H   UNL     1       4.877   5.066  17.584  0.00  0.00    +0.000 HD
ENDROOT
BRANCH   1   6
ATOM      5  N   UNL     1       6.401   5.180  15.918  0.00  0.00    +0.000 N 
ATOM      6  C   UNL     1       7.195   4.782  16.997  0.00  0.00    +0.000 C 
ATOM      7  O   UNL     1       8.232   4.121  16.950  0.00  0.00    +0.000 OA
ATOM      8  H   UNL     1       5.504   5.589  16.147  0.00  0.00    +0.000 HD
BRANCH   5  15
ATOM      9  C   UNL     1       4.874   3.178  14.271  0.00  0.00    +0.000 C 
ATOM     10  C   UNL     1       6.027   3.998  13.764  0.00  0.00    +0.000 A 
ATOM     11  C   UNL     1       6.416   3.787  12.416  0.00  0.00    +0.000 A 
ATOM     12  C   UNL     1       7.473   4.489  11.845  0.00  0.00    +0.000 A 
ATOM     13  C   UNL     1       8.145   5.434  12.600  0.00  0.00    +0.000 A 
ATOM     14  C   UNL     1       7.767   5.661  13.926  0.00  0.00    +0.000 A 
ATOM     15  C   UNL     1       6.728   4.943  14.546  0.00  0.00    +0.000 A 
ENDBRANCH   5  15
ENDBRANCH   1   6
BRANCH   3  16
ATOM     16  C   UNL     1       4.510   5.582  19.626  0.00  0.00    +0.000 C 
BRANCH  16  17
ATOM     17  C   UNL     1       2.967   5.574  19.306  0.00  0.00    +0.000 C 
ATOM     18  C   UNL     1       2.686   4.843  17.962  0.00  0.00    +0.000 C 
ATOM     19  C   UNL     1       1.296   4.242  18.141  0.00  0.00    +0.000 C 
ATOM     20  C   UNL     1       1.364   3.677  19.547  0.00  0.00    +0.000 C 
ATOM     21  C   UNL     1       2.247   4.648  20.341  0.00  0.00    +0.000 C 
BRANCH  17  22
ATOM     22  C   UNL     1       2.363   6.998  19.192  0.00  0.00    +0.000 A 
ATOM     23  C   UNL     1       2.399   7.697  17.970  0.00  0.00    +0.000 A 
ATOM     24  C   UNL     1       1.864   8.983  17.844  0.00  0.00    +0.000 A 
ATOM     25  C   UNL     1       1.253   9.597  18.932  0.00  0.00    +0.000 A 
ATOM     26  C   UNL     1       1.159   8.916  20.138  0.00  0.00    +0.000 A 
ATOM     27  C   UNL     1       1.703   7.631  20.262  0.00  0.00    +0.000 A 
ENDBRANCH  17  22
ENDBRANCH  16  17
ENDBRANCH   3  16
TORSDOF 5
ENDMDL
MODEL 6
REMARK VINA RESULT:      -7.9      2.253      7.835
REMARK  Name = 
REMARK  6 active torsions:
REMARK  status: ('A' for Active; 'I' for Inactive)
REMARK    1  A    between atoms: C_1  and  C_2
REMARK    2  A    between atoms: C_7  and  N_8
REMARK    3  A    between atoms: C_9  and  C_11
REMARK    4  A    between atoms: N_13  and  C_14
REMARK    5  A    between atoms: C_14  and  C_15
REMARK    6  A    between atoms: C_15  and  C_16
REMARK                            x       y       z     vdW  Elec       q    Type
REMARK                         _______ _______ _______ _____ _____    ______ ____
ROOT
ATOM      1  C   UNL     1       6.516   5.673  17.597  0.00  0.00    +0.000 C 
ATOM      2  O   UNL     1       7.246   6.558  18.034  0.00  0.00    +0.000 OA
ATOM      3  N   UNL     1       5.318   5.219  18.134  0.00  0.00    +0.000 N 
ATOM      4  H   UNL     1       4.925   4.410  17.647  0.00  0.00    +0.000 HD
ENDROOT
BRANCH   1   6
ATOM      5  N   UNL     1       6.079   5.113  15.170  0.00  0.00    +0.000 N 
ATOM      6  C   UNL     1       6.867   4.885  16.303  0.00  0.00    +0.000 C 
ATOM      7  O   UNL     1       7.807   4.099  16.404  0.00  0.00    +0.000 OA
ATOM      8  H   UNL     1       5.253   5.682  15.305  0.00  0.00    +0.000 HD
BRANCH   5  15
ATOM      9  C   UNL     1       8.417   5.918  13.455  0.00  0.00    +0.000 C 
ATOM     10  C   UNL     1       7.395   4.885  13.074  0.00  0.00    +0.000 A 
ATOM     11  C   UNL     1       7.551   4.269  11.805  0.00  0.00    +0.000 A 
ATOM     12  C   UNL     1       6.661   3.302  11.350  0.00  0.00    +0.000 A 
ATOM     13  C   UNL     1       5.611   2.913  12.162  0.00  0.00    +0.000 A 
ATOM     14  C   UNL     1       5.448   3.503  13.418  0.00  0.00    +0.000 A 
ATOM     15  C   UNL     1       6.308   4.509  13.894  0.00  0.00    +0.000 A 
ENDBRANCH   5  15
ENDBRANCH   1   6
BRANCH   3  16
ATOM     16  C   UNL     1       4.701   5.629  19.388  0.00  0.00    +0.000 C 
BRANCH  16  17
ATOM     17  C   UNL     1       3.127   5.568  19.357  0.00  0.00    +0.000 C 
ATOM     18  C   UNL     1       2.631   4.712  18.158  0.00  0.00    +0.000 C 
ATOM     19  C   UNL     1       1.316   4.109  18.640  0.00  0.00    +0.000 C 
ATOM     20  C   UNL     1       1.654   3.679  20.055  0.00  0.00    +0.000 C 
ATOM     21  C   UNL     1       2.635   4.732  20.585  0.00  0.00    +0.000 C 
BRANCH  17  22
ATOM     22  C   UNL     1       2.467   6.966  19.229  0.00  0.00    +0.000 A 
ATOM     23  C   UNL     1       2.469   7.650  17.998  0.00  0.00    +0.000 A 
ATOM     24  C   UNL     1       1.883   8.913  17.861  0.00  0.00    +0.000 A 
ATOM     25  C   UNL     1       1.256   9.518  18.945  0.00  0.00    +0.000 A 
ATOM     26  C   UNL     1       1.198   8.849  20.160  0.00  0.00    +0.000 A 
ATOM     27  C   UNL     1       1.791   7.587  20.297  0.00  0.00    +0.000 A 
ENDBRANCH  17  22
ENDBRANCH  16  17
ENDBRANCH   3  16
TORSDOF 5
ENDMDL
MODEL 7
REMARK VINA RESULT:      -7.8      2.048      3.757
REMARK  Name = 
REMARK  6 active torsions:
REMARK  status: ('A' for Active; 'I' for Inactive)
REMARK    1  A    between atoms: C_1  and  C_2
REMARK    2  A    between atoms: C_7  and  N_8
REMARK    3  A    between atoms: C_9  and  C_11
REMARK    4  A    between atoms: N_13  and  C_14
REMARK    5  A    between atoms: C_14  and  C_15
REMARK    6  A    between atoms: C_15  and  C_16
REMARK                            x       y       z     vdW  Elec       q    Type
REMARK                         _______ _______ _______ _____ _____    ______ ____
ROOT
ATOM      1  C   UNL     1       2.511   8.255  18.075  0.00  0.00    +0.000 C 
ATOM      2  O   UNL     1       2.286   8.979  17.110  0.00  0.00    +0.000 OA
ATOM      3  N   UNL     1       3.375   7.168  18.139  0.00  0.00    +0.000 N 
ATOM      4  H   UNL     1       3.336   6.659  19.026  0.00  0.00    +0.000 HD
ENDROOT
BRANCH   1   6
ATOM      5  N   UNL     1       1.098   9.662  19.631  0.00  0.00    +0.000 N 
ATOM      6  C   UNL     1       1.804   8.470  19.444  0.00  0.00    +0.000 C 
ATOM      7  O   UNL     1       1.956   7.564  20.262  0.00  0.00    +0.000 OA
ATOM      8  H   UNL     1       1.201  10.364  18.907  0.00  0.00    +0.000 HD
BRANCH   5  15
ATOM      9  C   UNL     1      -0.573  12.160  19.794  0.00  0.00    +0.000 C 
ATOM     10  C   UNL     1      -0.427  11.156  20.903  0.00  0.00    +0.000 A 
ATOM     11  C   UNL     1      -1.121  11.433  22.109  0.00  0.00    +0.000 A 
ATOM     12  C   UNL     1      -1.054  10.574  23.201  0.00  0.00    +0.000 A 
ATOM     13  C   UNL     1      -0.313   9.410  23.103  0.00  0.00    +0.000 A 
ATOM     14  C   UNL     1       0.369   9.118  21.918  0.00  0.00    +0.000 A 
ATOM     15  C   UNL     1       0.353   9.982  20.808  0.00  0.00    +0.000 A 
ENDBRANCH   5  15
ENDBRANCH   1   6
BRANCH   3  16
ATOM     16  C   UNL     1       4.141   6.585  17.047  0.00  0.00    +0.000 C 
BRANCH  16  17
ATOM     17  C   UNL     1       5.092   5.416  17.508  0.00  0.00    +0.000 C 
ATOM     18  C   UNL     1       6.021   4.969  16.344  0.00  0.00    +0.000 C 
ATOM     19  C   UNL     1       7.290   4.484  17.036  0.00  0.00    +0.000 C 
ATOM     20  C   UNL     1       7.514   5.552  18.090  0.00  0.00    +0.000 C 
ATOM     21  C   UNL     1       6.115   5.984  18.547  0.00  0.00    +0.000 C 
BRANCH  17  22
ATOM     22  C   UNL     1       4.320   4.159  17.990  0.00  0.00    +0.000 A 
ATOM     23  C   UNL     1       3.346   3.557  17.170  0.00  0.00    +0.000 A 
ATOM     24  C   UNL     1       2.636   2.426  17.586  0.00  0.00    +0.000 A 
ATOM     25  C   UNL     1       2.897   1.849  18.824  0.00  0.00    +0.000 A 
ATOM     26  C   UNL     1       3.884   2.392  19.635  0.00  0.00    +0.000 A 
ATOM     27  C   UNL     1       4.589   3.529  19.220  0.00  0.00    +0.000 A 
ENDBRANCH  17  22
ENDBRANCH  16  17
ENDBRANCH   3  16
TORSDOF 5
ENDMDL
MODEL 8
REMARK VINA RESULT:      -7.8      3.140      4.816
REMARK  Name = 
REMARK  6 active torsions:
REMARK  status: ('A' for Active; 'I' for Inactive)
REMARK    1  A    between atoms: C_1  and  C_2
REMARK    2  A    between atoms: C_7  and  N_8
REMARK    3  A    between atoms: C_9  and  C_11
REMARK    4  A    between atoms: N_13  and  C_14
REMARK    5  A    between atoms: C_14  and  C_15
REMARK    6  A    between atoms: C_15  and  C_16
REMARK                            x       y       z     vdW  Elec       q    Type
REMARK                         _______ _______ _______ _____ _____    ______ ____
ROOT
ATOM      1  C   UNL     1       1.780   9.616  18.015  0.00  0.00    +0.000 C 
ATOM      2  O   UNL     1       2.560  10.478  17.625  0.00  0.00    +0.000 OA
ATOM      3  N   UNL     1       1.957   8.237  17.996  0.00  0.00    +0.000 N 
ATOM      4  H   UNL     1       1.133   7.709  18.295  0.00  0.00    +0.000 HD
ENDROOT
BRANCH   1   6
ATOM      5  N   UNL     1      -0.444  10.811  17.866  0.00  0.00    +0.000 N 
ATOM      6  C   UNL     1       0.391   9.977  18.616  0.00  0.00    +0.000 C 
ATOM      7  O   UNL     1       0.161   9.508  19.730  0.00  0.00    +0.000 OA
ATOM      8  H   UNL     1      -0.037  11.228  17.038  0.00  0.00    +0.000 HD
BRANCH   5  15
ATOM      9  C   UNL     1      -2.858   9.824  16.365  0.00  0.00    +0.000 C 
ATOM     10  C   UNL     1      -2.909  10.742  17.554  0.00  0.00    +0.000 A 
ATOM     11  C   UNL     1      -4.194  11.174  17.972  0.00  0.00    +0.000 A 
ATOM     12  C   UNL     1      -4.357  12.027  19.058  0.00  0.00    +0.000 A 
ATOM     13  C   UNL     1      -3.243  12.445  19.764  0.00  0.00    +0.000 A 
ATOM     14  C   UNL     1      -1.971  12.020  19.371  0.00  0.00    +0.000 A 
ATOM     15  C   UNL     1      -1.767  11.188  18.256  0.00  0.00    +0.000 A 
ENDBRANCH   5  15
ENDBRANCH   1   6
BRANCH   3  16
ATOM     16  C   UNL     1       3.074   7.500  17.424  0.00  0.00    +0.000 C 
BRANCH  16  17
ATOM     17  C   UNL     1       3.352   6.129  18.149  0.00  0.00    +0.000 C 
ATOM     18  C   UNL     1       3.209   6.279  19.690  0.00  0.00    +0.000 C 
ATOM     19  C   UNL     1       2.738   4.908  20.163  0.00  0.00    +0.000 C 
ATOM     20  C   UNL     1       1.688   4.550  19.129  0.00  0.00    +0.000 C 
ATOM     21  C   UNL     1       2.192   5.137  17.805  0.00  0.00    +0.000 C 
BRANCH  17  22
ATOM     22  C   UNL     1       4.774   5.572  17.871  0.00  0.00    +0.000 A 
ATOM     23  C   UNL     1       5.056   4.891  16.671  0.00  0.00    +0.000 A 
ATOM     24  C   UNL     1       6.329   4.378  16.401  0.00  0.00    +0.000 A 
ATOM     25  C   UNL     1       7.364   4.553  17.313  0.00  0.00    +0.000 A 
ATOM     26  C   UNL     1       7.129   5.259  18.485  0.00  0.00    +0.000 A 
ATOM     27  C   UNL     1       5.852   5.766  18.756  0.00  0.00    +0.000 A 
ENDBRANCH  17  22
ENDBRANCH  16  17
ENDBRANCH   3  16
TORSDOF 5
ENDMDL
MODEL 9
REMARK VINA RESULT:      -7.7      2.442      4.322
REMARK  Name = 
REMARK  6 active torsions:
REMARK  status: ('A' for Active; 'I' for Inactive)
REMARK    1  A    between atoms: C_1  and  C_2
REMARK    2  A    between atoms: C_7  and  N_8
REMARK    3  A    between atoms: C_9  and  C_11
REMARK    4  A    between atoms: N_13  and  C_14
REMARK    5  A    between atoms: C_14  and  C_15
REMARK    6  A    between atoms: C_15  and  C_16
REMARK                            x       y       z     vdW  Elec       q    Type
REMARK                         _______ _______ _______ _____ _____    ______ ____
ROOT
ATOM      1  C   UNL     1       1.598   7.837  20.418  0.00  0.00    +0.000 C 
ATOM      2  O   UNL     1       1.108   7.635  21.524  0.00  0.00    +0.000 OA
ATOM      3  N   UNL     1       2.405   6.982  19.677  0.00  0.00    +0.000 N 
ATOM      4  H   UNL     1       2.770   7.398  18.816  0.00  0.00    +0.000 HD
ENDROOT
BRANCH   1   6
ATOM      5  N   UNL     1       0.668  10.187  20.308  0.00  0.00    +0.000 N 
ATOM      6  C   UNL     1       1.371   9.172  19.651  0.00  0.00    +0.000 C 
ATOM      7  O   UNL     1       1.818   9.203  18.505  0.00  0.00    +0.000 OA
ATOM      8  H   UNL     1       0.242   9.939  21.192  0.00  0.00    +0.000 HD
BRANCH   5  15
ATOM      9  C   UNL     1      -1.522  10.653  18.298  0.00  0.00    +0.000 C 
ATOM     10  C   UNL     1      -0.590  11.717  18.807  0.00  0.00    +0.000 A 
ATOM     11  C   UNL     1      -0.762  13.022  18.279  0.00  0.00    +0.000 A 
ATOM     12  C   UNL     1       0.048  14.081  18.677  0.00  0.00    +0.000 A 
ATOM     13  C   UNL     1       1.027  13.863  19.629  0.00  0.00    +0.000 A 
ATOM     14  C   UNL     1       1.203  12.585  20.167  0.00  0.00    +0.000 A 
ATOM     15  C   UNL     1       0.427  11.485  19.759  0.00  0.00    +0.000 A 
ENDBRANCH   5  15
ENDBRANCH   1   6
BRANCH   3  16
ATOM     16  C   UNL     1       2.927   5.686  20.087  0.00  0.00    +0.000 C 
BRANCH  16  17
ATOM     17  C   UNL     1       3.635   4.901  18.918  0.00  0.00    +0.000 C 
ATOM     18  C   UNL     1       3.871   3.416  19.314  0.00  0.00    +0.000 C 
ATOM     19  C   UNL     1       3.804   2.656  17.994  0.00  0.00    +0.000 C 
ATOM     20  C   UNL     1       2.607   3.292  17.313  0.00  0.00    +0.000 C 
ATOM     21  C   UNL     1       2.631   4.769  17.725  0.00  0.00    +0.000 C 
BRANCH  17  22
ATOM     22  C   UNL     1       5.013   5.500  18.531  0.00  0.00    +0.000 A 
ATOM     23  C   UNL     1       5.134   6.369  17.430  0.00  0.00    +0.000 A 
ATOM     24  C   UNL     1       6.367   6.918  17.061  0.00  0.00    +0.000 A 
ATOM     25  C   UNL     1       7.510   6.632  17.798  0.00  0.00    +0.000 A 
ATOM     26  C   UNL     1       7.416   5.815  18.917  0.00  0.00    +0.000 A 
ATOM     27  C   UNL     1       6.181   5.262  19.280  0.00  0.00    +0.000 A 
ENDBRANCH  17  22
ENDBRANCH  16  17
ENDBRANCH   3  16
TORSDOF 5
ENDMDL
