MODEL 1
REMARK VINA RESULT:      -7.1      0.000      0.000
REMARK  Name = 
REMARK  7 active torsions:
REMARK  status: ('A' for Active; 'I' for Inactive)
REMARK    1  A    between atoms: C_1  and  N_2
REMARK    2  A    between atoms: N_2  and  C_17
REMARK    3  A    between atoms: C_5  and  N_6
REMARK    4  A    between atoms: C_7  and  C_9
REMARK    5  A    between atoms: N_20  and  C_21
REMARK    6  A    between atoms: C_21  and  C_22
REMARK    7  A    between atoms: C_26  and  C_27
REMARK                            x       y       z     vdW  Elec       q    Type
REMARK                         _______ _______ _______ _____ _____    ______ ____
ROOT
ATOM      1  C   UNL     1       1.572  12.042  18.895  0.00  0.00    +0.000 C 
ATOM      2  N   UNL     1       0.291  11.842  19.561  0.00  0.00    +0.000 N 
ATOM      3  C   UNL     1      -0.335  12.985  20.061  0.00  0.00    +0.000 A 
ATOM      4  C   UNL     1      -1.579  12.928  20.685  0.00  0.00    +0.000 A 
ATOM      5  C   UNL     1      -2.193  14.065  21.201  0.00  0.00    +0.000 A 
ATOM      6  C   UNL     1      -1.529  15.277  21.105  0.00  0.00    +0.000 A 
ATOM      7  C   UNL     1      -0.304  15.284  20.470  0.00  0.00    +0.000 A 
ATOM      8  N   UNL     1       0.284  14.181  19.956  0.00  0.00    +0.000 NA
ENDROOT
BRANCH   2   9
ATOM      9  C   UNL     1      -0.406  10.529  19.530  0.00  0.00    +0.000 C 
ATOM     10  C   UNL     1       0.133   9.469  20.486  0.00  0.00    +0.000 C 
ATOM     11  C   UNL     1       1.417   8.793  20.019  0.00  0.00    +0.000 C 
ATOM     12  N   UNL     1       1.482   8.425  18.597  0.00  0.00    +0.000 NA
ATOM     13  C   UNL     1       0.880   9.406  17.677  0.00  0.00    +0.000 C 
ATOM     14  C   UNL     1      -0.473   9.930  18.125  0.00  0.00    +0.000 C 
BRANCH  12  15
ATOM     15  C   UNL     1       2.891   8.229  18.184  0.00  0.00    +0.000 C 
BRANCH  15  16
ATOM     16  C   UNL     1       3.259   6.796  17.871  0.00  0.00    +0.000 A 
ATOM     17  C   UNL     1       4.484   6.496  17.255  0.00  0.00    +0.000 A 
ATOM     18  C   UNL     1       4.792   5.185  16.895  0.00  0.00    +0.000 A 
ATOM     19  C   UNL     1       3.881   4.160  17.153  0.00  0.00    +0.000 A 
ATOM     20  C   UNL     1       2.672   4.445  17.796  0.00  0.00    +0.000 A 
ATOM     21  C   UNL     1       2.362   5.757  18.150  0.00  0.00    +0.000 A 
BRANCH  20  22
ATOM     22  C   UNL     1       1.744   3.386  18.076  0.00  0.00    +0.000 C 
ATOM     23  N   UNL     1       0.990   2.534  18.310  0.00  0.00    +0.000 NA
ENDBRANCH  20  22
ENDBRANCH  15  16
ENDBRANCH  12  15
ENDBRANCH   2   9
BRANCH   5  24
ATOM     24  N   UNL     1      -3.458  14.040  21.820  0.00  0.00    +0.000 N 
ATOM     25  C   UNL     1      -3.738  13.916  23.174  0.00  0.00    +0.000 C 
ATOM     26  O   UNL     1      -2.895  13.775  24.055  0.00  0.00    +0.000 OA
ATOM     27  H   UNL     1      -4.267  14.108  21.214  0.00  0.00    +0.000 HD
BRANCH  25  28
ATOM     28  C   UNL     1      -5.157  13.949  23.514  0.00  0.00    +0.000 A 
ATOM     29  C   UNL     1      -5.947  12.861  23.834  0.00  0.00    +0.000 A 
ATOM     30  C   UNL     1      -7.287  13.227  24.139  0.00  0.00    +0.000 A 
ATOM     31  C   UNL     1      -7.481  14.585  24.039  0.00  0.00    +0.000 A 
ATOM     32  S   UNL     1      -6.060  15.408  23.570  0.00  0.00    +0.000 S 
ENDBRANCH  25  28
ENDBRANCH   5  24
TORSDOF 6
ENDMDL
MODEL 2
REMARK VINA RESULT:      -6.9      2.512      4.735
REMARK  Name = 
REMARK  7 active torsions:
REMARK  status: ('A' for Active; 'I' for Inactive)
REMARK    1  A    between atoms: C_1  and  N_2
REMARK    2  A    between atoms: N_2  and  C_17
REMARK    3  A    between atoms: C_5  and  N_6
REMARK    4  A    between atoms: C_7  and  C_9
REMARK    5  A    between atoms: N_20  and  C_21
REMARK    6  A    between atoms: C_21  and  C_22
REMARK    7  A    between atoms: C_26  and  C_27
REMARK                            x       y       z     vdW  Elec       q    Type
REMARK                         _______ _______ _______ _____ _____    ______ ____
ROOT
ATOM      1  C   UNL     1       3.640   7.290  17.260  0.00  0.00    +0.000 C 
ATOM      2  N   UNL     1       2.529   7.559  18.165  0.00  0.00    +0.000 N 
ATOM      3  C   UNL     1       2.153   8.896  18.307  0.00  0.00    +0.000 A 
ATOM      4  C   UNL     1       1.084   9.277  19.115  0.00  0.00    +0.000 A 
ATOM      5  C   UNL     1       0.724  10.611  19.272  0.00  0.00    +0.000 A 
ATOM      6  C   UNL     1       1.469  11.580  18.620  0.00  0.00    +0.000 A 
ATOM      7  C   UNL     1       2.513  11.152  17.824  0.00  0.00    +0.000 A 
ATOM      8  N   UNL     1       2.853   9.855  17.661  0.00  0.00    +0.000 NA
ENDROOT
BRANCH   2   9
ATOM      9  C   UNL     1       1.713   6.460  18.744  0.00  0.00    +0.000 C 
ATOM     10  C   UNL     1       2.101   6.014  20.150  0.00  0.00    +0.000 C 
ATOM     11  C   UNL     1       3.336   5.121  20.209  0.00  0.00    +0.000 C 
ATOM     12  N   UNL     1       3.432   4.070  19.184  0.00  0.00    +0.000 NA
ATOM     13  C   UNL     1       2.971   4.472  17.844  0.00  0.00    +0.000 C 
ATOM     14  C   UNL     1       1.654   5.229  17.840  0.00  0.00    +0.000 C 
BRANCH  12  15
ATOM     15  C   UNL     1       4.833   3.609  19.057  0.00  0.00    +0.000 C 
BRANCH  15  16
ATOM     16  C   UNL     1       5.616   4.279  17.951  0.00  0.00    +0.000 A 
ATOM     17  C   UNL     1       6.421   5.395  18.227  0.00  0.00    +0.000 A 
ATOM     18  C   UNL     1       7.083   6.062  17.196  0.00  0.00    +0.000 A 
ATOM     19  C   UNL     1       6.951   5.615  15.881  0.00  0.00    +0.000 A 
ATOM     20  C   UNL     1       6.178   4.485  15.601  0.00  0.00    +0.000 A 
ATOM     21  C   UNL     1       5.511   3.822  16.631  0.00  0.00    +0.000 A 
BRANCH  20  22
ATOM     22  C   UNL     1       6.057   4.018  14.250  0.00  0.00    +0.000 C 
ATOM     23  N   UNL     1       5.966   3.632  13.158  0.00  0.00    +0.000 NA
ENDBRANCH  20  22
ENDBRANCH  15  16
ENDBRANCH  12  15
ENDBRANCH   2   9
BRANCH   5  24
ATOM     24  N   UNL     1      -0.364  11.024  20.066  0.00  0.00    +0.000 N 
ATOM     25  C   UNL     1      -0.321  11.631  21.313  0.00  0.00    +0.000 C 
ATOM     26  O   UNL     1       0.706  11.878  21.939  0.00  0.00    +0.000 OA
ATOM     27  H   UNL     1      -1.292  10.851  19.699  0.00  0.00    +0.000 HD
BRANCH  25  28
ATOM     28  C   UNL     1      -1.624  11.967  21.879  0.00  0.00    +0.000 A 
ATOM     29  C   UNL     1      -2.007  11.813  23.198  0.00  0.00    +0.000 A 
ATOM     30  C   UNL     1      -3.338  12.254  23.437  0.00  0.00    +0.000 A 
ATOM     31  C   UNL     1      -3.933  12.728  22.291  0.00  0.00    +0.000 A 
ATOM     32  S   UNL     1      -2.896  12.630  20.938  0.00  0.00    +0.000 S 
ENDBRANCH  25  28
ENDBRANCH   5  24
TORSDOF 6
ENDMDL
MODEL 3
REMARK VINA RESULT:      -6.9      2.245      3.134
REMARK  Name = 
REMARK  7 active torsions:
REMARK  status: ('A' for Active; 'I' for Inactive)
REMARK    1  A    between atoms: C_1  and  N_2
REMARK    2  A    between atoms: N_2  and  C_17
REMARK    3  A    between atoms: C_5  and  N_6
REMARK    4  A    between atoms: C_7  and  C_9
REMARK    5  A    between atoms: N_20  and  C_21
REMARK    6  A    between atoms: C_21  and  C_22
REMARK    7  A    between atoms: C_26  and  C_27
REMARK                            x       y       z     vdW  Elec       q    Type
REMARK                         _______ _______ _______ _____ _____    ______ ____
ROOT
ATOM      1  C   UNL     1      -1.190   9.899  17.509  0.00  0.00    +0.000 C 
ATOM      2  N   UNL     1      -1.132  10.845  18.617  0.00  0.00    +0.000 N 
ATOM      3  C   UNL     1      -2.335  11.452  18.980  0.00  0.00    +0.000 A 
ATOM      4  C   UNL     1      -2.415  12.346  20.045  0.00  0.00    +0.000 A 
ATOM      5  C   UNL     1      -3.611  12.967  20.393  0.00  0.00    +0.000 A 
ATOM      6  C   UNL     1      -4.741  12.696  19.639  0.00  0.00    +0.000 A 
ATOM      7  C   UNL     1      -4.613  11.797  18.600  0.00  0.00    +0.000 A 
ATOM      8  N   UNL     1      -3.455  11.184  18.272  0.00  0.00    +0.000 NA
ENDROOT
BRANCH   2   9
ATOM      9  C   UNL     1       0.094  11.001  19.443  0.00  0.00    +0.000 C 
ATOM     10  C   UNL     1       1.340  11.476  18.701  0.00  0.00    +0.000 C 
ATOM     11  C   UNL     1       2.035  10.394  17.882  0.00  0.00    +0.000 C 
ATOM     12  N   UNL     1       2.167   9.075  18.519  0.00  0.00    +0.000 NA
ATOM     13  C   UNL     1       1.000   8.654  19.313  0.00  0.00    +0.000 C 
ATOM     14  C   UNL     1       0.444   9.735  20.224  0.00  0.00    +0.000 C 
BRANCH  12  15
ATOM     15  C   UNL     1       2.411   8.035  17.494  0.00  0.00    +0.000 C 
BRANCH  15  16
ATOM     16  C   UNL     1       2.959   6.735  18.037  0.00  0.00    +0.000 A 
ATOM     17  C   UNL     1       2.121   5.619  18.187  0.00  0.00    +0.000 A 
ATOM     18  C   UNL     1       2.605   4.443  18.759  0.00  0.00    +0.000 A 
ATOM     19  C   UNL     1       3.933   4.370  19.181  0.00  0.00    +0.000 A 
ATOM     20  C   UNL     1       4.783   5.465  19.006  0.00  0.00    +0.000 A 
ATOM     21  C   UNL     1       4.298   6.643  18.439  0.00  0.00    +0.000 A 
BRANCH  20  22
ATOM     22  C   UNL     1       6.153   5.382  19.425  0.00  0.00    +0.000 C 
ATOM     23  N   UNL     1       7.261   5.304  19.767  0.00  0.00    +0.000 NA
ENDBRANCH  20  22
ENDBRANCH  15  16
ENDBRANCH  12  15
ENDBRANCH   2   9
BRANCH   5  24
ATOM     24  N   UNL     1      -3.725  13.859  21.476  0.00  0.00    +0.000 N 
ATOM     25  C   UNL     1      -3.976  13.552  22.806  0.00  0.00    +0.000 C 
ATOM     26  O   UNL     1      -4.172  12.421  23.240  0.00  0.00    +0.000 OA
ATOM     27  H   UNL     1      -3.626  14.846  21.270  0.00  0.00    +0.000 HD
BRANCH  25  28
ATOM     28  C   UNL     1      -4.013  14.701  23.706  0.00  0.00    +0.000 A 
ATOM     29  C   UNL     1      -3.009  15.095  24.570  0.00  0.00    +0.000 A 
ATOM     30  C   UNL     1      -3.343  16.271  25.298  0.00  0.00    +0.000 A 
ATOM     31  C   UNL     1      -4.595  16.736  24.971  0.00  0.00    +0.000 A 
ATOM     32  S   UNL     1      -5.363  15.756  23.803  0.00  0.00    +0.000 S 
ENDBRANCH  25  28
ENDBRANCH   5  24
TORSDOF 6
ENDMDL
MODEL 4
REMARK VINA RESULT:      -6.9      2.187      2.824
REMARK  Name = 
REMARK  7 active torsions:
REMARK  status: ('A' for Active; 'I' for Inactive)
REMARK    1  A    between atoms: C_1  and  N_2
REMARK    2  A    between atoms: N_2  and  C_17
REMARK    3  A    between atoms: C_5  and  N_6
REMARK    4  A    between atoms: C_7  and  C_9
REMARK    5  A    between atoms: N_20  and  C_21
REMARK    6  A    between atoms: C_21  and  C_22
REMARK    7  A    between atoms: C_26  and  C_27
REMARK                            x       y       z     vdW  Elec       q    Type
REMARK                         _______ _______ _______ _____ _____    ______ ____
ROOT
ATOM      1  C   UNL     1      -1.207   9.963  17.463  0.00  0.00    +0.000 C 
ATOM      2  N   UNL     1      -1.157  10.924  18.558  0.00  0.00    +0.000 N 
ATOM      3  C   UNL     1      -2.369  11.511  18.925  0.00  0.00    +0.000 A 
ATOM      4  C   UNL     1      -2.456  12.417  19.980  0.00  0.00    +0.000 A 
ATOM      5  C   UNL     1      -3.661  13.018  20.332  0.00  0.00    +0.000 A 
ATOM      6  C   UNL     1      -4.793  12.715  19.593  0.00  0.00    +0.000 A 
ATOM      7  C   UNL     1      -4.657  11.805  18.564  0.00  0.00    +0.000 A 
ATOM      8  N   UNL     1      -3.489  11.212  18.232  0.00  0.00    +0.000 NA
ENDROOT
BRANCH   2   9
ATOM      9  C   UNL     1       0.073  11.116  19.370  0.00  0.00    +0.000 C 
ATOM     10  C   UNL     1       1.354  11.378  18.583  0.00  0.00    +0.000 C 
ATOM     11  C   UNL     1       1.971  10.135  17.951  0.00  0.00    +0.000 C 
ATOM     12  N   UNL     1       2.001   8.924  18.785  0.00  0.00    +0.000 NA
ATOM     13  C   UNL     1       0.802   8.717  19.615  0.00  0.00    +0.000 C 
ATOM     14  C   UNL     1       0.325   9.963  20.341  0.00  0.00    +0.000 C 
BRANCH  12  15
ATOM     15  C   UNL     1       2.171   7.723  17.935  0.00  0.00    +0.000 C 
BRANCH  15  16
ATOM     16  C   UNL     1       2.975   6.613  18.572  0.00  0.00    +0.000 A 
ATOM     17  C   UNL     1       4.288   6.354  18.149  0.00  0.00    +0.000 A 
ATOM     18  C   UNL     1       5.005   5.282  18.681  0.00  0.00    +0.000 A 
ATOM     19  C   UNL     1       4.417   4.463  19.646  0.00  0.00    +0.000 A 
ATOM     20  C   UNL     1       3.122   4.733  20.097  0.00  0.00    +0.000 A 
ATOM     21  C   UNL     1       2.404   5.801  19.561  0.00  0.00    +0.000 A 
BRANCH  20  22
ATOM     22  C   UNL     1       2.527   3.899  21.102  0.00  0.00    +0.000 C 
ATOM     23  N   UNL     1       2.035   3.226  21.911  0.00  0.00    +0.000 NA
ENDBRANCH  20  22
ENDBRANCH  15  16
ENDBRANCH  12  15
ENDBRANCH   2   9
BRANCH   5  24
ATOM     24  N   UNL     1      -3.782  13.922  21.405  0.00  0.00    +0.000 N 
ATOM     25  C   UNL     1      -4.065  13.632  22.732  0.00  0.00    +0.000 C 
ATOM     26  O   UNL     1      -4.288  12.508  23.172  0.00  0.00    +0.000 OA
ATOM     27  H   UNL     1      -3.663  14.906  21.191  0.00  0.00    +0.000 HD
BRANCH  25  28
ATOM     28  C   UNL     1      -4.102  14.789  23.621  0.00  0.00    +0.000 A 
ATOM     29  C   UNL     1      -5.155  15.671  23.773  0.00  0.00    +0.000 A 
ATOM     30  C   UNL     1      -4.887  16.683  24.736  0.00  0.00    +0.000 A 
ATOM     31  C   UNL     1      -3.634  16.546  25.287  0.00  0.00    +0.000 A 
ATOM     32  S   UNL     1      -2.787  15.212  24.639  0.00  0.00    +0.000 S 
ENDBRANCH  25  28
ENDBRANCH   5  24
TORSDOF 6
ENDMDL
MODEL 5
REMARK VINA RESULT:      -6.8      2.567      4.928
REMARK  Name = 
REMARK  7 active torsions:
REMARK  status: ('A' for Active; 'I' for Inactive)
REMARK    1  A    between atoms: C_1  and  N_2
REMARK    2  A    between atoms: N_2  and  C_17
REMARK    3  A    between atoms: C_5  and  N_6
REMARK    4  A    between atoms: C_7  and  C_9
REMARK    5  A    between atoms: N_20  and  C_21
REMARK    6  A    between atoms: C_21  and  C_22
REMARK    7  A    between atoms: C_26  and  C_27
REMARK                            x       y       z     vdW  Elec       q    Type
REMARK                         _______ _______ _______ _____ _____    ______ ____
ROOT
ATOM      1  C   UNL     1       3.555   7.313  17.226  0.00  0.00    +0.000 C 
ATOM      2  N   UNL     1       2.475   7.604  18.161  0.00  0.00    +0.000 N 
ATOM      3  C   UNL     1       2.103   8.944  18.283  0.00  0.00    +0.000 A 
ATOM      4  C   UNL     1       1.062   9.345  19.116  0.00  0.00    +0.000 A 
ATOM      5  C   UNL     1       0.705  10.683  19.253  0.00  0.00    +0.000 A 
ATOM      6  C   UNL     1       1.428  11.635  18.553  0.00  0.00    +0.000 A 
ATOM      7  C   UNL     1       2.445  11.188  17.734  0.00  0.00    +0.000 A 
ATOM      8  N   UNL     1       2.780   9.887  17.591  0.00  0.00    +0.000 NA
ENDROOT
BRANCH   2   9
ATOM      9  C   UNL     1       1.680   6.520  18.793  0.00  0.00    +0.000 C 
ATOM     10  C   UNL     1       2.139   6.081  20.180  0.00  0.00    +0.000 C 
ATOM     11  C   UNL     1       3.366   5.175  20.180  0.00  0.00    +0.000 C 
ATOM     12  N   UNL     1       3.394   4.114  19.161  0.00  0.00    +0.000 NA
ATOM     13  C   UNL     1       2.865   4.510  17.844  0.00  0.00    +0.000 C 
ATOM     14  C   UNL     1       1.558   5.282  17.905  0.00  0.00    +0.000 C 
BRANCH  12  15
ATOM     15  C   UNL     1       4.781   3.636  18.962  0.00  0.00    +0.000 C 
BRANCH  15  16
ATOM     16  C   UNL     1       5.576   4.423  17.945  0.00  0.00    +0.000 A 
ATOM     17  C   UNL     1       5.678   3.972  16.620  0.00  0.00    +0.000 A 
ATOM     18  C   UNL     1       6.473   4.655  15.700  0.00  0.00    +0.000 A 
ATOM     19  C   UNL     1       7.168   5.798  16.095  0.00  0.00    +0.000 A 
ATOM     20  C   UNL     1       7.046   6.273  17.403  0.00  0.00    +0.000 A 
ATOM     21  C   UNL     1       6.256   5.587  18.325  0.00  0.00    +0.000 A 
BRANCH  20  22
ATOM     22  C   UNL     1       7.749   7.459  17.802  0.00  0.00    +0.000 C 
ATOM     23  N   UNL     1       8.317   8.423  18.116  0.00  0.00    +0.000 NA
ENDBRANCH  20  22
ENDBRANCH  15  16
ENDBRANCH  12  15
ENDBRANCH   2   9
BRANCH   5  24
ATOM     24  N   UNL     1      -0.355  11.114  20.073  0.00  0.00    +0.000 N 
ATOM     25  C   UNL     1      -0.364  11.233  21.456  0.00  0.00    +0.000 C 
ATOM     26  O   UNL     1       0.574  10.940  22.192  0.00  0.00    +0.000 OA
ATOM     27  H   UNL     1      -1.222  11.359  19.611  0.00  0.00    +0.000 HD
BRANCH  25  28
ATOM     28  C   UNL     1      -1.612  11.736  22.022  0.00  0.00    +0.000 A 
ATOM     29  C   UNL     1      -2.024  11.609  23.335  0.00  0.00    +0.000 A 
ATOM     30  C   UNL     1      -3.282  12.228  23.577  0.00  0.00    +0.000 A 
ATOM     31  C   UNL     1      -3.795  12.805  22.438  0.00  0.00    +0.000 A 
ATOM     32  S   UNL     1      -2.770  12.592  21.089  0.00  0.00    +0.000 S 
ENDBRANCH  25  28
ENDBRANCH   5  24
TORSDOF 6
ENDMDL
MODEL 6
REMARK VINA RESULT:      -6.8      4.450     10.921
REMARK  Name = 
REMARK  7 active torsions:
REMARK  status: ('A' for Active; 'I' for Inactive)
REMARK    1  A    between atoms: C_1  and  N_2
REMARK    2  A    between atoms: N_2  and  C_17
REMARK    3  A    between atoms: C_5  and  N_6
REMARK    4  A    between atoms: C_7  and  C_9
REMARK    5  A    between atoms: N_20  and  C_21
REMARK    6  A    between atoms: C_21  and  C_22
REMARK    7  A    between atoms: C_26  and  C_27
REMARK                            x       y       z     vdW  Elec       q    Type
REMARK                         _______ _______ _______ _____ _____    ______ ____
ROOT
ATOM      1  C   UNL     1       0.035   9.399  21.396  0.00  0.00    +0.000 C 
ATOM      2  N   UNL     1       0.978   9.168  20.310  0.00  0.00    +0.000 N 
ATOM      3  C   UNL     1       1.456   7.864  20.168  0.00  0.00    +0.000 A 
ATOM      4  C   UNL     1       2.334   7.509  19.147  0.00  0.00    +0.000 A 
ATOM      5  C   UNL     1       2.826   6.214  19.019  0.00  0.00    +0.000 A 
ATOM      6  C   UNL     1       2.442   5.266  19.953  0.00  0.00    +0.000 A 
ATOM      7  C   UNL     1       1.564   5.662  20.941  0.00  0.00    +0.000 A 
ATOM      8  N   UNL     1       1.076   6.917  21.055  0.00  0.00    +0.000 NA
ENDROOT
BRANCH   2   9
ATOM      9  C   UNL     1       1.259  10.209  19.287  0.00  0.00    +0.000 C 
ATOM     10  C   UNL     1       1.182  11.654  19.771  0.00  0.00    +0.000 C 
ATOM     11  C   UNL     1      -0.236  12.193  19.925  0.00  0.00    +0.000 C 
ATOM     12  N   UNL     1      -1.183  11.856  18.851  0.00  0.00    +0.000 NA
ATOM     13  C   UNL     1      -1.050  10.489  18.318  0.00  0.00    +0.000 C 
ATOM     14  C   UNL     1       0.382  10.065  18.042  0.00  0.00    +0.000 C 
BRANCH  12  15
ATOM     15  C   UNL     1      -2.575  12.018  19.329  0.00  0.00    +0.000 C 
BRANCH  15  16
ATOM     16  C   UNL     1      -2.717  12.872  20.568  0.00  0.00    +0.000 A 
ATOM     17  C   UNL     1      -2.206  14.179  20.592  0.00  0.00    +0.000 A 
ATOM     18  C   UNL     1      -2.267  14.941  21.759  0.00  0.00    +0.000 A 
ATOM     19  C   UNL     1      -2.847  14.406  22.910  0.00  0.00    +0.000 A 
ATOM     20  C   UNL     1      -3.388  13.117  22.885  0.00  0.00    +0.000 A 
ATOM     21  C   UNL     1      -3.321  12.353  21.721  0.00  0.00    +0.000 A 
BRANCH  20  22
ATOM     22  C   UNL     1      -3.998  12.575  24.066  0.00  0.00    +0.000 C 
ATOM     23  N   UNL     1      -4.489  12.144  25.027  0.00  0.00    +0.000 NA
ENDBRANCH  20  22
ENDBRANCH  15  16
ENDBRANCH  12  15
ENDBRANCH   2   9
BRANCH   5  24
ATOM     24  N   UNL     1       3.700   5.823  17.986  0.00  0.00    +0.000 N 
ATOM     25  C   UNL     1       4.970   5.279  18.110  0.00  0.00    +0.000 C 
ATOM     26  O   UNL     1       5.549   5.081  19.174  0.00  0.00    +0.000 OA
ATOM     27  H   UNL     1       3.377   5.962  17.036  0.00  0.00    +0.000 HD
BRANCH  25  28
ATOM     28  C   UNL     1       5.624   4.950  16.847  0.00  0.00    +0.000 A 
ATOM     29  C   UNL     1       5.146   4.088  15.878  0.00  0.00    +0.000 A 
ATOM     30  C   UNL     1       6.008   3.999  14.751  0.00  0.00    +0.000 A 
ATOM     31  C   UNL     1       7.123   4.791  14.894  0.00  0.00    +0.000 A 
ATOM     32  S   UNL     1       7.131   5.629  16.383  0.00  0.00    +0.000 S 
ENDBRANCH  25  28
ENDBRANCH   5  24
TORSDOF 6
ENDMDL
MODEL 7
REMARK VINA RESULT:      -6.8      2.602      4.941
REMARK  Name = 
REMARK  7 active torsions:
REMARK  status: ('A' for Active; 'I' for Inactive)
REMARK    1  A    between atoms: C_1  and  N_2
REMARK    2  A    between atoms: N_2  and  C_17
REMARK    3  A    between atoms: C_5  and  N_6
REMARK    4  A    between atoms: C_7  and  C_9
REMARK    5  A    between atoms: N_20  and  C_21
REMARK    6  A    between atoms: C_21  and  C_22
REMARK    7  A    between atoms: C_26  and  C_27
REMARK                            x       y       z     vdW  Elec       q    Type
REMARK                         _______ _______ _______ _____ _____    ______ ____
ROOT
ATOM      1  C   UNL     1       3.622   7.069  17.303  0.00  0.00    +0.000 C 
ATOM      2  N   UNL     1       2.513   7.378  18.197  0.00  0.00    +0.000 N 
ATOM      3  C   UNL     1       2.153   8.723  18.298  0.00  0.00    +0.000 A 
ATOM      4  C   UNL     1       1.087   9.141  19.091  0.00  0.00    +0.000 A 
ATOM      5  C   UNL     1       0.742  10.484  19.208  0.00  0.00    +0.000 A 
ATOM      6  C   UNL     1       1.501  11.423  18.530  0.00  0.00    +0.000 A 
ATOM      7  C   UNL     1       2.541  10.960  17.750  0.00  0.00    +0.000 A 
ATOM      8  N   UNL     1       2.866   9.654  17.626  0.00  0.00    +0.000 NA
ENDROOT
BRANCH   2   9
ATOM      9  C   UNL     1       1.681   6.307  18.805  0.00  0.00    +0.000 C 
ATOM     10  C   UNL     1       2.092   5.863  20.206  0.00  0.00    +0.000 C 
ATOM     11  C   UNL     1       3.303   4.937  20.243  0.00  0.00    +0.000 C 
ATOM     12  N   UNL     1       3.346   3.875  19.227  0.00  0.00    +0.000 NA
ATOM     13  C   UNL     1       2.864   4.278  17.894  0.00  0.00    +0.000 C 
ATOM     14  C   UNL     1       1.568   5.070  17.914  0.00  0.00    +0.000 C 
BRANCH  12  15
ATOM     15  C   UNL     1       4.731   3.375  19.070  0.00  0.00    +0.000 C 
BRANCH  15  16
ATOM     16  C   UNL     1       5.674   4.343  18.393  0.00  0.00    +0.000 A 
ATOM     17  C   UNL     1       6.294   5.364  19.130  0.00  0.00    +0.000 A 
ATOM     18  C   UNL     1       7.104   6.304  18.494  0.00  0.00    +0.000 A 
ATOM     19  C   UNL     1       7.307   6.228  17.115  0.00  0.00    +0.000 A 
ATOM     20  C   UNL     1       6.720   5.196  16.378  0.00  0.00    +0.000 A 
ATOM     21  C   UNL     1       5.906   4.259  17.014  0.00  0.00    +0.000 A 
BRANCH  20  22
ATOM     22  C   UNL     1       6.944   5.110  14.963  0.00  0.00    +0.000 C 
ATOM     23  N   UNL     1       7.131   5.033  13.819  0.00  0.00    +0.000 NA
ENDBRANCH  20  22
ENDBRANCH  15  16
ENDBRANCH  12  15
ENDBRANCH   2   9
BRANCH   5  24
ATOM     24  N   UNL     1      -0.342  10.933  19.987  0.00  0.00    +0.000 N 
ATOM     25  C   UNL     1      -0.306  11.796  21.073  0.00  0.00    +0.000 C 
ATOM     26  O   UNL     1       0.714  12.286  21.547  0.00  0.00    +0.000 OA
ATOM     27  H   UNL     1      -1.260  10.581  19.741  0.00  0.00    +0.000 HD
BRANCH  25  28
ATOM     28  C   UNL     1      -1.608  12.096  21.663  0.00  0.00    +0.000 A 
ATOM     29  C   UNL     1      -2.684  12.675  21.017  0.00  0.00    +0.000 A 
ATOM     30  C   UNL     1      -3.819  12.815  21.863  0.00  0.00    +0.000 A 
ATOM     31  C   UNL     1      -3.573  12.343  23.132  0.00  0.00    +0.000 A 
ATOM     32  S   UNL     1      -1.982  11.745  23.300  0.00  0.00    +0.000 S 
ENDBRANCH  25  28
ENDBRANCH   5  24
TORSDOF 6
ENDMDL
MODEL 8
REMARK VINA RESULT:      -6.8      4.881     10.624
REMARK  Name = 
REMARK  7 active torsions:
REMARK  status: ('A' for Active; 'I' for Inactive)
REMARK    1  A    between atoms: C_1  and  N_2
REMARK    2  A    between atoms: N_2  and  C_17
REMARK    3  A    between atoms: C_5  and  N_6
REMARK    4  A    between atoms: C_7  and  C_9
REMARK    5  A    between atoms: N_20  and  C_21
REMARK    6  A    between atoms: C_21  and  C_22
REMARK    7  A    between atoms: C_26  and  C_27
REMARK                            x       y       z     vdW  Elec       q    Type
REMARK                         _______ _______ _______ _____ _____    ______ ____
ROOT
ATOM      1  C   UNL     1       0.191   9.122  21.587  0.00  0.00    +0.000 C 
ATOM      2  N   UNL     1       1.134   8.932  20.492  0.00  0.00    +0.000 N 
ATOM      3  C   UNL     1       1.593   7.630  20.286  0.00  0.00    +0.000 A 
ATOM      4  C   UNL     1       2.468   7.315  19.248  0.00  0.00    +0.000 A 
ATOM      5  C   UNL     1       2.942   6.021  19.056  0.00  0.00    +0.000 A 
ATOM      6  C   UNL     1       2.542   5.032  19.941  0.00  0.00    +0.000 A 
ATOM      7  C   UNL     1       1.668   5.391  20.946  0.00  0.00    +0.000 A 
ATOM      8  N   UNL     1       1.197   6.645  21.122  0.00  0.00    +0.000 NA
ENDROOT
BRANCH   2   9
ATOM      9  C   UNL     1       1.431  10.019  19.523  0.00  0.00    +0.000 C 
ATOM     10  C   UNL     1       1.452  11.433  20.097  0.00  0.00    +0.000 C 
ATOM     11  C   UNL     1       0.072  12.034  20.341  0.00  0.00    +0.000 C 
ATOM     12  N   UNL     1      -0.932  11.815  19.289  0.00  0.00    +0.000 NA
ATOM     13  C   UNL     1      -0.894  10.479  18.669  0.00  0.00    +0.000 C 
ATOM     14  C   UNL     1       0.502   9.999  18.309  0.00  0.00    +0.000 C 
BRANCH  12  15
ATOM     15  C   UNL     1      -2.294  12.018  19.833  0.00  0.00    +0.000 C 
BRANCH  15  16
ATOM     16  C   UNL     1      -3.403  11.878  18.815  0.00  0.00    +0.000 A 
ATOM     17  C   UNL     1      -4.725  12.207  19.155  0.00  0.00    +0.000 A 
ATOM     18  C   UNL     1      -5.760  12.005  18.243  0.00  0.00    +0.000 A 
ATOM     19  C   UNL     1      -5.483  11.480  16.980  0.00  0.00    +0.000 A 
ATOM     20  C   UNL     1      -4.166  11.180  16.622  0.00  0.00    +0.000 A 
ATOM     21  C   UNL     1      -3.131  11.376  17.536  0.00  0.00    +0.000 A 
BRANCH  20  22
ATOM     22  C   UNL     1      -3.882  10.655  15.317  0.00  0.00    +0.000 C 
ATOM     23  N   UNL     1      -3.642  10.229  14.263  0.00  0.00    +0.000 NA
ENDBRANCH  20  22
ENDBRANCH  15  16
ENDBRANCH  12  15
ENDBRANCH   2   9
BRANCH   5  24
ATOM     24  N   UNL     1       3.811   5.670  18.006  0.00  0.00    +0.000 N 
ATOM     25  C   UNL     1       5.175   5.421  18.081  0.00  0.00    +0.000 C 
ATOM     26  O   UNL     1       5.848   5.503  19.103  0.00  0.00    +0.000 OA
ATOM     27  H   UNL     1       3.407   5.600  17.080  0.00  0.00    +0.000 HD
BRANCH  25  28
ATOM     28  C   UNL     1       5.802   5.052  16.815  0.00  0.00    +0.000 A 
ATOM     29  C   UNL     1       6.965   5.586  16.292  0.00  0.00    +0.000 A 
ATOM     30  C   UNL     1       7.328   4.998  15.050  0.00  0.00    +0.000 A 
ATOM     31  C   UNL     1       6.428   4.034  14.658  0.00  0.00    +0.000 A 
ATOM     32  S   UNL     1       5.152   3.849  15.778  0.00  0.00    +0.000 S 
ENDBRANCH  25  28
ENDBRANCH   5  24
TORSDOF 6
ENDMDL
MODEL 9
REMARK VINA RESULT:      -6.7      4.976     11.454
REMARK  Name = 
REMARK  7 active torsions:
REMARK  status: ('A' for Active; 'I' for Inactive)
REMARK    1  A    between atoms: C_1  and  N_2
REMARK    2  A    between atoms: N_2  and  C_17
REMARK    3  A    between atoms: C_5  and  N_6
REMARK    4  A    between atoms: C_7  and  C_9
REMARK    5  A    between atoms: N_20  and  C_21
REMARK    6  A    between atoms: C_21  and  C_22
REMARK    7  A    between atoms: C_26  and  C_27
REMARK                            x       y       z     vdW  Elec       q    Type
REMARK                         _______ _______ _______ _____ _____    ______ ____
ROOT
ATOM      1  C   UNL     1       0.130   9.337  20.684  0.00  0.00    +0.000 C 
ATOM      2  N   UNL     1       1.031   9.085  19.567  0.00  0.00    +0.000 N 
ATOM      3  C   UNL     1       1.767   7.900  19.617  0.00  0.00    +0.000 A 
ATOM      4  C   UNL     1       2.635   7.531  18.592  0.00  0.00    +0.000 A 
ATOM      5  C   UNL     1       3.384   6.360  18.652  0.00  0.00    +0.000 A 
ATOM      6  C   UNL     1       3.272   5.559  19.777  0.00  0.00    +0.000 A 
ATOM      7  C   UNL     1       2.392   5.963  20.761  0.00  0.00    +0.000 A 
ATOM      8  N   UNL     1       1.655   7.093  20.695  0.00  0.00    +0.000 NA
ENDROOT
BRANCH   2   9
ATOM      9  C   UNL     1       1.017   9.937  18.349  0.00  0.00    +0.000 C 
ATOM     10  C   UNL     1       1.985  11.117  18.352  0.00  0.00    +0.000 C 
ATOM     11  C   UNL     1       1.523  12.308  19.184  0.00  0.00    +0.000 C 
ATOM     12  N   UNL     1       0.105  12.679  19.063  0.00  0.00    +0.000 NA
ATOM     13  C   UNL     1      -0.825  11.540  18.968  0.00  0.00    +0.000 C 
ATOM     14  C   UNL     1      -0.380  10.453  18.005  0.00  0.00    +0.000 C 
BRANCH  12  15
ATOM     15  C   UNL     1      -0.308  13.499  20.225  0.00  0.00    +0.000 C 
BRANCH  15  16
ATOM     16  C   UNL     1      -0.583  14.950  19.902  0.00  0.00    +0.000 A 
ATOM     17  C   UNL     1      -1.711  15.595  20.434  0.00  0.00    +0.000 A 
ATOM     18  C   UNL     1      -2.008  16.910  20.076  0.00  0.00    +0.000 A 
ATOM     19  C   UNL     1      -1.177  17.594  19.188  0.00  0.00    +0.000 A 
ATOM     20  C   UNL     1      -0.034  16.971  18.679  0.00  0.00    +0.000 A 
ATOM     21  C   UNL     1       0.260  15.654  19.032  0.00  0.00    +0.000 A 
BRANCH  20  22
ATOM     22  C   UNL     1       0.828  17.683  17.780  0.00  0.00    +0.000 C 
ATOM     23  N   UNL     1       1.534  18.258  17.058  0.00  0.00    +0.000 NA
ENDBRANCH  20  22
ENDBRANCH  15  16
ENDBRANCH  12  15
ENDBRANCH   2   9
BRANCH   5  24
ATOM     24  N   UNL     1       4.255   5.952  17.623  0.00  0.00    +0.000 N 
ATOM     25  C   UNL     1       4.225   4.762  16.909  0.00  0.00    +0.000 C 
ATOM     26  O   UNL     1       3.427   3.849  17.099  0.00  0.00    +0.000 OA
ATOM     27  H   UNL     1       5.001   6.590  17.374  0.00  0.00    +0.000 HD
BRANCH  25  28
ATOM     28  C   UNL     1       5.252   4.637  15.879  0.00  0.00    +0.000 A 
ATOM     29  C   UNL     1       5.094   4.061  14.633  0.00  0.00    +0.000 A 
ATOM     30  C   UNL     1       6.280   4.116  13.850  0.00  0.00    +0.000 A 
ATOM     31  C   UNL     1       7.310   4.729  14.524  0.00  0.00    +0.000 A 
ATOM     32  S   UNL     1       6.850   5.225  16.092  0.00  0.00    +0.000 S 
ENDBRANCH  25  28
ENDBRANCH   5  24
TORSDOF 6
ENDMDL
