MODEL 1
REMARK VINA RESULT:      -8.4      0.000      0.000
REMARK  Name = 
REMARK  6 active torsions:
REMARK  status: ('A' for Active; 'I' for Inactive)
REMARK    1  A    between atoms: S_2  and  N_4
REMARK    2  A    between atoms: S_2  and  C_21
REMARK    3  A    between atoms: N_4  and  C_5
REMARK    4  A    between atoms: N_11  and  C_12
REMARK    5  A    between atoms: C_12  and  C_13
REMARK    6  A    between atoms: C_13  and  N_14
REMARK                            x       y       z     vdW  Elec       q    Type
REMARK                         _______ _______ _______ _____ _____    ______ ____
ROOT
ATOM      1  C   UNL     1       1.911   7.297  20.446  0.00  0.00    +0.000 A 
ATOM      2  C   UNL     1       2.272   7.451  19.111  0.00  0.00    +0.000 A 
ATOM      3  C   UNL     1       1.806   8.537  18.373  0.00  0.00    +0.000 A 
ATOM      4  C   UNL     1       0.997   9.503  19.000  0.00  0.00    +0.000 A 
ATOM      5  C   UNL     1       0.394  10.701  18.548  0.00  0.00    +0.000 A 
ATOM      6  C   UNL     1      -0.253  11.276  19.610  0.00  0.00    +0.000 A 
ATOM      7  N   UNL     1      -0.096  10.442  20.701  0.00  0.00    +0.000 N 
ATOM      8  C   UNL     1       0.660   9.347  20.353  0.00  0.00    +0.000 A 
ATOM      9  C   UNL     1       1.100   8.237  21.093  0.00  0.00    +0.000 A 
ENDROOT
BRANCH   1  10
ATOM     10  N   UNL     1       2.402   6.162  21.145  0.00  0.00    +0.000 N 
ATOM     11  H   UNL     1       3.330   6.224  21.558  0.00  0.00    +0.000 HD
BRANCH  10  13
ATOM     12  O   UNL     1       2.467   3.704  21.602  0.00  0.00    +0.000 OA
ATOM     13  S   UNL     1       2.027   4.621  20.571  0.00  0.00    +0.000 S 
ATOM     14  O   UNL     1       0.671   4.588  20.071  0.00  0.00    +0.000 OA
BRANCH  13  15
ATOM     15  C   UNL     1       3.130   4.415  19.190  0.00  0.00    +0.000 A 
ATOM     16  C   UNL     1       2.634   3.816  18.030  0.00  0.00    +0.000 A 
ATOM     17  C   UNL     1       3.426   3.768  16.887  0.00  0.00    +0.000 A 
ATOM     18  C   UNL     1       4.753   4.210  16.927  0.00  0.00    +0.000 A 
ATOM     19  C   UNL     1       5.556   4.116  15.786  0.00  0.00    +0.000 A 
ATOM     20  C   UNL     1       6.938   4.205  15.902  0.00  0.00    +0.000 A 
ATOM     21  C   UNL     1       7.508   4.558  17.121  0.00  0.00    +0.000 A 
ATOM     22  C   UNL     1       6.690   4.890  18.207  0.00  0.00    +0.000 A 
ATOM     23  C   UNL     1       5.301   4.686  18.141  0.00  0.00    +0.000 A 
ATOM     24  C   UNL     1       4.449   4.883  19.244  0.00  0.00    +0.000 A 
ENDBRANCH  13  15
ENDBRANCH  10  13
ENDBRANCH   1  10
BRANCH   7  25
ATOM     25  C   UNL     1      -0.662  10.754  22.018  0.00  0.00    +0.000 C 
BRANCH  25  26
ATOM     26  C   UNL     1      -0.644  12.263  22.318  0.00  0.00    +0.000 C 
BRANCH  26  27
ATOM     27  N   UNL     1      -1.456  12.678  23.482  0.00  0.00    +0.000 NA
ATOM     28  C   UNL     1      -2.860  12.244  23.407  0.00  0.00    +0.000 C 
ATOM     29  C   UNL     1      -3.531  13.270  22.518  0.00  0.00    +0.000 C 
ATOM     30  C   UNL     1      -2.876  14.568  22.954  0.00  0.00    +0.000 C 
ATOM     31  C   UNL     1      -1.530  14.156  23.547  0.00  0.00    +0.000 C 
ENDBRANCH  26  27
ENDBRANCH  25  26
ENDBRANCH   7  25
TORSDOF 6
ENDMDL
MODEL 2
REMARK VINA RESULT:      -8.3      0.829      1.660
REMARK  Name = 
REMARK  6 active torsions:
REMARK  status: ('A' for Active; 'I' for Inactive)
REMARK    1  A    between atoms: S_2  and  N_4
REMARK    2  A    between atoms: S_2  and  C_21
REMARK    3  A    between atoms: N_4  and  C_5
REMARK    4  A    between atoms: N_11  and  C_12
REMARK    5  A    between atoms: C_12  and  C_13
REMARK    6  A    between atoms: C_13  and  N_14
REMARK                            x       y       z     vdW  Elec       q    Type
REMARK                         _______ _______ _______ _____ _____    ______ ____
ROOT
ATOM      1  C   UNL     1       2.088   7.167  20.121  0.00  0.00    +0.000 A 
ATOM      2  C   UNL     1       2.446   7.482  18.813  0.00  0.00    +0.000 A 
ATOM      3  C   UNL     1       1.981   8.651  18.215  0.00  0.00    +0.000 A 
ATOM      4  C   UNL     1       1.175   9.534  18.957  0.00  0.00    +0.000 A 
ATOM      5  C   UNL     1       0.574  10.780  18.656  0.00  0.00    +0.000 A 
ATOM      6  C   UNL     1      -0.069  11.222  19.782  0.00  0.00    +0.000 A 
ATOM      7  N   UNL     1       0.088  10.261  20.763  0.00  0.00    +0.000 N 
ATOM      8  C   UNL     1       0.841   9.215  20.282  0.00  0.00    +0.000 A 
ATOM      9  C   UNL     1       1.281   8.022  20.879  0.00  0.00    +0.000 A 
ENDROOT
BRANCH   1  10
ATOM     10  N   UNL     1       2.578   5.954  20.674  0.00  0.00    +0.000 N 
ATOM     11  H   UNL     1       3.411   6.002  21.258  0.00  0.00    +0.000 HD
BRANCH  10  13
ATOM     12  O   UNL     1       2.726   3.458  20.695  0.00  0.00    +0.000 OA
ATOM     13  S   UNL     1       2.480   4.539  19.763  0.00  0.00    +0.000 S 
ATOM     14  O   UNL     1       1.295   4.556  18.934  0.00  0.00    +0.000 OA
BRANCH  13  15
ATOM     15  C   UNL     1       3.901   4.635  18.696  0.00  0.00    +0.000 A 
ATOM     16  C   UNL     1       5.131   4.979  19.260  0.00  0.00    +0.000 A 
ATOM     17  C   UNL     1       6.284   4.925  18.484  0.00  0.00    +0.000 A 
ATOM     18  C   UNL     1       6.203   4.641  17.116  0.00  0.00    +0.000 A 
ATOM     19  C   UNL     1       7.362   4.633  16.334  0.00  0.00    +0.000 A 
ATOM     20  C   UNL     1       7.265   4.714  14.949  0.00  0.00    +0.000 A 
ATOM     21  C   UNL     1       6.017   4.628  14.338  0.00  0.00    +0.000 A 
ATOM     22  C   UNL     1       4.874   4.391  15.110  0.00  0.00    +0.000 A 
ATOM     23  C   UNL     1       4.941   4.430  16.513  0.00  0.00    +0.000 A 
ATOM     24  C   UNL     1       3.802   4.326  17.334  0.00  0.00    +0.000 A 
ENDBRANCH  13  15
ENDBRANCH  10  13
ENDBRANCH   1  10
BRANCH   7  25
ATOM     25  C   UNL     1      -0.473  10.411  22.109  0.00  0.00    +0.000 C 
BRANCH  25  26
ATOM     26  C   UNL     1      -0.892  11.861  22.409  0.00  0.00    +0.000 C 
BRANCH  26  27
ATOM     27  N   UNL     1      -2.330  12.147  22.219  0.00  0.00    +0.000 NA
ATOM     28  C   UNL     1      -2.599  13.480  21.657  0.00  0.00    +0.000 C 
ATOM     29  C   UNL     1      -2.523  14.418  22.843  0.00  0.00    +0.000 C 
ATOM     30  C   UNL     1      -3.185  13.615  23.947  0.00  0.00    +0.000 C 
ATOM     31  C   UNL     1      -3.021  12.154  23.529  0.00  0.00    +0.000 C 
ENDBRANCH  26  27
ENDBRANCH  25  26
ENDBRANCH   7  25
TORSDOF 6
ENDMDL
MODEL 3
REMARK VINA RESULT:      -8.2      2.834      4.055
REMARK  Name = 
REMARK  6 active torsions:
REMARK  status: ('A' for Active; 'I' for Inactive)
REMARK    1  A    between atoms: S_2  and  N_4
REMARK    2  A    between atoms: S_2  and  C_21
REMARK    3  A    between atoms: N_4  and  C_5
REMARK    4  A    between atoms: N_11  and  C_12
REMARK    5  A    between atoms: C_12  and  C_13
REMARK    6  A    between atoms: C_13  and  N_14
REMARK                            x       y       z     vdW  Elec       q    Type
REMARK                         _______ _______ _______ _____ _____    ______ ____
ROOT
ATOM      1  C   UNL     1      -0.378  10.423  19.423  0.00  0.00    +0.000 A 
ATOM      2  C   UNL     1      -0.621   9.874  18.167  0.00  0.00    +0.000 A 
ATOM      3  C   UNL     1      -1.814  10.139  17.499  0.00  0.00    +0.000 A 
ATOM      4  C   UNL     1      -2.760  11.001  18.087  0.00  0.00    +0.000 A 
ATOM      5  C   UNL     1      -4.026  11.476  17.670  0.00  0.00    +0.000 A 
ATOM      6  C   UNL     1      -4.490  12.338  18.627  0.00  0.00    +0.000 A 
ATOM      7  N   UNL     1      -3.557  12.379  19.646  0.00  0.00    +0.000 N 
ATOM      8  C   UNL     1      -2.491  11.565  19.343  0.00  0.00    +0.000 A 
ATOM      9  C   UNL     1      -1.303  11.275  20.035  0.00  0.00    +0.000 A 
ENDROOT
BRANCH   1  10
ATOM     10  N   UNL     1       0.849  10.105  20.065  0.00  0.00    +0.000 N 
ATOM     11  H   UNL     1       1.705  10.191  19.521  0.00  0.00    +0.000 HD
BRANCH  10  13
ATOM     12  O   UNL     1       1.808   9.257  22.213  0.00  0.00    +0.000 OA
ATOM     13  S   UNL     1       0.888   8.837  21.176  0.00  0.00    +0.000 S 
ATOM     14  O   UNL     1      -0.456   8.410  21.498  0.00  0.00    +0.000 OA
BRANCH  13  15
ATOM     15  C   UNL     1       1.684   7.524  20.278  0.00  0.00    +0.000 A 
ATOM     16  C   UNL     1       1.524   6.215  20.738  0.00  0.00    +0.000 A 
ATOM     17  C   UNL     1       2.013   5.155  19.982  0.00  0.00    +0.000 A 
ATOM     18  C   UNL     1       2.764   5.397  18.826  0.00  0.00    +0.000 A 
ATOM     19  C   UNL     1       3.290   4.327  18.097  0.00  0.00    +0.000 A 
ATOM     20  C   UNL     1       4.314   4.548  17.182  0.00  0.00    +0.000 A 
ATOM     21  C   UNL     1       4.691   5.850  16.869  0.00  0.00    +0.000 A 
ATOM     22  C   UNL     1       3.997   6.933  17.420  0.00  0.00    +0.000 A 
ATOM     23  C   UNL     1       3.047   6.727  18.435  0.00  0.00    +0.000 A 
ATOM     24  C   UNL     1       2.413   7.787  19.112  0.00  0.00    +0.000 A 
ENDBRANCH  13  15
ENDBRANCH  10  13
ENDBRANCH   1  10
BRANCH   7  25
ATOM     25  C   UNL     1      -3.731  13.212  20.841  0.00  0.00    +0.000 C 
BRANCH  25  26
ATOM     26  C   UNL     1      -5.214  13.417  21.198  0.00  0.00    +0.000 C 
BRANCH  26  27
ATOM     27  N   UNL     1      -5.750  12.472  22.203  0.00  0.00    +0.000 NA
ATOM     28  C   UNL     1      -7.173  12.153  22.013  0.00  0.00    +0.000 C 
ATOM     29  C   UNL     1      -7.913  13.313  22.645  0.00  0.00    +0.000 C 
ATOM     30  C   UNL     1      -7.080  13.609  23.878  0.00  0.00    +0.000 C 
ATOM     31  C   UNL     1      -5.685  13.079  23.552  0.00  0.00    +0.000 C 
ENDBRANCH  26  27
ENDBRANCH  25  26
ENDBRANCH   7  25
TORSDOF 6
ENDMDL
MODEL 4
REMARK VINA RESULT:      -8.1      2.896      8.728
REMARK  Name = 
REMARK  6 active torsions:
REMARK  status: ('A' for Active; 'I' for Inactive)
REMARK    1  A    between atoms: S_2  and  N_4
REMARK    2  A    between atoms: S_2  and  C_21
REMARK    3  A    between atoms: N_4  and  C_5
REMARK    4  A    between atoms: N_11  and  C_12
REMARK    5  A    between atoms: C_12  and  C_13
REMARK    6  A    between atoms: C_13  and  N_14
REMARK                            x       y       z     vdW  Elec       q    Type
REMARK                         _______ _______ _______ _____ _____    ______ ____
ROOT
ATOM      1  C   UNL     1       1.289   8.123  20.074  0.00  0.00    +0.000 A 
ATOM      2  C   UNL     1       1.304   8.987  18.982  0.00  0.00    +0.000 A 
ATOM      3  C   UNL     1       2.206   8.792  17.939  0.00  0.00    +0.000 A 
ATOM      4  C   UNL     1       3.080   7.689  17.977  0.00  0.00    +0.000 A 
ATOM      5  C   UNL     1       4.074   7.212  17.090  0.00  0.00    +0.000 A 
ATOM      6  C   UNL     1       4.589   6.056  17.614  0.00  0.00    +0.000 A 
ATOM      7  N   UNL     1       3.962   5.826  18.825  0.00  0.00    +0.000 N 
ATOM      8  C   UNL     1       3.038   6.814  19.072  0.00  0.00    +0.000 A 
ATOM      9  C   UNL     1       2.152   7.024  20.143  0.00  0.00    +0.000 A 
ENDROOT
BRANCH   1  10
ATOM     10  N   UNL     1       0.359   8.380  21.117  0.00  0.00    +0.000 N 
ATOM     11  H   UNL     1      -0.632   8.292  20.900  0.00  0.00    +0.000 HD
BRANCH  10  13
ATOM     12  O   UNL     1      -0.311   9.466  23.267  0.00  0.00    +0.000 OA
ATOM     13  S   UNL     1       0.694   9.599  22.232  0.00  0.00    +0.000 S 
ATOM     14  O   UNL     1       2.103   9.609  22.557  0.00  0.00    +0.000 OA
BRANCH  13  15
ATOM     15  C   UNL     1       0.322  11.092  21.338  0.00  0.00    +0.000 A 
ATOM     16  C   UNL     1      -1.010  11.352  21.008  0.00  0.00    +0.000 A 
ATOM     17  C   UNL     1      -1.351  12.573  20.436  0.00  0.00    +0.000 A 
ATOM     18  C   UNL     1      -0.357  13.493  20.085  0.00  0.00    +0.000 A 
ATOM     19  C   UNL     1      -0.705  14.698  19.470  0.00  0.00    +0.000 A 
ATOM     20  C   UNL     1       0.262  15.441  18.801  0.00  0.00    +0.000 A 
ATOM     21  C   UNL     1       1.601  15.072  18.891  0.00  0.00    +0.000 A 
ATOM     22  C   UNL     1       1.979  14.002  19.709  0.00  0.00    +0.000 A 
ATOM     23  C   UNL     1       1.005  13.171  20.291  0.00  0.00    +0.000 A 
ATOM     24  C   UNL     1       1.330  12.008  21.015  0.00  0.00    +0.000 A 
ENDBRANCH  13  15
ENDBRANCH  10  13
ENDBRANCH   1  10
BRANCH   7  25
ATOM     25  C   UNL     1       4.270   4.662  19.662  0.00  0.00    +0.000 C 
BRANCH  25  26
ATOM     26  C   UNL     1       3.892   3.336  18.978  0.00  0.00    +0.000 C 
BRANCH  26  27
ATOM     27  N   UNL     1       3.081   2.416  19.806  0.00  0.00    +0.000 NA
ATOM     28  C   UNL     1       1.849   1.958  19.145  0.00  0.00    +0.000 C 
ATOM     29  C   UNL     1       0.862   3.088  19.354  0.00  0.00    +0.000 C 
ATOM     30  C   UNL     1       1.163   3.539  20.771  0.00  0.00    +0.000 C 
ATOM     31  C   UNL     1       2.609   3.115  21.024  0.00  0.00    +0.000 C 
ENDBRANCH  26  27
ENDBRANCH  25  26
ENDBRANCH   7  25
TORSDOF 6
ENDMDL
MODEL 5
REMARK VINA RESULT:      -8.0      3.264      4.720
REMARK  Name = 
REMARK  6 active torsions:
REMARK  status: ('A' for Active; 'I' for Inactive)
REMARK    1  A    between atoms: S_2  and  N_4
REMARK    2  A    between atoms: S_2  and  C_21
REMARK    3  A    between atoms: N_4  and  C_5
REMARK    4  A    between atoms: N_11  and  C_12
REMARK    5  A    between atoms: C_12  and  C_13
REMARK    6  A    between atoms: C_13  and  N_14
REMARK                            x       y       z     vdW  Elec       q    Type
REMARK                         _______ _______ _______ _____ _____    ______ ____
ROOT
ATOM      1  C   UNL     1      -1.524  10.435  17.638  0.00  0.00    +0.000 A 
ATOM      2  C   UNL     1      -2.228  10.019  16.511  0.00  0.00    +0.000 A 
ATOM      3  C   UNL     1      -3.578  10.332  16.366  0.00  0.00    +0.000 A 
ATOM      4  C   UNL     1      -4.219  11.107  17.351  0.00  0.00    +0.000 A 
ATOM      5  C   UNL     1      -5.539  11.599  17.487  0.00  0.00    +0.000 A 
ATOM      6  C   UNL     1      -5.596  12.344  18.635  0.00  0.00    +0.000 A 
ATOM      7  N   UNL     1      -4.350  12.293  19.233  0.00  0.00    +0.000 N 
ATOM      8  C   UNL     1      -3.492  11.538  18.470  0.00  0.00    +0.000 A 
ATOM      9  C   UNL     1      -2.138  11.198  18.637  0.00  0.00    +0.000 A 
ENDROOT
BRANCH   1  10
ATOM     10  N   UNL     1      -0.155  10.074  17.741  0.00  0.00    +0.000 N 
ATOM     11  H   UNL     1       0.194   9.353  17.112  0.00  0.00    +0.000 HD
BRANCH  10  13
ATOM     12  O   UNL     1       1.441  11.204  19.299  0.00  0.00    +0.000 OA
ATOM     13  S   UNL     1       0.574  10.045  19.261  0.00  0.00    +0.000 S 
ATOM     14  O   UNL     1      -0.419   9.820  20.289  0.00  0.00    +0.000 OA
BRANCH  13  15
ATOM     15  C   UNL     1       1.627   8.613  19.188  0.00  0.00    +0.000 A 
ATOM     16  C   UNL     1       1.638   7.742  20.281  0.00  0.00    +0.000 A 
ATOM     17  C   UNL     1       2.339   6.543  20.198  0.00  0.00    +0.000 A 
ATOM     18  C   UNL     1       3.125   6.259  19.077  0.00  0.00    +0.000 A 
ATOM     19  C   UNL     1       3.863   5.073  19.022  0.00  0.00    +0.000 A 
ATOM     20  C   UNL     1       4.904   4.945  18.110  0.00  0.00    +0.000 A 
ATOM     21  C   UNL     1       5.099   5.926  17.141  0.00  0.00    +0.000 A 
ATOM     22  C   UNL     1       4.207   6.999  17.042  0.00  0.00    +0.000 A 
ATOM     23  C   UNL     1       3.228   7.205  18.030  0.00  0.00    +0.000 A 
ATOM     24  C   UNL     1       2.390   8.337  18.048  0.00  0.00    +0.000 A 
ENDBRANCH  13  15
ENDBRANCH  10  13
ENDBRANCH   1  10
BRANCH   7  25
ATOM     25  C   UNL     1      -4.051  12.990  20.489  0.00  0.00    +0.000 C 
BRANCH  25  26
ATOM     26  C   UNL     1      -5.199  12.874  21.508  0.00  0.00    +0.000 C 
BRANCH  26  27
ATOM     27  N   UNL     1      -5.028  13.682  22.735  0.00  0.00    +0.000 NA
ATOM     28  C   UNL     1      -3.638  13.740  23.214  0.00  0.00    +0.000 C 
ATOM     29  C   UNL     1      -3.445  12.450  23.984  0.00  0.00    +0.000 C 
ATOM     30  C   UNL     1      -4.774  12.284  24.697  0.00  0.00    +0.000 C 
ATOM     31  C   UNL     1      -5.779  13.067  23.854  0.00  0.00    +0.000 C 
ENDBRANCH  26  27
ENDBRANCH  25  26
ENDBRANCH   7  25
TORSDOF 6
ENDMDL
MODEL 6
REMARK VINA RESULT:      -8.0      2.792      9.029
REMARK  Name = 
REMARK  6 active torsions:
REMARK  status: ('A' for Active; 'I' for Inactive)
REMARK    1  A    between atoms: S_2  and  N_4
REMARK    2  A    between atoms: S_2  and  C_21
REMARK    3  A    between atoms: N_4  and  C_5
REMARK    4  A    between atoms: N_11  and  C_12
REMARK    5  A    between atoms: C_12  and  C_13
REMARK    6  A    between atoms: C_13  and  N_14
REMARK                            x       y       z     vdW  Elec       q    Type
REMARK                         _______ _______ _______ _____ _____    ______ ____
ROOT
ATOM      1  C   UNL     1       3.338   7.132  18.118  0.00  0.00    +0.000 A 
ATOM      2  C   UNL     1       3.978   7.758  17.052  0.00  0.00    +0.000 A 
ATOM      3  C   UNL     1       4.767   7.022  16.171  0.00  0.00    +0.000 A 
ATOM      4  C   UNL     1       4.883   5.630  16.343  0.00  0.00    +0.000 A 
ATOM      5  C   UNL     1       5.572   4.621  15.629  0.00  0.00    +0.000 A 
ATOM      6  C   UNL     1       5.292   3.418  16.220  0.00  0.00    +0.000 A 
ATOM      7  N   UNL     1       4.474   3.663  17.308  0.00  0.00    +0.000 N 
ATOM      8  C   UNL     1       4.214   5.009  17.408  0.00  0.00    +0.000 A 
ATOM      9  C   UNL     1       3.442   5.751  18.319  0.00  0.00    +0.000 A 
ENDROOT
BRANCH   1  10
ATOM     10  N   UNL     1       2.559   7.934  18.995  0.00  0.00    +0.000 N 
ATOM     11  H   UNL     1       2.168   7.489  19.822  0.00  0.00    +0.000 HD
BRANCH  10  13
ATOM     12  O   UNL     1       2.454  10.215  17.976  0.00  0.00    +0.000 OA
ATOM     13  S   UNL     1       1.566   9.132  18.345  0.00  0.00    +0.000 S 
ATOM     14  O   UNL     1       0.649   8.558  17.386  0.00  0.00    +0.000 OA
BRANCH  13  15
ATOM     15  C   UNL     1       0.622   9.691  19.746  0.00  0.00    +0.000 A 
ATOM     16  C   UNL     1       0.666   8.933  20.919  0.00  0.00    +0.000 A 
ATOM     17  C   UNL     1       0.055   9.416  22.072  0.00  0.00    +0.000 A 
ATOM     18  C   UNL     1      -0.698  10.594  22.035  0.00  0.00    +0.000 A 
ATOM     19  C   UNL     1      -1.346  11.047  23.187  0.00  0.00    +0.000 A 
ATOM     20  C   UNL     1      -2.367  11.985  23.087  0.00  0.00    +0.000 A 
ATOM     21  C   UNL     1      -2.624  12.597  21.863  0.00  0.00    +0.000 A 
ATOM     22  C   UNL     1      -1.813  12.321  20.757  0.00  0.00    +0.000 A 
ATOM     23  C   UNL     1      -0.860  11.288  20.813  0.00  0.00    +0.000 A 
ATOM     24  C   UNL     1      -0.109  10.884  19.693  0.00  0.00    +0.000 A 
ENDBRANCH  13  15
ENDBRANCH  10  13
ENDBRANCH   1  10
BRANCH   7  25
ATOM     25  C   UNL     1       3.973   2.590  18.174  0.00  0.00    +0.000 C 
BRANCH  25  26
ATOM     26  C   UNL     1       2.436   2.510  18.173  0.00  0.00    +0.000 C 
BRANCH  26  27
ATOM     27  N   UNL     1       1.832   2.111  19.463  0.00  0.00    +0.000 NA
ATOM     28  C   UNL     1       0.561   2.792  19.756  0.00  0.00    +0.000 C 
ATOM     29  C   UNL     1       0.969   4.140  20.313  0.00  0.00    +0.000 C 
ATOM     30  C   UNL     1       2.174   3.797  21.169  0.00  0.00    +0.000 C 
ATOM     31  C   UNL     1       2.724   2.498  20.580  0.00  0.00    +0.000 C 
ENDBRANCH  26  27
ENDBRANCH  25  26
ENDBRANCH   7  25
TORSDOF 6
ENDMDL
MODEL 7
REMARK VINA RESULT:      -7.9      2.609      3.876
REMARK  Name = 
REMARK  6 active torsions:
REMARK  status: ('A' for Active; 'I' for Inactive)
REMARK    1  A    between atoms: S_2  and  N_4
REMARK    2  A    between atoms: S_2  and  C_21
REMARK    3  A    between atoms: N_4  and  C_5
REMARK    4  A    between atoms: N_11  and  C_12
REMARK    5  A    between atoms: C_12  and  C_13
REMARK    6  A    between atoms: C_13  and  N_14
REMARK                            x       y       z     vdW  Elec       q    Type
REMARK                         _______ _______ _______ _____ _____    ______ ____
ROOT
ATOM      1  C   UNL     1      -0.485  10.508  19.277  0.00  0.00    +0.000 A 
ATOM      2  C   UNL     1      -0.689   9.886  18.048  0.00  0.00    +0.000 A 
ATOM      3  C   UNL     1      -1.890  10.054  17.362  0.00  0.00    +0.000 A 
ATOM      4  C   UNL     1      -2.885  10.889  17.903  0.00  0.00    +0.000 A 
ATOM      5  C   UNL     1      -4.172  11.274  17.457  0.00  0.00    +0.000 A 
ATOM      6  C   UNL     1      -4.690  12.154  18.370  0.00  0.00    +0.000 A 
ATOM      7  N   UNL     1      -3.768  12.295  19.391  0.00  0.00    +0.000 N 
ATOM      8  C   UNL     1      -2.657  11.527  19.131  0.00  0.00    +0.000 A 
ATOM      9  C   UNL     1      -1.460  11.336  19.843  0.00  0.00    +0.000 A 
ENDROOT
BRANCH   1  10
ATOM     10  N   UNL     1       0.752  10.288  19.939  0.00  0.00    +0.000 N 
ATOM     11  H   UNL     1       1.607  10.412  19.400  0.00  0.00    +0.000 HD
BRANCH  10  13
ATOM     12  O   UNL     1       1.789   9.547  22.090  0.00  0.00    +0.000 OA
ATOM     13  S   UNL     1       0.859   9.062  21.091  0.00  0.00    +0.000 S 
ATOM     14  O   UNL     1      -0.462   8.603  21.461  0.00  0.00    +0.000 OA
BRANCH  13  15
ATOM     15  C   UNL     1       1.677   7.744  20.219  0.00  0.00    +0.000 A 
ATOM     16  C   UNL     1       1.586   6.450  20.736  0.00  0.00    +0.000 A 
ATOM     17  C   UNL     1       2.092   5.380  20.006  0.00  0.00    +0.000 A 
ATOM     18  C   UNL     1       2.792   5.604  18.815  0.00  0.00    +0.000 A 
ATOM     19  C   UNL     1       3.336   4.526  18.111  0.00  0.00    +0.000 A 
ATOM     20  C   UNL     1       4.318   4.748  17.152  0.00  0.00    +0.000 A 
ATOM     21  C   UNL     1       4.632   6.050  16.774  0.00  0.00    +0.000 A 
ATOM     22  C   UNL     1       3.913   7.127  17.306  0.00  0.00    +0.000 A 
ATOM     23  C   UNL     1       3.007   6.926  18.362  0.00  0.00    +0.000 A 
ATOM     24  C   UNL     1       2.355   7.987  19.018  0.00  0.00    +0.000 A 
ENDBRANCH  13  15
ENDBRANCH  10  13
ENDBRANCH   1  10
BRANCH   7  25
ATOM     25  C   UNL     1      -3.997  13.173  20.543  0.00  0.00    +0.000 C 
BRANCH  25  26
ATOM     26  C   UNL     1      -3.737  12.460  21.881  0.00  0.00    +0.000 C 
BRANCH  26  27
ATOM     27  N   UNL     1      -4.695  12.787  22.959  0.00  0.00    +0.000 NA
ATOM     28  C   UNL     1      -5.123  14.195  22.961  0.00  0.00    +0.000 C 
ATOM     29  C   UNL     1      -4.006  14.933  23.669  0.00  0.00    +0.000 C 
ATOM     30  C   UNL     1      -3.621  13.973  24.779  0.00  0.00    +0.000 C 
ATOM     31  C   UNL     1      -4.054  12.595  24.281  0.00  0.00    +0.000 C 
ENDBRANCH  26  27
ENDBRANCH  25  26
ENDBRANCH   7  25
TORSDOF 6
ENDMDL
MODEL 8
REMARK VINA RESULT:      -7.9      3.509      9.840
REMARK  Name = 
REMARK  6 active torsions:
REMARK  status: ('A' for Active; 'I' for Inactive)
REMARK    1  A    between atoms: S_2  and  N_4
REMARK    2  A    between atoms: S_2  and  C_21
REMARK    3  A    between atoms: N_4  and  C_5
REMARK    4  A    between atoms: N_11  and  C_12
REMARK    5  A    between atoms: C_12  and  C_13
REMARK    6  A    between atoms: C_13  and  N_14
REMARK                            x       y       z     vdW  Elec       q    Type
REMARK                         _______ _______ _______ _____ _____    ______ ____
ROOT
ATOM      1  C   UNL     1       1.689   9.061  18.595  0.00  0.00    +0.000 A 
ATOM      2  C   UNL     1       1.196   8.832  19.877  0.00  0.00    +0.000 A 
ATOM      3  C   UNL     1       1.470   7.635  20.535  0.00  0.00    +0.000 A 
ATOM      4  C   UNL     1       2.282   6.671  19.910  0.00  0.00    +0.000 A 
ATOM      5  C   UNL     1       2.752   5.397  20.308  0.00  0.00    +0.000 A 
ATOM      6  C   UNL     1       3.557   4.912  19.312  0.00  0.00    +0.000 A 
ATOM      7  N   UNL     1       3.568   5.842  18.289  0.00  0.00    +0.000 N 
ATOM      8  C   UNL     1       2.791   6.925  18.628  0.00  0.00    +0.000 A 
ATOM      9  C   UNL     1       2.492   8.117  17.946  0.00  0.00    +0.000 A 
ENDROOT
BRANCH   1  10
ATOM     10  N   UNL     1       1.365  10.292  17.965  0.00  0.00    +0.000 N 
ATOM     11  H   UNL     1       1.987  10.627  17.232  0.00  0.00    +0.000 HD
BRANCH  10  13
ATOM     12  O   UNL     1       0.921  11.162  20.266  0.00  0.00    +0.000 OA
ATOM     13  S   UNL     1       0.687  11.531  18.885  0.00  0.00    +0.000 S 
ATOM     14  O   UNL     1       1.102  12.820  18.376  0.00  0.00    +0.000 OA
BRANCH  13  15
ATOM     15  C   UNL     1      -1.059  11.357  18.591  0.00  0.00    +0.000 A 
ATOM     16  C   UNL     1      -1.476  10.516  17.557  0.00  0.00    +0.000 A 
ATOM     17  C   UNL     1      -2.831  10.247  17.392  0.00  0.00    +0.000 A 
ATOM     18  C   UNL     1      -3.783  10.904  18.179  0.00  0.00    +0.000 A 
ATOM     19  C   UNL     1      -5.145  10.663  17.976  0.00  0.00    +0.000 A 
ATOM     20  C   UNL     1      -6.090  11.549  18.480  0.00  0.00    +0.000 A 
ATOM     21  C   UNL     1      -5.689  12.577  19.329  0.00  0.00    +0.000 A 
ATOM     22  C   UNL     1      -4.351  12.673  19.729  0.00  0.00    +0.000 A 
ATOM     23  C   UNL     1      -3.369  11.863  19.133  0.00  0.00    +0.000 A 
ATOM     24  C   UNL     1      -1.995  12.007  19.404  0.00  0.00    +0.000 A 
ENDBRANCH  13  15
ENDBRANCH  10  13
ENDBRANCH   1  10
BRANCH   7  25
ATOM     25  C   UNL     1       4.339   5.648  17.057  0.00  0.00    +0.000 C 
BRANCH  25  26
ATOM     26  C   UNL     1       5.369   4.512  17.186  0.00  0.00    +0.000 C 
BRANCH  26  27
ATOM     27  N   UNL     1       6.752   4.878  16.810  0.00  0.00    +0.000 NA
ATOM     28  C   UNL     1       7.751   4.552  17.840  0.00  0.00    +0.000 C 
ATOM     29  C   UNL     1       7.669   5.697  18.828  0.00  0.00    +0.000 C 
ATOM     30  C   UNL     1       7.476   6.903  17.927  0.00  0.00    +0.000 C 
ATOM     31  C   UNL     1       6.859   6.346  16.645  0.00  0.00    +0.000 C 
ENDBRANCH  26  27
ENDBRANCH  25  26
ENDBRANCH   7  25
TORSDOF 6
ENDMDL
MODEL 9
REMARK VINA RESULT:      -7.9      2.921      5.113
REMARK  Name = 
REMARK  6 active torsions:
REMARK  status: ('A' for Active; 'I' for Inactive)
REMARK    1  A    between atoms: S_2  and  N_4
REMARK    2  A    between atoms: S_2  and  C_21
REMARK    3  A    between atoms: N_4  and  C_5
REMARK    4  A    between atoms: N_11  and  C_12
REMARK    5  A    between atoms: C_12  and  C_13
REMARK    6  A    between atoms: C_13  and  N_14
REMARK                            x       y       z     vdW  Elec       q    Type
REMARK                         _______ _______ _______ _____ _____    ______ ____
ROOT
ATOM      1  C   UNL     1      -0.164  11.242  20.605  0.00  0.00    +0.000 A 
ATOM      2  C   UNL     1       0.338  12.222  21.457  0.00  0.00    +0.000 A 
ATOM      3  C   UNL     1      -0.438  13.326  21.800  0.00  0.00    +0.000 A 
ATOM      4  C   UNL     1      -1.753  13.427  21.308  0.00  0.00    +0.000 A 
ATOM      5  C   UNL     1      -2.779  14.387  21.480  0.00  0.00    +0.000 A 
ATOM      6  C   UNL     1      -3.884  13.951  20.798  0.00  0.00    +0.000 A 
ATOM      7  N   UNL     1      -3.554  12.761  20.177  0.00  0.00    +0.000 N 
ATOM      8  C   UNL     1      -2.254  12.422  20.468  0.00  0.00    +0.000 A 
ATOM      9  C   UNL     1      -1.464  11.321  20.094  0.00  0.00    +0.000 A 
ENDROOT
BRANCH   1  10
ATOM     10  N   UNL     1       0.678  10.146  20.277  0.00  0.00    +0.000 N 
ATOM     11  H   UNL     1       0.737   9.870  19.299  0.00  0.00    +0.000 HD
BRANCH  10  13
ATOM     12  O   UNL     1       1.717   9.267  22.375  0.00  0.00    +0.000 OA
ATOM     13  S   UNL     1       0.787   8.847  21.346  0.00  0.00    +0.000 S 
ATOM     14  O   UNL     1      -0.533   8.363  21.685  0.00  0.00    +0.000 OA
BRANCH  13  15
ATOM     15  C   UNL     1       1.607   7.591  20.389  0.00  0.00    +0.000 A 
ATOM     16  C   UNL     1       1.525   6.267  20.825  0.00  0.00    +0.000 A 
ATOM     17  C   UNL     1       2.032   5.247  20.027  0.00  0.00    +0.000 A 
ATOM     18  C   UNL     1       2.725   5.548  18.849  0.00  0.00    +0.000 A 
ATOM     19  C   UNL     1       3.271   4.519  18.076  0.00  0.00    +0.000 A 
ATOM     20  C   UNL     1       4.246   4.806  17.128  0.00  0.00    +0.000 A 
ATOM     21  C   UNL     1       4.552   6.131  16.831  0.00  0.00    +0.000 A 
ATOM     22  C   UNL     1       3.830   7.168  17.432  0.00  0.00    +0.000 A 
ATOM     23  C   UNL     1       2.931   6.897  18.478  0.00  0.00    +0.000 A 
ATOM     24  C   UNL     1       2.277   7.912  19.202  0.00  0.00    +0.000 A 
ENDBRANCH  13  15
ENDBRANCH  10  13
ENDBRANCH   1  10
BRANCH   7  25
ATOM     25  C   UNL     1      -4.511  12.008  19.359  0.00  0.00    +0.000 C 
BRANCH  25  26
ATOM     26  C   UNL     1      -4.119  11.990  17.871  0.00  0.00    +0.000 C 
BRANCH  26  27
ATOM     27  N   UNL     1      -4.328  10.695  17.187  0.00  0.00    +0.000 NA
ATOM     28  C   UNL     1      -3.404   9.638  17.627  0.00  0.00    +0.000 C 
ATOM     29  C   UNL     1      -2.131   9.894  16.848  0.00  0.00    +0.000 C 
ATOM     30  C   UNL     1      -2.651  10.304  15.482  0.00  0.00    +0.000 C 
ATOM     31  C   UNL     1      -4.059  10.840  15.737  0.00  0.00    +0.000 C 
ENDBRANCH  26  27
ENDBRANCH  25  26
ENDBRANCH   7  25
TORSDOF 6
ENDMDL
