MODEL 1
REMARK VINA RESULT:      -6.8      0.000      0.000
REMARK  Name = 
REMARK  2 active torsions:
REMARK  status: ('A' for Active; 'I' for Inactive)
REMARK    1  A    between atoms: C_1  and  C_2
REMARK    2  A    between atoms: C_2  and  N_3
REMARK                            x       y       z     vdW  Elec       q    Type
REMARK                         _______ _______ _______ _____ _____    ______ ____
ROOT
ATOM      1  N   UNL     1       6.107   5.092  16.274  0.00  0.00    +0.000 N 
ATOM      2  C   UNL     1       5.658   4.165  17.264  0.00  0.00    +0.000 C 
ATOM      3  C   UNL     1       4.267   4.660  17.651  0.00  0.00    +0.000 C 
ATOM      4  C   UNL     1       4.103   4.966  19.163  0.00  0.00    +0.000 C 
ATOM      5  N   UNL     1       3.254   3.947  19.841  0.00  0.00    +0.000 NA
ATOM      6  C   UNL     1       1.866   4.104  19.339  0.00  0.00    +0.000 C 
ATOM      7  C   UNL     1       1.813   4.120  17.802  0.00  0.00    +0.000 C 
ATOM      8  C   UNL     1       3.169   3.629  17.257  0.00  0.00    +0.000 C 
ATOM      9  C   UNL     1       3.449   2.295  17.986  0.00  0.00    +0.000 C 
ATOM     10  C   UNL     1       3.740   2.598  19.469  0.00  0.00    +0.000 C 
ATOM     11  O   UNL     1       4.101   5.890  16.923  0.00  0.00    +0.000 OA
ATOM     12  C   UNL     1       5.173   6.096  16.105  0.00  0.00    +0.000 C 
ATOM     13  O   UNL     1       5.244   7.016  15.307  0.00  0.00    +0.000 OA
ENDROOT
BRANCH   1  15
ATOM     14  C   UNL     1       6.145   3.930  14.051  0.00  0.00    +0.000 C 
ATOM     15  C   UNL     1       6.909   4.674  15.138  0.00  0.00    +0.000 C 
ENDBRANCH   1  15
TORSDOF 1
ENDMDL
MODEL 2
REMARK VINA RESULT:      -6.7      2.691      3.791
REMARK  Name = 
REMARK  2 active torsions:
REMARK  status: ('A' for Active; 'I' for Inactive)
REMARK    1  A    between atoms: C_1  and  C_2
REMARK    2  A    between atoms: C_2  and  N_3
REMARK                            x       y       z     vdW  Elec       q    Type
REMARK                         _______ _______ _______ _____ _____    ______ ____
ROOT
ATOM      1  N   UNL     1       6.369   4.052  13.944  0.00  0.00    +0.000 N 
ATOM      2  C   UNL     1       5.982   3.929  15.314  0.00  0.00    +0.000 C 
ATOM      3  C   UNL     1       6.812   4.982  16.044  0.00  0.00    +0.000 C 
ATOM      4  C   UNL     1       7.697   4.411  17.183  0.00  0.00    +0.000 C 
ATOM      5  N   UNL     1       7.173   4.784  18.526  0.00  0.00    +0.000 NA
ATOM      6  C   UNL     1       7.353   6.248  18.695  0.00  0.00    +0.000 C 
ATOM      7  C   UNL     1       6.787   7.034  17.502  0.00  0.00    +0.000 C 
ATOM      8  C   UNL     1       5.906   6.088  16.661  0.00  0.00    +0.000 C 
ATOM      9  C   UNL     1       4.928   5.435  17.664  0.00  0.00    +0.000 C 
ATOM     10  C   UNL     1       5.724   4.479  18.573  0.00  0.00    +0.000 C 
ATOM     11  O   UNL     1       7.676   5.531  15.034  0.00  0.00    +0.000 OA
ATOM     12  C   UNL     1       7.372   4.995  13.817  0.00  0.00    +0.000 C 
ATOM     13  O   UNL     1       7.888   5.358  12.774  0.00  0.00    +0.000 OA
ENDROOT
BRANCH   1  15
ATOM     14  C   UNL     1       5.737   2.736  11.904  0.00  0.00    +0.000 C 
ATOM     15  C   UNL     1       5.421   3.880  12.859  0.00  0.00    +0.000 C 
ENDBRANCH   1  15
TORSDOF 1
ENDMDL
MODEL 3
REMARK VINA RESULT:      -6.7      1.910      2.505
REMARK  Name = 
REMARK  2 active torsions:
REMARK  status: ('A' for Active; 'I' for Inactive)
REMARK    1  A    between atoms: C_1  and  C_2
REMARK    2  A    between atoms: C_2  and  N_3
REMARK                            x       y       z     vdW  Elec       q    Type
REMARK                         _______ _______ _______ _____ _____    ______ ____
ROOT
ATOM      1  N   UNL     1       5.607   4.386  17.630  0.00  0.00    +0.000 N 
ATOM      2  C   UNL     1       4.359   3.690  17.605  0.00  0.00    +0.000 C 
ATOM      3  C   UNL     1       3.743   3.957  18.976  0.00  0.00    +0.000 C 
ATOM      4  C   UNL     1       3.411   2.673  19.781  0.00  0.00    +0.000 C 
ATOM      5  N   UNL     1       1.943   2.432  19.852  0.00  0.00    +0.000 NA
ATOM      6  C   UNL     1       1.348   3.495  20.702  0.00  0.00    +0.000 C 
ATOM      7  C   UNL     1       1.787   4.898  20.250  0.00  0.00    +0.000 C 
ATOM      8  C   UNL     1       2.432   4.788  18.855  0.00  0.00    +0.000 C 
ATOM      9  C   UNL     1       1.418   4.003  17.991  0.00  0.00    +0.000 C 
ATOM     10  C   UNL     1       1.375   2.546  18.489  0.00  0.00    +0.000 C 
ATOM     11  O   UNL     1       4.751   4.691  19.693  0.00  0.00    +0.000 OA
ATOM     12  C   UNL     1       5.809   4.955  18.873  0.00  0.00    +0.000 C 
ATOM     13  O   UNL     1       6.759   5.645  19.201  0.00  0.00    +0.000 OA
ENDROOT
BRANCH   1  15
ATOM     14  C   UNL     1       5.246   6.139  15.871  0.00  0.00    +0.000 C 
ATOM     15  C   UNL     1       6.138   5.052  16.454  0.00  0.00    +0.000 C 
ENDBRANCH   1  15
TORSDOF 1
ENDMDL
MODEL 4
REMARK VINA RESULT:      -6.6      2.087      4.808
REMARK  Name = 
REMARK  2 active torsions:
REMARK  status: ('A' for Active; 'I' for Inactive)
REMARK    1  A    between atoms: C_1  and  C_2
REMARK    2  A    between atoms: C_2  and  N_3
REMARK                            x       y       z     vdW  Elec       q    Type
REMARK                         _______ _______ _______ _____ _____    ______ ____
ROOT
ATOM      1  N   UNL     1       3.362   3.139  18.743  0.00  0.00    +0.000 N 
ATOM      2  C   UNL     1       3.599   4.173  17.786  0.00  0.00    +0.000 C 
ATOM      3  C   UNL     1       5.066   4.549  17.982  0.00  0.00    +0.000 C 
ATOM      4  C   UNL     1       5.296   6.046  18.312  0.00  0.00    +0.000 C 
ATOM      5  N   UNL     1       5.903   6.776  17.163  0.00  0.00    +0.000 NA
ATOM      6  C   UNL     1       7.291   6.278  16.990  0.00  0.00    +0.000 C 
ATOM      7  C   UNL     1       7.342   4.742  16.924  0.00  0.00    +0.000 C 
ATOM      8  C   UNL     1       5.910   4.209  16.719  0.00  0.00    +0.000 C 
ATOM      9  C   UNL     1       5.346   4.995  15.512  0.00  0.00    +0.000 C 
ATOM     10  C   UNL     1       5.132   6.460  15.939  0.00  0.00    +0.000 C 
ATOM     11  O   UNL     1       5.495   3.767  19.111  0.00  0.00    +0.000 OA
ATOM     12  C   UNL     1       4.493   2.932  19.510  0.00  0.00    +0.000 C 
ATOM     13  O   UNL     1       4.624   2.094  20.385  0.00  0.00    +0.000 OA
ENDROOT
BRANCH   1  15
ATOM     14  C   UNL     1       1.011   2.260  18.757  0.00  0.00    +0.000 C 
ATOM     15  C   UNL     1       2.485   2.017  18.460  0.00  0.00    +0.000 C 
ENDBRANCH   1  15
TORSDOF 1
ENDMDL
MODEL 5
REMARK VINA RESULT:      -6.6      1.308      1.562
REMARK  Name = 
REMARK  2 active torsions:
REMARK  status: ('A' for Active; 'I' for Inactive)
REMARK    1  A    between atoms: C_1  and  C_2
REMARK    2  A    between atoms: C_2  and  N_3
REMARK                            x       y       z     vdW  Elec       q    Type
REMARK                         _______ _______ _______ _____ _____    ______ ____
ROOT
ATOM      1  N   UNL     1       6.697   4.812  16.133  0.00  0.00    +0.000 N 
ATOM      2  C   UNL     1       5.641   4.041  16.710  0.00  0.00    +0.000 C 
ATOM      3  C   UNL     1       5.086   4.923  17.825  0.00  0.00    +0.000 C 
ATOM      4  C   UNL     1       5.114   4.262  19.227  0.00  0.00    +0.000 C 
ATOM      5  N   UNL     1       3.748   3.886  19.686  0.00  0.00    +0.000 NA
ATOM      6  C   UNL     1       2.995   5.138  19.947  0.00  0.00    +0.000 C 
ATOM      7  C   UNL     1       3.070   6.108  18.756  0.00  0.00    +0.000 C 
ATOM      8  C   UNL     1       3.616   5.346  17.533  0.00  0.00    +0.000 C 
ATOM      9  C   UNL     1       2.743   4.075  17.415  0.00  0.00    +0.000 C 
ATOM     10  C   UNL     1       3.068   3.145  18.599  0.00  0.00    +0.000 C 
ATOM     11  O   UNL     1       5.954   6.070  17.849  0.00  0.00    +0.000 OA
ATOM     12  C   UNL     1       6.859   5.993  16.832  0.00  0.00    +0.000 C 
ATOM     13  O   UNL     1       7.651   6.882  16.567  0.00  0.00    +0.000 OA
ENDROOT
BRANCH   1  15
ATOM     14  C   UNL     1       5.978   4.001  13.870  0.00  0.00    +0.000 C 
ATOM     15  C   UNL     1       6.975   4.791  14.708  0.00  0.00    +0.000 C 
ENDBRANCH   1  15
TORSDOF 1
ENDMDL
MODEL 6
REMARK VINA RESULT:      -6.5      1.707      2.198
REMARK  Name = 
REMARK  2 active torsions:
REMARK  status: ('A' for Active; 'I' for Inactive)
REMARK    1  A    between atoms: C_1  and  C_2
REMARK    2  A    between atoms: C_2  and  N_3
REMARK                            x       y       z     vdW  Elec       q    Type
REMARK                         _______ _______ _______ _____ _____    ______ ____
ROOT
ATOM      1  N   UNL     1       5.982   4.215  16.709  0.00  0.00    +0.000 N 
ATOM      2  C   UNL     1       4.647   3.738  16.883  0.00  0.00    +0.000 C 
ATOM      3  C   UNL     1       4.382   3.874  18.380  0.00  0.00    +0.000 C 
ATOM      4  C   UNL     1       3.983   2.545  19.075  0.00  0.00    +0.000 C 
ATOM      5  N   UNL     1       2.541   2.531  19.447  0.00  0.00    +0.000 NA
ATOM      6  C   UNL     1       2.342   3.523  20.534  0.00  0.00    +0.000 C 
ATOM      7  C   UNL     1       2.938   4.894  20.172  0.00  0.00    +0.000 C 
ATOM      8  C   UNL     1       3.256   4.910  18.664  0.00  0.00    +0.000 C 
ATOM      9  C   UNL     1       1.958   4.446  17.963  0.00  0.00    +0.000 C 
ATOM     10  C   UNL     1       1.742   2.952  18.274  0.00  0.00    +0.000 C 
ATOM     11  O   UNL     1       5.635   4.313  18.934  0.00  0.00    +0.000 OA
ATOM     12  C   UNL     1       6.536   4.535  17.934  0.00  0.00    +0.000 C 
ATOM     13  O   UNL     1       7.645   5.005  18.120  0.00  0.00    +0.000 OA
ENDROOT
BRANCH   1  15
ATOM     14  C   UNL     1       6.399   4.175  14.235  0.00  0.00    +0.000 C 
ATOM     15  C   UNL     1       6.382   4.969  15.535  0.00  0.00    +0.000 C 
ENDBRANCH   1  15
TORSDOF 1
ENDMDL
MODEL 7
REMARK VINA RESULT:      -6.4      2.007      4.780
REMARK  Name = 
REMARK  2 active torsions:
REMARK  status: ('A' for Active; 'I' for Inactive)
REMARK    1  A    between atoms: C_1  and  C_2
REMARK    2  A    between atoms: C_2  and  N_3
REMARK                            x       y       z     vdW  Elec       q    Type
REMARK                         _______ _______ _______ _____ _____    ______ ____
ROOT
ATOM      1  N   UNL     1       3.242   3.974  18.551  0.00  0.00    +0.000 N 
ATOM      2  C   UNL     1       4.194   4.263  17.525  0.00  0.00    +0.000 C 
ATOM      3  C   UNL     1       5.089   5.344  18.125  0.00  0.00    +0.000 C 
ATOM      4  C   UNL     1       5.146   6.652  17.292  0.00  0.00    +0.000 C 
ATOM      5  N   UNL     1       6.459   6.811  16.608  0.00  0.00    +0.000 NA
ATOM      6  C   UNL     1       7.487   7.061  17.650  0.00  0.00    +0.000 C 
ATOM      7  C   UNL     1       7.428   6.012  18.773  0.00  0.00    +0.000 C 
ATOM      8  C   UNL     1       6.549   4.835  18.303  0.00  0.00    +0.000 C 
ATOM      9  C   UNL     1       7.110   4.427  16.921  0.00  0.00    +0.000 C 
ATOM     10  C   UNL     1       6.790   5.547  15.912  0.00  0.00    +0.000 C 
ATOM     11  O   UNL     1       4.492   5.647  19.398  0.00  0.00    +0.000 OA
ATOM     12  C   UNL     1       3.441   4.811  19.633  0.00  0.00    +0.000 C 
ATOM     13  O   UNL     1       2.819   4.789  20.682  0.00  0.00    +0.000 OA
ENDROOT
BRANCH   1  15
ATOM     14  C   UNL     1       1.237   2.468  18.639  0.00  0.00    +0.000 C 
ATOM     15  C   UNL     1       2.744   2.629  18.780  0.00  0.00    +0.000 C 
ENDBRANCH   1  15
TORSDOF 1
ENDMDL
MODEL 8
REMARK VINA RESULT:      -6.3      1.712      2.004
REMARK  Name = 
REMARK  2 active torsions:
REMARK  status: ('A' for Active; 'I' for Inactive)
REMARK    1  A    between atoms: C_1  and  C_2
REMARK    2  A    between atoms: C_2  and  N_3
REMARK                            x       y       z     vdW  Elec       q    Type
REMARK                         _______ _______ _______ _____ _____    ______ ____
ROOT
ATOM      1  N   UNL     1       5.489   5.826  18.224  0.00  0.00    +0.000 N 
ATOM      2  C   UNL     1       4.875   4.985  19.203  0.00  0.00    +0.000 C 
ATOM      3  C   UNL     1       3.642   4.419  18.504  0.00  0.00    +0.000 C 
ATOM      4  C   UNL     1       2.308   4.716  19.237  0.00  0.00    +0.000 C 
ATOM      5  N   UNL     1       1.747   3.493  19.875  0.00  0.00    +0.000 NA
ATOM      6  C   UNL     1       1.309   2.575  18.793  0.00  0.00    +0.000 C 
ATOM      7  C   UNL     1       2.419   2.352  17.752  0.00  0.00    +0.000 C 
ATOM      8  C   UNL     1       3.749   2.876  18.328  0.00  0.00    +0.000 C 
ATOM      9  C   UNL     1       3.883   2.220  19.721  0.00  0.00    +0.000 C 
ATOM     10  C   UNL     1       2.817   2.828  20.653  0.00  0.00    +0.000 C 
ATOM     11  O   UNL     1       3.611   5.080  17.226  0.00  0.00    +0.000 OA
ATOM     12  C   UNL     1       4.716   5.866  17.079  0.00  0.00    +0.000 C 
ATOM     13  O   UNL     1       4.986   6.462  16.051  0.00  0.00    +0.000 OA
ENDROOT
BRANCH   1  15
ATOM     14  C   UNL     1       7.647   4.662  17.688  0.00  0.00    +0.000 C 
ATOM     15  C   UNL     1       6.932   5.940  18.106  0.00  0.00    +0.000 C 
ENDBRANCH   1  15
TORSDOF 1
ENDMDL
MODEL 9
REMARK VINA RESULT:      -6.3      1.733      2.525
REMARK  Name = 
REMARK  2 active torsions:
REMARK  status: ('A' for Active; 'I' for Inactive)
REMARK    1  A    between atoms: C_1  and  C_2
REMARK    2  A    between atoms: C_2  and  N_3
REMARK                            x       y       z     vdW  Elec       q    Type
REMARK                         _______ _______ _______ _____ _____    ______ ____
ROOT
ATOM      1  N   UNL     1       5.938   4.834  17.671  0.00  0.00    +0.000 N 
ATOM      2  C   UNL     1       4.927   4.809  18.680  0.00  0.00    +0.000 C 
ATOM      3  C   UNL     1       3.806   3.965  18.079  0.00  0.00    +0.000 C 
ATOM      4  C   UNL     1       2.438   4.693  18.002  0.00  0.00    +0.000 C 
ATOM      5  N   UNL     1       1.472   4.155  18.999  0.00  0.00    +0.000 NA
ATOM      6  C   UNL     1       1.113   2.774  18.587  0.00  0.00    +0.000 C 
ATOM      7  C   UNL     1       2.361   1.917  18.317  0.00  0.00    +0.000 C 
ATOM      8  C   UNL     1       3.594   2.649  18.883  0.00  0.00    +0.000 C 
ATOM      9  C   UNL     1       3.228   3.006  20.343  0.00  0.00    +0.000 C 
ATOM     10  C   UNL     1       2.137   4.094  20.321  0.00  0.00    +0.000 C 
ATOM     11  O   UNL     1       4.241   3.681  16.737  0.00  0.00    +0.000 OA
ATOM     12  C   UNL     1       5.499   4.170  16.541  0.00  0.00    +0.000 C 
ATOM     13  O   UNL     1       6.142   3.984  15.522  0.00  0.00    +0.000 OA
ENDROOT
BRANCH   1  15
ATOM     14  C   UNL     1       7.820   5.933  18.915  0.00  0.00    +0.000 C 
ATOM     15  C   UNL     1       7.352   4.809  18.000  0.00  0.00    +0.000 C 
ENDBRANCH   1  15
TORSDOF 1
ENDMDL
