MODEL 1
REMARK VINA RESULT:      -6.6      0.000      0.000
REMARK  Name = 
REMARK  9 active torsions:
REMARK  status: ('A' for Active; 'I' for Inactive)
REMARK    1  A    between atoms: C_1  and  C_2
REMARK    2  A    between atoms: C_2  and  C_3
REMARK    3  A    between atoms: C_3  and  C_4
REMARK    4  A    between atoms: C_4  and  N_5
REMARK    5  A    between atoms: N_5  and  C_6
REMARK    6  A    between atoms: N_5  and  S_8
REMARK    7  A    between atoms: C_6  and  C_7
REMARK    8  A    between atoms: S_8  and  C_11
REMARK    9  A    between atoms: C_19  and  C_20
REMARK                            x       y       z     vdW  Elec       q    Type
REMARK                         _______ _______ _______ _____ _____    ______ ____
ROOT
ATOM      1  C   UNL     1       4.399   5.286  18.542  0.00  0.00    +0.000 A 
ATOM      2  C   UNL     1       3.940   6.630  18.416  0.00  0.00    +0.000 A 
ATOM      3  C   UNL     1       2.599   6.946  18.173  0.00  0.00    +0.000 A 
ATOM      4 BR   UNL     1       2.067   8.751  17.997  0.00  0.00    +0.000 Br
ATOM      5  C   UNL     1       1.668   5.941  18.018  0.00  0.00    +0.000 A 
ATOM      6  C   UNL     1       2.103   4.628  18.155  0.00  0.00    +0.000 A 
ATOM      7  C   UNL     1       3.440   4.263  18.474  0.00  0.00    +0.000 A 
ATOM      8  N   UNL     1       3.434   2.848  18.678  0.00  0.00    +0.000 N 
ATOM      9  C   UNL     1       4.305   2.111  19.460  0.00  0.00    +0.000 C 
ATOM     10  C   UNL     1       4.133   0.604  19.458  0.00  0.00    +0.000 C 
ATOM     11  O   UNL     1       5.181   2.591  20.167  0.00  0.00    +0.000 OA
ATOM     12  C   UNL     1       2.141   2.301  18.229  0.00  0.00    +0.000 C 
ATOM     13  C   UNL     1       1.185   3.459  18.031  0.00  0.00    +0.000 C 
ENDROOT
BRANCH   1  14
ATOM     14  S   UNL     1       6.203   5.161  18.536  0.00  0.00    +0.000 S 
ATOM     15  O   UNL     1       6.621   3.900  17.985  0.00  0.00    +0.000 OA
ATOM     16  O   UNL     1       6.641   5.496  19.878  0.00  0.00    +0.000 OA
BRANCH  14  17
ATOM     17  N   UNL     1       6.775   6.483  17.558  0.00  0.00    +0.000 NA
BRANCH  17  18
ATOM     18  C   UNL     1       6.998   6.100  16.121  0.00  0.00    +0.000 C 
ATOM     19  C   UNL     1       5.737   5.781  15.328  0.00  0.00    +0.000 C 
ENDBRANCH  17  18
BRANCH  17  20
ATOM     20  C   UNL     1       7.935   7.198  18.195  0.00  0.00    +0.000 C 
BRANCH  20  21
ATOM     21  C   UNL     1       8.072   8.677  17.834  0.00  0.00    +0.000 C 
BRANCH  21  23
ATOM     22  C   UNL     1       9.135  10.896  18.237  0.00  0.00    +0.000 C 
ATOM     23  C   UNL     1       8.888   9.509  18.819  0.00  0.00    +0.000 C 
ENDBRANCH  21  23
ENDBRANCH  20  21
ENDBRANCH  17  20
ENDBRANCH  14  17
ENDBRANCH   1  14
TORSDOF 6
ENDMDL
MODEL 2
REMARK VINA RESULT:      -6.6      3.127      5.213
REMARK  Name = 
REMARK  9 active torsions:
REMARK  status: ('A' for Active; 'I' for Inactive)
REMARK    1  A    between atoms: C_1  and  C_2
REMARK    2  A    between atoms: C_2  and  C_3
REMARK    3  A    between atoms: C_3  and  C_4
REMARK    4  A    between atoms: C_4  and  N_5
REMARK    5  A    between atoms: N_5  and  C_6
REMARK    6  A    between atoms: N_5  and  S_8
REMARK    7  A    between atoms: C_6  and  C_7
REMARK    8  A    between atoms: S_8  and  C_11
REMARK    9  A    between atoms: C_19  and  C_20
REMARK                            x       y       z     vdW  Elec       q    Type
REMARK                         _______ _______ _______ _____ _____    ______ ____
ROOT
ATOM      1  C   UNL     1       3.870   5.730  17.958  0.00  0.00    +0.000 A 
ATOM      2  C   UNL     1       4.046   4.317  17.872  0.00  0.00    +0.000 A 
ATOM      3  C   UNL     1       3.355   3.423  18.696  0.00  0.00    +0.000 A 
ATOM      4 BR   UNL     1       3.656   1.564  18.539  0.00  0.00    +0.000 Br
ATOM      5  C   UNL     1       2.484   3.896  19.655  0.00  0.00    +0.000 A 
ATOM      6  C   UNL     1       2.294   5.270  19.735  0.00  0.00    +0.000 A 
ATOM      7  C   UNL     1       2.918   6.211  18.871  0.00  0.00    +0.000 A 
ATOM      8  N   UNL     1       2.342   7.483  19.177  0.00  0.00    +0.000 N 
ATOM      9  C   UNL     1       2.227   8.574  18.334  0.00  0.00    +0.000 C 
ATOM     10  C   UNL     1       1.638   9.843  18.919  0.00  0.00    +0.000 C 
ATOM     11  O   UNL     1       2.544   8.576  17.152  0.00  0.00    +0.000 OA
ATOM     12  C   UNL     1       1.546   7.369  20.412  0.00  0.00    +0.000 C 
ATOM     13  C   UNL     1       1.360   5.897  20.716  0.00  0.00    +0.000 C 
ENDROOT
BRANCH   1  14
ATOM     14  S   UNL     1       5.106   6.647  17.009  0.00  0.00    +0.000 S 
ATOM     15  O   UNL     1       5.427   7.887  17.661  0.00  0.00    +0.000 OA
ATOM     16  O   UNL     1       4.614   6.703  15.645  0.00  0.00    +0.000 OA
BRANCH  14  17
ATOM     17  N   UNL     1       6.505   5.615  16.915  0.00  0.00    +0.000 NA
BRANCH  17  18
ATOM     18  C   UNL     1       7.653   6.102  17.757  0.00  0.00    +0.000 C 
ATOM     19  C   UNL     1       7.612   5.682  19.221  0.00  0.00    +0.000 C 
ENDBRANCH  17  18
BRANCH  17  20
ATOM     20  C   UNL     1       6.875   5.289  15.495  0.00  0.00    +0.000 C 
BRANCH  20  21
ATOM     21  C   UNL     1       6.388   3.932  14.985  0.00  0.00    +0.000 C 
BRANCH  21  23
ATOM     22  C   UNL     1       6.314   3.499  12.531  0.00  0.00    +0.000 C 
ATOM     23  C   UNL     1       5.516   3.988  13.734  0.00  0.00    +0.000 C 
ENDBRANCH  21  23
ENDBRANCH  20  21
ENDBRANCH  17  20
ENDBRANCH  14  17
ENDBRANCH   1  14
TORSDOF 6
ENDMDL
MODEL 3
REMARK VINA RESULT:      -6.2      2.036      3.675
REMARK  Name = 
REMARK  9 active torsions:
REMARK  status: ('A' for Active; 'I' for Inactive)
REMARK    1  A    between atoms: C_1  and  C_2
REMARK    2  A    between atoms: C_2  and  C_3
REMARK    3  A    between atoms: C_3  and  C_4
REMARK    4  A    between atoms: C_4  and  N_5
REMARK    5  A    between atoms: N_5  and  C_6
REMARK    6  A    between atoms: N_5  and  S_8
REMARK    7  A    between atoms: C_6  and  C_7
REMARK    8  A    between atoms: S_8  and  C_11
REMARK    9  A    between atoms: C_19  and  C_20
REMARK                            x       y       z     vdW  Elec       q    Type
REMARK                         _______ _______ _______ _____ _____    ______ ____
ROOT
ATOM      1  C   UNL     1       3.804   6.231  17.829  0.00  0.00    +0.000 A 
ATOM      2  C   UNL     1       3.413   7.590  17.645  0.00  0.00    +0.000 A 
ATOM      3  C   UNL     1       2.461   8.213  18.458  0.00  0.00    +0.000 A 
ATOM      4 BR   UNL     1       1.976  10.012  18.141  0.00  0.00    +0.000 Br
ATOM      5  C   UNL     1       1.841   7.506  19.466  0.00  0.00    +0.000 A 
ATOM      6  C   UNL     1       2.228   6.186  19.663  0.00  0.00    +0.000 A 
ATOM      7  C   UNL     1       3.242   5.534  18.910  0.00  0.00    +0.000 A 
ATOM      8  N   UNL     1       3.443   4.258  19.524  0.00  0.00    +0.000 N 
ATOM      9  C   UNL     1       4.594   3.492  19.503  0.00  0.00    +0.000 C 
ATOM     10  C   UNL     1       4.534   2.133  20.173  0.00  0.00    +0.000 C 
ATOM     11  O   UNL     1       5.655   3.844  19.006  0.00  0.00    +0.000 OA
ATOM     12  C   UNL     1       2.367   4.018  20.502  0.00  0.00    +0.000 C 
ATOM     13  C   UNL     1       1.645   5.329  20.737  0.00  0.00    +0.000 C 
ENDROOT
BRANCH   1  14
ATOM     14  S   UNL     1       4.800   5.600  16.458  0.00  0.00    +0.000 S 
ATOM     15  O   UNL     1       4.771   6.513  15.349  0.00  0.00    +0.000 OA
ATOM     16  O   UNL     1       4.362   4.236  16.228  0.00  0.00    +0.000 OA
BRANCH  14  17
ATOM     17  N   UNL     1       6.419   5.429  17.076  0.00  0.00    +0.000 NA
BRANCH  17  18
ATOM     18  C   UNL     1       6.947   6.689  17.704  0.00  0.00    +0.000 C 
ATOM     19  C   UNL     1       8.007   6.487  18.780  0.00  0.00    +0.000 C 
ENDBRANCH  17  18
BRANCH  17  20
ATOM     20  C   UNL     1       7.347   4.804  16.071  0.00  0.00    +0.000 C 
BRANCH  20  21
ATOM     21  C   UNL     1       6.681   3.885  15.046  0.00  0.00    +0.000 C 
BRANCH  21  23
ATOM     22  C   UNL     1       5.863   3.551  12.715  0.00  0.00    +0.000 C 
ATOM     23  C   UNL     1       6.852   4.310  13.590  0.00  0.00    +0.000 C 
ENDBRANCH  21  23
ENDBRANCH  20  21
ENDBRANCH  17  20
ENDBRANCH  14  17
ENDBRANCH   1  14
TORSDOF 6
ENDMDL
MODEL 4
REMARK VINA RESULT:      -6.0      2.312      3.497
REMARK  Name = 
REMARK  9 active torsions:
REMARK  status: ('A' for Active; 'I' for Inactive)
REMARK    1  A    between atoms: C_1  and  C_2
REMARK    2  A    between atoms: C_2  and  C_3
REMARK    3  A    between atoms: C_3  and  C_4
REMARK    4  A    between atoms: C_4  and  N_5
REMARK    5  A    between atoms: N_5  and  C_6
REMARK    6  A    between atoms: N_5  and  S_8
REMARK    7  A    between atoms: C_6  and  C_7
REMARK    8  A    between atoms: S_8  and  C_11
REMARK    9  A    between atoms: C_19  and  C_20
REMARK                            x       y       z     vdW  Elec       q    Type
REMARK                         _______ _______ _______ _____ _____    ______ ____
ROOT
ATOM      1  C   UNL     1       3.278   5.556  18.814  0.00  0.00    +0.000 A 
ATOM      2  C   UNL     1       2.880   6.836  19.301  0.00  0.00    +0.000 A 
ATOM      3  C   UNL     1       1.897   6.993  20.283  0.00  0.00    +0.000 A 
ATOM      4 BR   UNL     1       1.406   8.723  20.865  0.00  0.00    +0.000 Br
ATOM      5  C   UNL     1       1.251   5.890  20.800  0.00  0.00    +0.000 A 
ATOM      6  C   UNL     1       1.644   4.638  20.343  0.00  0.00    +0.000 A 
ATOM      7  C   UNL     1       2.688   4.427  19.401  0.00  0.00    +0.000 A 
ATOM      8  N   UNL     1       2.881   3.012  19.324  0.00  0.00    +0.000 N 
ATOM      9  C   UNL     1       4.039   2.343  18.970  0.00  0.00    +0.000 C 
ATOM     10  C   UNL     1       3.970   0.830  18.893  0.00  0.00    +0.000 C 
ATOM     11  O   UNL     1       5.112   2.884  18.742  0.00  0.00    +0.000 OA
ATOM     12  C   UNL     1       1.777   2.334  20.026  0.00  0.00    +0.000 C 
ATOM     13  C   UNL     1       1.035   3.371  20.845  0.00  0.00    +0.000 C 
ENDROOT
BRANCH   1  14
ATOM     14  S   UNL     1       4.323   5.664  17.342  0.00  0.00    +0.000 S 
ATOM     15  O   UNL     1       4.317   7.001  16.814  0.00  0.00    +0.000 OA
ATOM     16  O   UNL     1       3.908   4.584  16.466  0.00  0.00    +0.000 OA
BRANCH  14  17
ATOM     17  N   UNL     1       5.924   5.207  17.852  0.00  0.00    +0.000 NA
BRANCH  17  18
ATOM     18  C   UNL     1       6.292   5.758  19.202  0.00  0.00    +0.000 C 
ATOM     19  C   UNL     1       7.764   5.637  19.577  0.00  0.00    +0.000 C 
ENDBRANCH  17  18
BRANCH  17  20
ATOM     20  C   UNL     1       6.951   5.453  16.783  0.00  0.00    +0.000 C 
BRANCH  20  21
ATOM     21  C   UNL     1       7.047   4.375  15.703  0.00  0.00    +0.000 C 
BRANCH  21  23
ATOM     22  C   UNL     1       6.209   3.771  13.434  0.00  0.00    +0.000 C 
ATOM     23  C   UNL     1       6.845   4.872  14.274  0.00  0.00    +0.000 C 
ENDBRANCH  21  23
ENDBRANCH  20  21
ENDBRANCH  17  20
ENDBRANCH  14  17
ENDBRANCH   1  14
TORSDOF 6
ENDMDL
MODEL 5
REMARK VINA RESULT:      -5.9      3.132      5.319
REMARK  Name = 
REMARK  9 active torsions:
REMARK  status: ('A' for Active; 'I' for Inactive)
REMARK    1  A    between atoms: C_1  and  C_2
REMARK    2  A    between atoms: C_2  and  C_3
REMARK    3  A    between atoms: C_3  and  C_4
REMARK    4  A    between atoms: C_4  and  N_5
REMARK    5  A    between atoms: N_5  and  C_6
REMARK    6  A    between atoms: N_5  and  S_8
REMARK    7  A    between atoms: C_6  and  C_7
REMARK    8  A    between atoms: S_8  and  C_11
REMARK    9  A    between atoms: C_19  and  C_20
REMARK                            x       y       z     vdW  Elec       q    Type
REMARK                         _______ _______ _______ _____ _____    ______ ____
ROOT
ATOM      1  C   UNL     1       3.417   5.989  18.653  0.00  0.00    +0.000 A 
ATOM      2  C   UNL     1       3.380   4.614  19.028  0.00  0.00    +0.000 A 
ATOM      3  C   UNL     1       2.566   4.139  20.061  0.00  0.00    +0.000 A 
ATOM      4 BR   UNL     1       2.585   2.304  20.515  0.00  0.00    +0.000 Br
ATOM      5  C   UNL     1       1.779   5.013  20.781  0.00  0.00    +0.000 A 
ATOM      6  C   UNL     1       1.797   6.352  20.413  0.00  0.00    +0.000 A 
ATOM      7  C   UNL     1       2.552   6.868  19.323  0.00  0.00    +0.000 A 
ATOM      8  N   UNL     1       2.173   8.240  19.184  0.00  0.00    +0.000 N 
ATOM      9  C   UNL     1       2.220   9.008  18.035  0.00  0.00    +0.000 C 
ATOM     10  C   UNL     1       1.829  10.468  18.161  0.00  0.00    +0.000 C 
ATOM     11  O   UNL     1       2.528   8.587  16.929  0.00  0.00    +0.000 OA
ATOM     12  C   UNL     1       1.375   8.642  20.355  0.00  0.00    +0.000 C 
ATOM     13  C   UNL     1       0.972   7.387  21.102  0.00  0.00    +0.000 C 
ENDROOT
BRANCH   1  14
ATOM     14  S   UNL     1       4.772   6.367  17.517  0.00  0.00    +0.000 S 
ATOM     15  O   UNL     1       5.295   7.682  17.773  0.00  0.00    +0.000 OA
ATOM     16  O   UNL     1       4.280   6.078  16.183  0.00  0.00    +0.000 OA
BRANCH  14  17
ATOM     17  N   UNL     1       5.988   5.153  17.795  0.00  0.00    +0.000 NA
BRANCH  17  18
ATOM     18  C   UNL     1       6.609   5.242  19.163  0.00  0.00    +0.000 C 
ATOM     19  C   UNL     1       7.980   5.904  19.215  0.00  0.00    +0.000 C 
ENDBRANCH  17  18
BRANCH  17  20
ATOM     20  C   UNL     1       6.982   5.078  16.669  0.00  0.00    +0.000 C 
BRANCH  20  21
ATOM     21  C   UNL     1       6.665   4.052  15.581  0.00  0.00    +0.000 C 
BRANCH  21  23
ATOM     22  C   UNL     1       5.943   3.694  13.221  0.00  0.00    +0.000 C 
ATOM     23  C   UNL     1       6.770   4.575  14.151  0.00  0.00    +0.000 C 
ENDBRANCH  21  23
ENDBRANCH  20  21
ENDBRANCH  17  20
ENDBRANCH  14  17
ENDBRANCH   1  14
TORSDOF 6
ENDMDL
MODEL 6
REMARK VINA RESULT:      -5.8      1.403      1.615
REMARK  Name = 
REMARK  9 active torsions:
REMARK  status: ('A' for Active; 'I' for Inactive)
REMARK    1  A    between atoms: C_1  and  C_2
REMARK    2  A    between atoms: C_2  and  C_3
REMARK    3  A    between atoms: C_3  and  C_4
REMARK    4  A    between atoms: C_4  and  N_5
REMARK    5  A    between atoms: N_5  and  C_6
REMARK    6  A    between atoms: N_5  and  S_8
REMARK    7  A    between atoms: C_6  and  C_7
REMARK    8  A    between atoms: S_8  and  C_11
REMARK    9  A    between atoms: C_19  and  C_20
REMARK                            x       y       z     vdW  Elec       q    Type
REMARK                         _______ _______ _______ _____ _____    ______ ____
ROOT
ATOM      1  C   UNL     1       4.004   5.198  18.424  0.00  0.00    +0.000 A 
ATOM      2  C   UNL     1       3.718   6.545  18.051  0.00  0.00    +0.000 A 
ATOM      3  C   UNL     1       2.585   7.226  18.508  0.00  0.00    +0.000 A 
ATOM      4 BR   UNL     1       2.261   9.004  17.955  0.00  0.00    +0.000 Br
ATOM      5  C   UNL     1       1.679   6.590  19.329  0.00  0.00    +0.000 A 
ATOM      6  C   UNL     1       1.957   5.283  19.710  0.00  0.00    +0.000 A 
ATOM      7  C   UNL     1       3.131   4.577  19.330  0.00  0.00    +0.000 A 
ATOM      8  N   UNL     1       3.110   3.342  20.051  0.00  0.00    +0.000 N 
ATOM      9  C   UNL     1       4.196   2.568  20.417  0.00  0.00    +0.000 C 
ATOM     10  C   UNL     1       3.907   1.256  21.120  0.00  0.00    +0.000 C 
ATOM     11  O   UNL     1       5.365   2.880  20.236  0.00  0.00    +0.000 OA
ATOM     12  C   UNL     1       1.788   3.173  20.681  0.00  0.00    +0.000 C 
ATOM     13  C   UNL     1       1.062   4.501  20.613  0.00  0.00    +0.000 C 
ENDROOT
BRANCH   1  14
ATOM     14  S   UNL     1       5.343   4.473  17.448  0.00  0.00    +0.000 S 
ATOM     15  O   UNL     1       4.874   3.326  16.720  0.00  0.00    +0.000 OA
ATOM     16  O   UNL     1       6.459   4.292  18.358  0.00  0.00    +0.000 OA
BRANCH  14  17
ATOM     17  N   UNL     1       5.878   5.721  16.360  0.00  0.00    +0.000 NA
BRANCH  17  18
ATOM     18  C   UNL     1       5.735   5.342  14.911  0.00  0.00    +0.000 C 
ATOM     19  C   UNL     1       6.960   4.689  14.283  0.00  0.00    +0.000 C 
ENDBRANCH  17  18
BRANCH  17  20
ATOM     20  C   UNL     1       7.236   6.251  16.728  0.00  0.00    +0.000 C 
BRANCH  20  21
ATOM     21  C   UNL     1       7.274   7.718  17.157  0.00  0.00    +0.000 C 
BRANCH  21  23
ATOM     22  C   UNL     1       8.523   9.541  18.313  0.00  0.00    +0.000 C 
ATOM     23  C   UNL     1       8.266   8.039  18.272  0.00  0.00    +0.000 C 
ENDBRANCH  21  23
ENDBRANCH  20  21
ENDBRANCH  17  20
ENDBRANCH  14  17
ENDBRANCH   1  14
TORSDOF 6
ENDMDL
MODEL 7
REMARK VINA RESULT:      -5.6      0.795      2.717
REMARK  Name = 
REMARK  9 active torsions:
REMARK  status: ('A' for Active; 'I' for Inactive)
REMARK    1  A    between atoms: C_1  and  C_2
REMARK    2  A    between atoms: C_2  and  C_3
REMARK    3  A    between atoms: C_3  and  C_4
REMARK    4  A    between atoms: C_4  and  N_5
REMARK    5  A    between atoms: N_5  and  C_6
REMARK    6  A    between atoms: N_5  and  S_8
REMARK    7  A    between atoms: C_6  and  C_7
REMARK    8  A    between atoms: S_8  and  C_11
REMARK    9  A    between atoms: C_19  and  C_20
REMARK                            x       y       z     vdW  Elec       q    Type
REMARK                         _______ _______ _______ _____ _____    ______ ____
ROOT
ATOM      1  C   UNL     1       4.516   5.340  18.523  0.00  0.00    +0.000 A 
ATOM      2  C   UNL     1       4.161   6.719  18.442  0.00  0.00    +0.000 A 
ATOM      3  C   UNL     1       2.856   7.145  18.177  0.00  0.00    +0.000 A 
ATOM      4 BR   UNL     1       2.464   8.990  18.064  0.00  0.00    +0.000 Br
ATOM      5  C   UNL     1       1.857   6.220  17.955  0.00  0.00    +0.000 A 
ATOM      6  C   UNL     1       2.190   4.874  18.048  0.00  0.00    +0.000 A 
ATOM      7  C   UNL     1       3.486   4.397  18.386  0.00  0.00    +0.000 A 
ATOM      8  N   UNL     1       3.369   2.979  18.530  0.00  0.00    +0.000 N 
ATOM      9  C   UNL     1       4.159   2.148  19.303  0.00  0.00    +0.000 C 
ATOM     10  C   UNL     1       3.877   0.659  19.232  0.00  0.00    +0.000 C 
ATOM     11  O   UNL     1       5.047   2.532  20.052  0.00  0.00    +0.000 OA
ATOM     12  C   UNL     1       2.053   2.549  18.024  0.00  0.00    +0.000 C 
ATOM     13  C   UNL     1       1.191   3.783  17.851  0.00  0.00    +0.000 C 
ENDROOT
BRANCH   1  14
ATOM     14  S   UNL     1       6.305   5.080  18.558  0.00  0.00    +0.000 S 
ATOM     15  O   UNL     1       6.629   3.737  18.161  0.00  0.00    +0.000 OA
ATOM     16  O   UNL     1       6.758   5.533  19.861  0.00  0.00    +0.000 OA
BRANCH  14  17
ATOM     17  N   UNL     1       6.983   6.235  17.447  0.00  0.00    +0.000 NA
BRANCH  17  18
ATOM     18  C   UNL     1       7.795   7.303  18.128  0.00  0.00    +0.000 C 
ATOM     19  C   UNL     1       7.685   8.695  17.516  0.00  0.00    +0.000 C 
ENDBRANCH  17  18
BRANCH  17  20
ATOM     20  C   UNL     1       5.959   6.760  16.479  0.00  0.00    +0.000 C 
BRANCH  20  21
ATOM     21  C   UNL     1       5.611   5.825  15.320  0.00  0.00    +0.000 C 
BRANCH  21  23
ATOM     22  C   UNL     1       6.233   3.938  13.815  0.00  0.00    +0.000 C 
ATOM     23  C   UNL     1       6.753   4.930  14.848  0.00  0.00    +0.000 C 
ENDBRANCH  21  23
ENDBRANCH  20  21
ENDBRANCH  17  20
ENDBRANCH  14  17
ENDBRANCH   1  14
TORSDOF 6
ENDMDL
MODEL 8
REMARK VINA RESULT:      -5.5      8.051      9.884
REMARK  Name = 
REMARK  9 active torsions:
REMARK  status: ('A' for Active; 'I' for Inactive)
REMARK    1  A    between atoms: C_1  and  C_2
REMARK    2  A    between atoms: C_2  and  C_3
REMARK    3  A    between atoms: C_3  and  C_4
REMARK    4  A    between atoms: C_4  and  N_5
REMARK    5  A    between atoms: N_5  and  C_6
REMARK    6  A    between atoms: N_5  and  S_8
REMARK    7  A    between atoms: C_6  and  C_7
REMARK    8  A    between atoms: S_8  and  C_11
REMARK    9  A    between atoms: C_19  and  C_20
REMARK                            x       y       z     vdW  Elec       q    Type
REMARK                         _______ _______ _______ _____ _____    ______ ____
ROOT
ATOM      1  C   UNL     1      -2.424  12.263  19.713  0.00  0.00    +0.000 A 
ATOM      2  C   UNL     1      -2.786  12.609  21.048  0.00  0.00    +0.000 A 
ATOM      3  C   UNL     1      -4.118  12.727  21.458  0.00  0.00    +0.000 A 
ATOM      4 BR   UNL     1      -4.523  13.211  23.239  0.00  0.00    +0.000 Br
ATOM      5  C   UNL     1      -5.141  12.532  20.554  0.00  0.00    +0.000 A 
ATOM      6  C   UNL     1      -4.797  12.178  19.254  0.00  0.00    +0.000 A 
ATOM      7  C   UNL     1      -3.461  11.976  18.812  0.00  0.00    +0.000 A 
ATOM      8  N   UNL     1      -3.550  11.474  17.476  0.00  0.00    +0.000 N 
ATOM      9  C   UNL     1      -2.628  10.680  16.818  0.00  0.00    +0.000 C 
ATOM     10  C   UNL     1      -2.920  10.336  15.370  0.00  0.00    +0.000 C 
ATOM     11  O   UNL     1      -1.615  10.222  17.327  0.00  0.00    +0.000 OA
ATOM     12  C   UNL     1      -4.938  11.611  17.000  0.00  0.00    +0.000 C 
ATOM     13  C   UNL     1      -5.816  11.919  18.195  0.00  0.00    +0.000 C 
ENDROOT
BRANCH   1  14
ATOM     14  S   UNL     1      -0.660  12.492  19.387  0.00  0.00    +0.000 S 
ATOM     15  O   UNL     1      -0.093  13.437  20.310  0.00  0.00    +0.000 OA
ATOM     16  O   UNL     1      -0.539  12.769  17.968  0.00  0.00    +0.000 OA
BRANCH  14  17
ATOM     17  N   UNL     1       0.074  10.925  19.578  0.00  0.00    +0.000 NA
BRANCH  17  18
ATOM     18  C   UNL     1       0.169  10.489  21.015  0.00  0.00    +0.000 C 
ATOM     19  C   UNL     1      -0.297   9.066  21.297  0.00  0.00    +0.000 C 
ENDBRANCH  17  18
BRANCH  17  20
ATOM     20  C   UNL     1       1.361  10.803  18.810  0.00  0.00    +0.000 C 
BRANCH  20  21
ATOM     21  C   UNL     1       1.485   9.560  17.929  0.00  0.00    +0.000 C 
BRANCH  21  23
ATOM     22  C   UNL     1       3.141   7.707  17.724  0.00  0.00    +0.000 C 
ATOM     23  C   UNL     1       2.081   8.336  18.620  0.00  0.00    +0.000 C 
ENDBRANCH  21  23
ENDBRANCH  20  21
ENDBRANCH  17  20
ENDBRANCH  14  17
ENDBRANCH   1  14
TORSDOF 6
ENDMDL
MODEL 9
REMARK VINA RESULT:      -5.4      8.714     10.614
REMARK  Name = 
REMARK  9 active torsions:
REMARK  status: ('A' for Active; 'I' for Inactive)
REMARK    1  A    between atoms: C_1  and  C_2
REMARK    2  A    between atoms: C_2  and  C_3
REMARK    3  A    between atoms: C_3  and  C_4
REMARK    4  A    between atoms: C_4  and  N_5
REMARK    5  A    between atoms: N_5  and  C_6
REMARK    6  A    between atoms: N_5  and  S_8
REMARK    7  A    between atoms: C_6  and  C_7
REMARK    8  A    between atoms: S_8  and  C_11
REMARK    9  A    between atoms: C_19  and  C_20
REMARK                            x       y       z     vdW  Elec       q    Type
REMARK                         _______ _______ _______ _____ _____    ______ ____
ROOT
ATOM      1  C   UNL     1      -2.780  12.088  19.418  0.00  0.00    +0.000 A 
ATOM      2  C   UNL     1      -3.246  12.478  20.708  0.00  0.00    +0.000 A 
ATOM      3  C   UNL     1      -4.598  12.703  20.982  0.00  0.00    +0.000 A 
ATOM      4 BR   UNL     1      -5.139  13.238  22.712  0.00  0.00    +0.000 Br
ATOM      5  C   UNL     1      -5.539  12.575  19.981  0.00  0.00    +0.000 A 
ATOM      6  C   UNL     1      -5.096  12.179  18.725  0.00  0.00    +0.000 A 
ATOM      7  C   UNL     1      -3.742  11.870  18.420  0.00  0.00    +0.000 A 
ATOM      8  N   UNL     1      -3.736  11.359  17.084  0.00  0.00    +0.000 N 
ATOM      9  C   UNL     1      -2.818  10.489  16.525  0.00  0.00    +0.000 C 
ATOM     10  C   UNL     1      -2.990  10.150  15.057  0.00  0.00    +0.000 C 
ATOM     11  O   UNL     1      -1.899   9.961  17.135  0.00  0.00    +0.000 OA
ATOM     12  C   UNL     1      -5.055  11.596  16.470  0.00  0.00    +0.000 C 
ATOM     13  C   UNL     1      -6.022  11.985  17.570  0.00  0.00    +0.000 C 
ENDROOT
BRANCH   1  14
ATOM     14  S   UNL     1      -0.980  12.178  19.268  0.00  0.00    +0.000 S 
ATOM     15  O   UNL     1      -0.605  13.030  18.173  0.00  0.00    +0.000 OA
ATOM     16  O   UNL     1      -0.502  10.808  19.260  0.00  0.00    +0.000 OA
BRANCH  14  17
ATOM     17  N   UNL     1      -0.402  12.821  20.779  0.00  0.00    +0.000 NA
BRANCH  17  18
ATOM     18  C   UNL     1       0.412  14.075  20.613  0.00  0.00    +0.000 C 
ATOM     19  C   UNL     1       0.958  14.675  21.903  0.00  0.00    +0.000 C 
ENDBRANCH  17  18
BRANCH  17  20
ATOM     20  C   UNL     1       0.252  11.769  21.631  0.00  0.00    +0.000 C 
BRANCH  20  21
ATOM     21  C   UNL     1      -0.659  11.095  22.657  0.00  0.00    +0.000 C 
BRANCH  21  23
ATOM     22  C   UNL     1      -0.405   8.706  21.990  0.00  0.00    +0.000 C 
ATOM     23  C   UNL     1      -0.203   9.713  23.116  0.00  0.00    +0.000 C 
ENDBRANCH  21  23
ENDBRANCH  20  21
ENDBRANCH  17  20
ENDBRANCH  14  17
ENDBRANCH   1  14
TORSDOF 6
ENDMDL
