MODEL 1
REMARK VINA RESULT:      -6.7      0.000      0.000
REMARK  Name = 
REMARK  4 active torsions:
REMARK  status: ('A' for Active; 'I' for Inactive)
REMARK    1  A    between atoms: C_1  and  C_2
REMARK    2  A    between atoms: C_2  and  C_3
REMARK    3  A    between atoms: C_4  and  C_5
REMARK    4  A    between atoms: N_7  and  C_8
REMARK                            x       y       z     vdW  Elec       q    Type
REMARK                         _______ _______ _______ _____ _____    ______ ____
ROOT
ATOM      1  C   UNL     1       5.560   4.530  18.064  0.00  0.00    +0.000 A 
ATOM      2  C   UNL     1       6.508   5.577  18.112  0.00  0.00    +0.000 A 
ATOM      3  C   UNL     1       7.224   5.977  16.983  0.00  0.00    +0.000 A 
ATOM      4  C   UNL     1       6.985   5.300  15.817  0.00  0.00    +0.000 A 
ATOM      5  C   UNL     1       6.109   4.240  15.763  0.00  0.00    +0.000 A 
ATOM      6  C   UNL     1       5.399   3.812  16.873  0.00  0.00    +0.000 A 
ATOM      7  O   UNL     1       6.018   3.723  14.506  0.00  0.00    +0.000 OA
ATOM      8  C   UNL     1       6.869   4.633  13.775  0.00  0.00    +0.000 C 
ATOM      9  O   UNL     1       7.547   5.586  14.615  0.00  0.00    +0.000 OA
ENDROOT
BRANCH   1  12
ATOM     10  C   UNL     1       3.456   4.718  19.339  0.00  0.00    +0.000 C 
ATOM     11  O   UNL     1       2.884   5.490  18.573  0.00  0.00    +0.000 OA
ATOM     12  N   UNL     1       4.735   4.213  19.176  0.00  0.00    +0.000 N 
ATOM     13  H   UNL     1       5.029   3.454  19.775  0.00  0.00    +0.000 HD
BRANCH  10  17
ATOM     14  C   UNL     1       1.184   2.701  21.729  0.00  0.00    +0.000 C 
ATOM     15  C   UNL     1       1.989   3.101  20.526  0.00  0.00    +0.000 C 
ATOM     16  C   UNL     1       1.882   2.186  19.329  0.00  0.00    +0.000 C 
ATOM     17  C   UNL     1       2.746   4.221  20.549  0.00  0.00    +0.000 C 
ENDBRANCH  10  17
ENDBRANCH   1  12
TORSDOF 2
ENDMDL
MODEL 2
REMARK VINA RESULT:      -6.6      0.846      1.206
REMARK  Name = 
REMARK  4 active torsions:
REMARK  status: ('A' for Active; 'I' for Inactive)
REMARK    1  A    between atoms: C_1  and  C_2
REMARK    2  A    between atoms: C_2  and  C_3
REMARK    3  A    between atoms: C_4  and  C_5
REMARK    4  A    between atoms: N_7  and  C_8
REMARK                            x       y       z     vdW  Elec       q    Type
REMARK                         _______ _______ _______ _____ _____    ______ ____
ROOT
ATOM      1  C   UNL     1       5.425   3.909  17.538  0.00  0.00    +0.000 A 
ATOM      2  C   UNL     1       6.305   4.963  17.873  0.00  0.00    +0.000 A 
ATOM      3  C   UNL     1       7.114   5.581  16.920  0.00  0.00    +0.000 A 
ATOM      4  C   UNL     1       7.036   5.115  15.635  0.00  0.00    +0.000 A 
ATOM      5  C   UNL     1       6.229   4.052  15.299  0.00  0.00    +0.000 A 
ATOM      6  C   UNL     1       5.429   3.410  16.231  0.00  0.00    +0.000 A 
ATOM      7  O   UNL     1       6.299   3.764  13.970  0.00  0.00    +0.000 OA
ATOM      8  C   UNL     1       7.173   4.817  13.509  0.00  0.00    +0.000 C 
ATOM      9  O   UNL     1       7.707   5.628  14.572  0.00  0.00    +0.000 OA
ENDROOT
BRANCH   1  12
ATOM     10  C   UNL     1       3.132   3.509  18.357  0.00  0.00    +0.000 C 
ATOM     11  O   UNL     1       2.544   4.100  17.455  0.00  0.00    +0.000 OA
ATOM     12  N   UNL     1       4.504   3.372  18.478  0.00  0.00    +0.000 N 
ATOM     13  H   UNL     1       4.862   2.718  19.160  0.00  0.00    +0.000 HD
BRANCH  10  17
ATOM     14  C   UNL     1       1.297   2.716  21.665  0.00  0.00    +0.000 C 
ATOM     15  C   UNL     1       1.973   3.468  20.556  0.00  0.00    +0.000 C 
ATOM     16  C   UNL     1       2.199   4.941  20.799  0.00  0.00    +0.000 C 
ATOM     17  C   UNL     1       2.348   2.829  19.424  0.00  0.00    +0.000 C 
ENDBRANCH  10  17
ENDBRANCH   1  12
TORSDOF 2
ENDMDL
MODEL 3
REMARK VINA RESULT:      -6.5      1.148      1.148
REMARK  Name = 
REMARK  4 active torsions:
REMARK  status: ('A' for Active; 'I' for Inactive)
REMARK    1  A    between atoms: C_1  and  C_2
REMARK    2  A    between atoms: C_2  and  C_3
REMARK    3  A    between atoms: C_4  and  C_5
REMARK    4  A    between atoms: N_7  and  C_8
REMARK                            x       y       z     vdW  Elec       q    Type
REMARK                         _______ _______ _______ _____ _____    ______ ____
ROOT
ATOM      1  C   UNL     1       5.195   4.665  17.497  0.00  0.00    +0.000 A 
ATOM      2  C   UNL     1       6.226   5.619  17.659  0.00  0.00    +0.000 A 
ATOM      3  C   UNL     1       7.122   5.919  16.633  0.00  0.00    +0.000 A 
ATOM      4  C   UNL     1       6.976   5.238  15.454  0.00  0.00    +0.000 A 
ATOM      5  C   UNL     1       6.016   4.265  15.296  0.00  0.00    +0.000 A 
ATOM      6  C   UNL     1       5.125   3.936  16.304  0.00  0.00    +0.000 A 
ATOM      7  O   UNL     1       6.043   3.727  14.045  0.00  0.00    +0.000 OA
ATOM      8  C   UNL     1       7.070   4.532  13.424  0.00  0.00    +0.000 C 
ATOM      9  O   UNL     1       7.720   5.437  14.336  0.00  0.00    +0.000 OA
ENDROOT
BRANCH   1  12
ATOM     10  C   UNL     1       4.333   3.532  19.512  0.00  0.00    +0.000 C 
ATOM     11  O   UNL     1       5.293   2.785  19.687  0.00  0.00    +0.000 OA
ATOM     12  N   UNL     1       4.201   4.457  18.491  0.00  0.00    +0.000 N 
ATOM     13  H   UNL     1       3.453   5.133  18.551  0.00  0.00    +0.000 HD
BRANCH  10  17
ATOM     14  C   UNL     1       0.885   2.932  21.152  0.00  0.00    +0.000 C 
ATOM     15  C   UNL     1       2.057   2.827  20.220  0.00  0.00    +0.000 C 
ATOM     16  C   UNL     1       1.864   1.936  19.015  0.00  0.00    +0.000 C 
ATOM     17  C   UNL     1       3.197   3.508  20.474  0.00  0.00    +0.000 C 
ENDBRANCH  10  17
ENDBRANCH   1  12
TORSDOF 2
ENDMDL
MODEL 4
REMARK VINA RESULT:      -6.5      2.139      6.475
REMARK  Name = 
REMARK  4 active torsions:
REMARK  status: ('A' for Active; 'I' for Inactive)
REMARK    1  A    between atoms: C_1  and  C_2
REMARK    2  A    between atoms: C_2  and  C_3
REMARK    3  A    between atoms: C_4  and  C_5
REMARK    4  A    between atoms: N_7  and  C_8
REMARK                            x       y       z     vdW  Elec       q    Type
REMARK                         _______ _______ _______ _____ _____    ______ ____
ROOT
ATOM      1  C   UNL     1       3.565   5.194  18.650  0.00  0.00    +0.000 A 
ATOM      2  C   UNL     1       2.484   4.833  17.814  0.00  0.00    +0.000 A 
ATOM      3  C   UNL     1       1.478   3.966  18.240  0.00  0.00    +0.000 A 
ATOM      4  C   UNL     1       1.583   3.459  19.508  0.00  0.00    +0.000 A 
ATOM      5  C   UNL     1       2.657   3.752  20.316  0.00  0.00    +0.000 A 
ATOM      6  C   UNL     1       3.678   4.595  19.910  0.00  0.00    +0.000 A 
ATOM      7  O   UNL     1       2.552   3.150  21.534  0.00  0.00    +0.000 OA
ATOM      8  C   UNL     1       1.257   2.522  21.417  0.00  0.00    +0.000 C 
ATOM      9  O   UNL     1       0.674   2.648  20.106  0.00  0.00    +0.000 OA
ENDROOT
BRANCH   1  12
ATOM     10  C   UNL     1       5.552   5.927  17.385  0.00  0.00    +0.000 C 
ATOM     11  O   UNL     1       5.788   4.853  16.838  0.00  0.00    +0.000 OA
ATOM     12  N   UNL     1       4.515   6.178  18.267  0.00  0.00    +0.000 N 
ATOM     13  H   UNL     1       4.317   7.138  18.512  0.00  0.00    +0.000 HD
BRANCH  10  17
ATOM     14  C   UNL     1       8.268   8.673  17.554  0.00  0.00    +0.000 C 
ATOM     15  C   UNL     1       7.507   7.403  17.806  0.00  0.00    +0.000 C 
ATOM     16  C   UNL     1       8.052   6.513  18.899  0.00  0.00    +0.000 C 
ATOM     17  C   UNL     1       6.404   7.110  17.082  0.00  0.00    +0.000 C 
ENDBRANCH  10  17
ENDBRANCH   1  12
TORSDOF 2
ENDMDL
MODEL 5
REMARK VINA RESULT:      -6.5      1.858      6.235
REMARK  Name = 
REMARK  4 active torsions:
REMARK  status: ('A' for Active; 'I' for Inactive)
REMARK    1  A    between atoms: C_1  and  C_2
REMARK    2  A    between atoms: C_2  and  C_3
REMARK    3  A    between atoms: C_4  and  C_5
REMARK    4  A    between atoms: N_7  and  C_8
REMARK                            x       y       z     vdW  Elec       q    Type
REMARK                         _______ _______ _______ _____ _____    ______ ____
ROOT
ATOM      1  C   UNL     1       4.883   4.067  17.011  0.00  0.00    +0.000 A 
ATOM      2  C   UNL     1       5.500   4.665  18.133  0.00  0.00    +0.000 A 
ATOM      3  C   UNL     1       4.808   4.892  19.323  0.00  0.00    +0.000 A 
ATOM      4  C   UNL     1       3.490   4.524  19.361  0.00  0.00    +0.000 A 
ATOM      5  C   UNL     1       2.856   3.994  18.261  0.00  0.00    +0.000 A 
ATOM      6  C   UNL     1       3.515   3.775  17.063  0.00  0.00    +0.000 A 
ATOM      7  O   UNL     1       1.554   3.692  18.525  0.00  0.00    +0.000 OA
ATOM      8  C   UNL     1       1.479   4.017  19.931  0.00  0.00    +0.000 C 
ATOM      9  O   UNL     1       2.680   4.619  20.446  0.00  0.00    +0.000 OA
ENDROOT
BRANCH   1  12
ATOM     10  C   UNL     1       5.914   4.611  14.836  0.00  0.00    +0.000 C 
ATOM     11  O   UNL     1       5.583   5.794  14.803  0.00  0.00    +0.000 OA
ATOM     12  N   UNL     1       5.619   3.714  15.849  0.00  0.00    +0.000 N 
ATOM     13  H   UNL     1       6.092   2.821  15.849  0.00  0.00    +0.000 HD
BRANCH  10  17
ATOM     14  C   UNL     1       7.033   2.829  11.594  0.00  0.00    +0.000 C 
ATOM     15  C   UNL     1       6.178   3.505  12.626  0.00  0.00    +0.000 C 
ATOM     16  C   UNL     1       4.694   3.524  12.343  0.00  0.00    +0.000 C 
ATOM     17  C   UNL     1       6.737   4.046  13.732  0.00  0.00    +0.000 C 
ENDBRANCH  10  17
ENDBRANCH   1  12
TORSDOF 2
ENDMDL
MODEL 6
REMARK VINA RESULT:      -6.4      1.307      1.573
REMARK  Name = 
REMARK  4 active torsions:
REMARK  status: ('A' for Active; 'I' for Inactive)
REMARK    1  A    between atoms: C_1  and  C_2
REMARK    2  A    between atoms: C_2  and  C_3
REMARK    3  A    between atoms: C_4  and  C_5
REMARK    4  A    between atoms: N_7  and  C_8
REMARK                            x       y       z     vdW  Elec       q    Type
REMARK                         _______ _______ _______ _____ _____    ______ ____
ROOT
ATOM      1  C   UNL     1       5.065   4.011  17.118  0.00  0.00    +0.000 A 
ATOM      2  C   UNL     1       5.915   5.050  17.560  0.00  0.00    +0.000 A 
ATOM      3  C   UNL     1       6.866   5.633  16.723  0.00  0.00    +0.000 A 
ATOM      4  C   UNL     1       6.959   5.147  15.446  0.00  0.00    +0.000 A 
ATOM      5  C   UNL     1       6.182   4.097  15.014  0.00  0.00    +0.000 A 
ATOM      6  C   UNL     1       5.243   3.489  15.831  0.00  0.00    +0.000 A 
ATOM      7  O   UNL     1       6.432   3.785  13.712  0.00  0.00    +0.000 OA
ATOM      8  C   UNL     1       7.389   4.810  13.365  0.00  0.00    +0.000 C 
ATOM      9  O   UNL     1       7.786   5.627  14.483  0.00  0.00    +0.000 OA
ENDROOT
BRANCH   1  12
ATOM     10  C   UNL     1       4.208   2.970  19.184  0.00  0.00    +0.000 C 
ATOM     11  O   UNL     1       5.289   2.849  19.753  0.00  0.00    +0.000 OA
ATOM     12  N   UNL     1       4.009   3.510  17.925  0.00  0.00    +0.000 N 
ATOM     13  H   UNL     1       3.063   3.718  17.637  0.00  0.00    +0.000 HD
BRANCH  10  17
ATOM     14  C   UNL     1       1.042   2.924  21.403  0.00  0.00    +0.000 C 
ATOM     15  C   UNL     1       2.221   3.412  20.612  0.00  0.00    +0.000 C 
ATOM     16  C   UNL     1       2.510   4.893  20.704  0.00  0.00    +0.000 C 
ATOM     17  C   UNL     1       2.960   2.549  19.879  0.00  0.00    +0.000 C 
ENDBRANCH  10  17
ENDBRANCH   1  12
TORSDOF 2
ENDMDL
MODEL 7
REMARK VINA RESULT:      -6.4      2.029      6.464
REMARK  Name = 
REMARK  4 active torsions:
REMARK  status: ('A' for Active; 'I' for Inactive)
REMARK    1  A    between atoms: C_1  and  C_2
REMARK    2  A    between atoms: C_2  and  C_3
REMARK    3  A    between atoms: C_4  and  C_5
REMARK    4  A    between atoms: N_7  and  C_8
REMARK                            x       y       z     vdW  Elec       q    Type
REMARK                         _______ _______ _______ _____ _____    ______ ____
ROOT
ATOM      1  C   UNL     1       3.981   3.303  17.856  0.00  0.00    +0.000 A 
ATOM      2  C   UNL     1       2.648   3.170  17.404  0.00  0.00    +0.000 A 
ATOM      3  C   UNL     1       1.595   2.905  18.279  0.00  0.00    +0.000 A 
ATOM      4  C   UNL     1       1.903   2.760  19.606  0.00  0.00    +0.000 A 
ATOM      5  C   UNL     1       3.201   2.828  20.057  0.00  0.00    +0.000 A 
ATOM      6  C   UNL     1       4.266   3.072  19.207  0.00  0.00    +0.000 A 
ATOM      7  O   UNL     1       3.275   2.666  21.408  0.00  0.00    +0.000 OA
ATOM      8  C   UNL     1       1.874   2.574  21.749  0.00  0.00    +0.000 C 
ATOM      9  O   UNL     1       1.004   2.553  20.602  0.00  0.00    +0.000 OA
ENDROOT
BRANCH   1  12
ATOM     10  C   UNL     1       5.164   4.998  16.509  0.00  0.00    +0.000 C 
ATOM     11  O   UNL     1       4.412   5.937  16.754  0.00  0.00    +0.000 OA
ATOM     12  N   UNL     1       5.031   3.705  16.989  0.00  0.00    +0.000 N 
ATOM     13  H   UNL     1       5.803   3.066  16.862  0.00  0.00    +0.000 HD
BRANCH  10  17
ATOM     14  C   UNL     1       7.701   4.885  13.595  0.00  0.00    +0.000 C 
ATOM     15  C   UNL     1       6.429   4.757  14.383  0.00  0.00    +0.000 C 
ATOM     16  C   UNL     1       5.275   4.092  13.671  0.00  0.00    +0.000 C 
ATOM     17  C   UNL     1       6.362   5.217  15.653  0.00  0.00    +0.000 C 
ENDBRANCH  10  17
ENDBRANCH   1  12
TORSDOF 2
ENDMDL
MODEL 8
REMARK VINA RESULT:      -6.2      1.456      1.520
REMARK  Name = 
REMARK  4 active torsions:
REMARK  status: ('A' for Active; 'I' for Inactive)
REMARK    1  A    between atoms: C_1  and  C_2
REMARK    2  A    between atoms: C_2  and  C_3
REMARK    3  A    between atoms: C_4  and  C_5
REMARK    4  A    between atoms: N_7  and  C_8
REMARK                            x       y       z     vdW  Elec       q    Type
REMARK                         _______ _______ _______ _____ _____    ______ ____
ROOT
ATOM      1  C   UNL     1       4.165   5.028  17.734  0.00  0.00    +0.000 A 
ATOM      2  C   UNL     1       4.315   6.362  17.292  0.00  0.00    +0.000 A 
ATOM      3  C   UNL     1       5.045   6.683  16.148  0.00  0.00    +0.000 A 
ATOM      4  C   UNL     1       5.631   5.650  15.467  0.00  0.00    +0.000 A 
ATOM      5  C   UNL     1       5.545   4.351  15.913  0.00  0.00    +0.000 A 
ATOM      6  C   UNL     1       4.841   4.008  17.056  0.00  0.00    +0.000 A 
ATOM      7  O   UNL     1       6.190   3.487  15.081  0.00  0.00    +0.000 OA
ATOM      8  C   UNL     1       6.612   4.385  14.031  0.00  0.00    +0.000 C 
ATOM      9  O   UNL     1       6.330   5.768  14.310  0.00  0.00    +0.000 OA
ENDROOT
BRANCH   1  12
ATOM     10  C   UNL     1       2.057   4.128  18.648  0.00  0.00    +0.000 C 
ATOM     11  O   UNL     1       1.526   3.865  17.572  0.00  0.00    +0.000 OA
ATOM     12  N   UNL     1       3.312   4.688  18.818  0.00  0.00    +0.000 N 
ATOM     13  H   UNL     1       3.712   4.694  19.746  0.00  0.00    +0.000 HD
BRANCH  10  17
ATOM     14  C   UNL     1       1.100   2.590  22.063  0.00  0.00    +0.000 C 
ATOM     15  C   UNL     1       1.895   2.998  20.856  0.00  0.00    +0.000 C 
ATOM     16  C   UNL     1       3.301   2.451  20.776  0.00  0.00    +0.000 C 
ATOM     17  C   UNL     1       1.349   3.804  19.917  0.00  0.00    +0.000 C 
ENDBRANCH  10  17
ENDBRANCH   1  12
TORSDOF 2
ENDMDL
MODEL 9
REMARK VINA RESULT:      -6.2      1.962      6.231
REMARK  Name = 
REMARK  4 active torsions:
REMARK  status: ('A' for Active; 'I' for Inactive)
REMARK    1  A    between atoms: C_1  and  C_2
REMARK    2  A    between atoms: C_2  and  C_3
REMARK    3  A    between atoms: C_4  and  C_5
REMARK    4  A    between atoms: N_7  and  C_8
REMARK                            x       y       z     vdW  Elec       q    Type
REMARK                         _______ _______ _______ _____ _____    ______ ____
ROOT
ATOM      1  C   UNL     1       3.757   5.263  17.544  0.00  0.00    +0.000 A 
ATOM      2  C   UNL     1       3.578   6.070  18.691  0.00  0.00    +0.000 A 
ATOM      3  C   UNL     1       2.689   5.723  19.707  0.00  0.00    +0.000 A 
ATOM      4  C   UNL     1       1.974   4.566  19.547  0.00  0.00    +0.000 A 
ATOM      5  C   UNL     1       2.090   3.797  18.412  0.00  0.00    +0.000 A 
ATOM      6  C   UNL     1       2.953   4.129  17.380  0.00  0.00    +0.000 A 
ATOM      7  O   UNL     1       1.298   2.690  18.468  0.00  0.00    +0.000 OA
ATOM      8  C   UNL     1       0.744   2.819  19.796  0.00  0.00    +0.000 C 
ATOM      9  O   UNL     1       1.107   4.048  20.453  0.00  0.00    +0.000 OA
ENDROOT
BRANCH   1  12
ATOM     10  C   UNL     1       6.038   5.022  16.637  0.00  0.00    +0.000 C 
ATOM     11  O   UNL     1       6.470   4.275  17.511  0.00  0.00    +0.000 OA
ATOM     12  N   UNL     1       4.757   5.545  16.576  0.00  0.00    +0.000 N 
ATOM     13  H   UNL     1       4.466   6.001  15.723  0.00  0.00    +0.000 HD
BRANCH  10  17
ATOM     14  C   UNL     1       7.793   5.138  13.194  0.00  0.00    +0.000 C 
ATOM     15  C   UNL     1       6.809   4.819  14.282  0.00  0.00    +0.000 C 
ATOM     16  C   UNL     1       5.732   3.821  13.925  0.00  0.00    +0.000 C 
ATOM     17  C   UNL     1       6.915   5.405  15.496  0.00  0.00    +0.000 C 
ENDBRANCH  10  17
ENDBRANCH   1  12
TORSDOF 2
ENDMDL
