MODEL 1
REMARK VINA RESULT:      -8.6      0.000      0.000
REMARK  Name = 
REMARK  6 active torsions:
REMARK  status: ('A' for Active; 'I' for Inactive)
REMARK    1  A    between atoms: C_1  and  C_2
REMARK    2  A    between atoms: C_2  and  C_3
REMARK    3  A    between atoms: C_4  and  C_5
REMARK    4  A    between atoms: C_5  and  C_6
REMARK    5  A    between atoms: C_7  and  O_8
REMARK    6  A    between atoms: C_10  and  O_11
REMARK                            x       y       z     vdW  Elec       q    Type
REMARK                         _______ _______ _______ _____ _____    ______ ____
ROOT
ATOM      1  C   UNL     1       5.793   4.574  15.399  0.00  0.00    +0.000 A 
ATOM      2  C   UNL     1       7.084   5.121  15.468  0.00  0.00    +0.000 A 
ATOM      3  C   UNL     1       7.731   5.295  16.689  0.00  0.00    +0.000 A 
ATOM      4  C   UNL     1       7.096   4.932  17.871  0.00  0.00    +0.000 A 
ATOM      5  C   UNL     1       5.795   4.417  17.845  0.00  0.00    +0.000 A 
ATOM      6  C   UNL     1       5.083   4.020  19.081  0.00  0.00    +0.000 A 
ATOM      7  O   UNL     1       5.574   4.078  20.200  0.00  0.00    +0.000 OA
ATOM      8  C   UNL     1       3.712   3.527  18.932  0.00  0.00    +0.000 A 
ATOM      9  C   UNL     1       2.969   3.152  20.060  0.00  0.00    +0.000 A 
ATOM     10  C   UNL     1       1.663   2.695  19.910  0.00  0.00    +0.000 A 
ATOM     11  C   UNL     1       1.102   2.614  18.635  0.00  0.00    +0.000 A 
ATOM     12  C   UNL     1       1.851   2.985  17.514  0.00  0.00    +0.000 A 
ATOM     13  C   UNL     1       3.166   3.439  17.659  0.00  0.00    +0.000 A 
ATOM     14  O   UNL     1       3.847   3.768  16.514  0.00  0.00    +0.000 OA
ATOM     15  C   UNL     1       5.139   4.250  16.615  0.00  0.00    +0.000 A 
ENDROOT
BRANCH   2  16
ATOM     16  O   UNL     1       7.806   5.514  14.377  0.00  0.00    +0.000 OA
ATOM     17  H   UNL     1       7.936   6.475  14.374  0.00  0.00    +0.000 HD
ENDBRANCH   2  16
BRANCH   4  18
ATOM     18  O   UNL     1       7.768   5.095  19.049  0.00  0.00    +0.000 OA
ATOM     19  H   UNL     1       7.851   4.247  19.511  0.00  0.00    +0.000 HD
ENDBRANCH   4  18
BRANCH   1  20
ATOM     20  C   UNL     1       5.111   4.327  14.071  0.00  0.00    +0.000 C 
BRANCH  20  24
ATOM     21  C   UNL     1       6.307   1.914  11.241  0.00  0.00    +0.000 C 
ATOM     22  C   UNL     1       5.451   2.885  12.007  0.00  0.00    +0.000 C 
ATOM     23  C   UNL     1       4.162   3.317  11.367  0.00  0.00    +0.000 C 
ATOM     24  C   UNL     1       5.852   3.337  13.212  0.00  0.00    +0.000 C 
ENDBRANCH  20  24
ENDBRANCH   1  20
TORSDOF 4
ENDMDL
MODEL 2
REMARK VINA RESULT:      -7.8      0.955      1.225
REMARK  Name = 
REMARK  6 active torsions:
REMARK  status: ('A' for Active; 'I' for Inactive)
REMARK    1  A    between atoms: C_1  and  C_2
REMARK    2  A    between atoms: C_2  and  C_3
REMARK    3  A    between atoms: C_4  and  C_5
REMARK    4  A    between atoms: C_5  and  C_6
REMARK    5  A    between atoms: C_7  and  O_8
REMARK    6  A    between atoms: C_10  and  O_11
REMARK                            x       y       z     vdW  Elec       q    Type
REMARK                         _______ _______ _______ _____ _____    ______ ____
ROOT
ATOM      1  C   UNL     1       6.142   4.236  15.266  0.00  0.00    +0.000 A 
ATOM      2  C   UNL     1       7.120   5.237  15.153  0.00  0.00    +0.000 A 
ATOM      3  C   UNL     1       7.362   6.131  16.192  0.00  0.00    +0.000 A 
ATOM      4  C   UNL     1       6.624   6.050  17.368  0.00  0.00    +0.000 A 
ATOM      5  C   UNL     1       5.616   5.089  17.503  0.00  0.00    +0.000 A 
ATOM      6  C   UNL     1       4.805   4.969  18.737  0.00  0.00    +0.000 A 
ATOM      7  O   UNL     1       4.967   5.664  19.730  0.00  0.00    +0.000 OA
ATOM      8  C   UNL     1       3.755   3.947  18.749  0.00  0.00    +0.000 A 
ATOM      9  C   UNL     1       2.936   3.790  19.875  0.00  0.00    +0.000 A 
ATOM     10  C   UNL     1       1.934   2.824  19.874  0.00  0.00    +0.000 A 
ATOM     11  C   UNL     1       1.752   2.019  18.749  0.00  0.00    +0.000 A 
ATOM     12  C   UNL     1       2.577   2.178  17.631  0.00  0.00    +0.000 A 
ATOM     13  C   UNL     1       3.590   3.143  17.630  0.00  0.00    +0.000 A 
ATOM     14  O   UNL     1       4.373   3.231  16.507  0.00  0.00    +0.000 OA
ATOM     15  C   UNL     1       5.365   4.192  16.452  0.00  0.00    +0.000 A 
ENDROOT
BRANCH   2  16
ATOM     16  O   UNL     1       7.907   5.415  14.050  0.00  0.00    +0.000 OA
ATOM     17  H   UNL     1       8.799   5.066  14.201  0.00  0.00    +0.000 HD
ENDBRANCH   2  16
BRANCH   4  18
ATOM     18  O   UNL     1       6.902   6.929  18.375  0.00  0.00    +0.000 OA
ATOM     19  H   UNL     1       7.717   7.416  18.183  0.00  0.00    +0.000 HD
ENDBRANCH   4  18
BRANCH   1  20
ATOM     20  C   UNL     1       5.919   3.223  14.164  0.00  0.00    +0.000 C 
BRANCH  20  24
ATOM     21  C   UNL     1       3.885   3.791  10.877  0.00  0.00    +0.000 C 
ATOM     22  C   UNL     1       4.856   3.191  11.856  0.00  0.00    +0.000 C 
ATOM     23  C   UNL     1       5.621   1.977  11.409  0.00  0.00    +0.000 C 
ATOM     24  C   UNL     1       5.008   3.735  13.080  0.00  0.00    +0.000 C 
ENDBRANCH  20  24
ENDBRANCH   1  20
TORSDOF 4
ENDMDL
MODEL 3
REMARK VINA RESULT:      -7.6      6.117      7.885
REMARK  Name = 
REMARK  6 active torsions:
REMARK  status: ('A' for Active; 'I' for Inactive)
REMARK    1  A    between atoms: C_1  and  C_2
REMARK    2  A    between atoms: C_2  and  C_3
REMARK    3  A    between atoms: C_4  and  C_5
REMARK    4  A    between atoms: C_5  and  C_6
REMARK    5  A    between atoms: C_7  and  O_8
REMARK    6  A    between atoms: C_10  and  O_11
REMARK                            x       y       z     vdW  Elec       q    Type
REMARK                         _______ _______ _______ _____ _____    ______ ____
ROOT
ATOM      1  C   UNL     1       2.148   7.006  19.706  0.00  0.00    +0.000 A 
ATOM      2  C   UNL     1       2.774   6.941  18.450  0.00  0.00    +0.000 A 
ATOM      3  C   UNL     1       2.798   8.040  17.598  0.00  0.00    +0.000 A 
ATOM      4  C   UNL     1       2.190   9.231  17.978  0.00  0.00    +0.000 A 
ATOM      5  C   UNL     1       1.526   9.324  19.206  0.00  0.00    +0.000 A 
ATOM      6  C   UNL     1       0.864  10.572  19.650  0.00  0.00    +0.000 A 
ATOM      7  O   UNL     1       0.870  11.613  19.006  0.00  0.00    +0.000 OA
ATOM      8  C   UNL     1       0.171  10.539  20.940  0.00  0.00    +0.000 A 
ATOM      9  C   UNL     1      -0.495  11.677  21.413  0.00  0.00    +0.000 A 
ATOM     10  C   UNL     1      -1.161  11.633  22.635  0.00  0.00    +0.000 A 
ATOM     11  C   UNL     1      -1.160  10.453  23.379  0.00  0.00    +0.000 A 
ATOM     12  C   UNL     1      -0.489   9.322  22.902  0.00  0.00    +0.000 A 
ATOM     13  C   UNL     1       0.186   9.363  21.678  0.00  0.00    +0.000 A 
ATOM     14  O   UNL     1       0.839   8.223  21.281  0.00  0.00    +0.000 OA
ATOM     15  C   UNL     1       1.493   8.212  20.063  0.00  0.00    +0.000 A 
ENDROOT
BRANCH   2  16
ATOM     16  O   UNL     1       3.403   5.828  17.968  0.00  0.00    +0.000 OA
ATOM     17  H   UNL     1       3.367   5.103  18.612  0.00  0.00    +0.000 HD
ENDBRANCH   2  16
BRANCH   4  18
ATOM     18  O   UNL     1       2.253  10.297  17.127  0.00  0.00    +0.000 OA
ATOM     19  H   UNL     1       2.791  11.005  17.511  0.00  0.00    +0.000 HD
ENDBRANCH   4  18
BRANCH   1  20
ATOM     20  C   UNL     1       2.172   5.832  20.662  0.00  0.00    +0.000 C 
BRANCH  20  24
ATOM     21  C   UNL     1       0.681   2.400  19.540  0.00  0.00    +0.000 C 
ATOM     22  C   UNL     1       1.685   3.443  19.949  0.00  0.00    +0.000 C 
ATOM     23  C   UNL     1       3.120   3.012  20.052  0.00  0.00    +0.000 C 
ATOM     24  C   UNL     1       1.284   4.702  20.216  0.00  0.00    +0.000 C 
ENDBRANCH  20  24
ENDBRANCH   1  20
TORSDOF 4
ENDMDL
MODEL 4
REMARK VINA RESULT:      -7.5      4.052      6.812
REMARK  Name = 
REMARK  6 active torsions:
REMARK  status: ('A' for Active; 'I' for Inactive)
REMARK    1  A    between atoms: C_1  and  C_2
REMARK    2  A    between atoms: C_2  and  C_3
REMARK    3  A    between atoms: C_4  and  C_5
REMARK    4  A    between atoms: C_5  and  C_6
REMARK    5  A    between atoms: C_7  and  O_8
REMARK    6  A    between atoms: C_10  and  O_11
REMARK                            x       y       z     vdW  Elec       q    Type
REMARK                         _______ _______ _______ _____ _____    ______ ____
ROOT
ATOM      1  C   UNL     1       2.443   7.291  19.147  0.00  0.00    +0.000 A 
ATOM      2  C   UNL     1       1.745   6.933  20.312  0.00  0.00    +0.000 A 
ATOM      3  C   UNL     1       1.850   5.654  20.852  0.00  0.00    +0.000 A 
ATOM      4  C   UNL     1       2.651   4.700  20.234  0.00  0.00    +0.000 A 
ATOM      5  C   UNL     1       3.332   5.009  19.052  0.00  0.00    +0.000 A 
ATOM      6  C   UNL     1       4.194   4.022  18.361  0.00  0.00    +0.000 A 
ATOM      7  O   UNL     1       4.402   2.890  18.775  0.00  0.00    +0.000 OA
ATOM      8  C   UNL     1       4.830   4.449  17.113  0.00  0.00    +0.000 A 
ATOM      9  C   UNL     1       5.643   3.562  16.394  0.00  0.00    +0.000 A 
ATOM     10  C   UNL     1       6.234   3.973  15.203  0.00  0.00    +0.000 A 
ATOM     11  C   UNL     1       6.012   5.267  14.733  0.00  0.00    +0.000 A 
ATOM     12  C   UNL     1       5.204   6.149  15.458  0.00  0.00    +0.000 A 
ATOM     13  C   UNL     1       4.613   5.743  16.659  0.00  0.00    +0.000 A 
ATOM     14  O   UNL     1       3.848   6.666  17.327  0.00  0.00    +0.000 OA
ATOM     15  C   UNL     1       3.220   6.296  18.501  0.00  0.00    +0.000 A 
ENDROOT
BRANCH   2  16
ATOM     16  O   UNL     1       0.930   7.782  21.005  0.00  0.00    +0.000 OA
ATOM     17  H   UNL     1       1.238   8.698  20.927  0.00  0.00    +0.000 HD
ENDBRANCH   2  16
BRANCH   4  18
ATOM     18  O   UNL     1       2.748   3.463  20.803  0.00  0.00    +0.000 OA
ATOM     19  H   UNL     1       2.737   3.533  21.770  0.00  0.00    +0.000 HD
ENDBRANCH   4  18
BRANCH   1  20
ATOM     20  C   UNL     1       2.380   8.697  18.591  0.00  0.00    +0.000 C 
BRANCH  20  24
ATOM     21  C   UNL     1      -1.088  10.183  17.579  0.00  0.00    +0.000 C 
ATOM     22  C   UNL     1       0.190   9.960  18.340  0.00  0.00    +0.000 C 
ATOM     23  C   UNL     1       0.444  10.842  19.529  0.00  0.00    +0.000 C 
ATOM     24  C   UNL     1       1.058   9.007  17.943  0.00  0.00    +0.000 C 
ENDBRANCH  20  24
ENDBRANCH   1  20
TORSDOF 4
ENDMDL
MODEL 5
REMARK VINA RESULT:      -7.4      3.280      4.870
REMARK  Name = 
REMARK  6 active torsions:
REMARK  status: ('A' for Active; 'I' for Inactive)
REMARK    1  A    between atoms: C_1  and  C_2
REMARK    2  A    between atoms: C_2  and  C_3
REMARK    3  A    between atoms: C_4  and  C_5
REMARK    4  A    between atoms: C_5  and  C_6
REMARK    5  A    between atoms: C_7  and  O_8
REMARK    6  A    between atoms: C_10  and  O_11
REMARK                            x       y       z     vdW  Elec       q    Type
REMARK                         _______ _______ _______ _____ _____    ______ ____
ROOT
ATOM      1  C   UNL     1       3.610   3.614  18.018  0.00  0.00    +0.000 A 
ATOM      2  C   UNL     1       3.693   2.466  18.822  0.00  0.00    +0.000 A 
ATOM      3  C   UNL     1       3.207   2.462  20.126  0.00  0.00    +0.000 A 
ATOM      4  C   UNL     1       2.632   3.610  20.660  0.00  0.00    +0.000 A 
ATOM      5  C   UNL     1       2.564   4.783  19.900  0.00  0.00    +0.000 A 
ATOM      6  C   UNL     1       1.961   6.028  20.430  0.00  0.00    +0.000 A 
ATOM      7  O   UNL     1       1.455   6.122  21.540  0.00  0.00    +0.000 OA
ATOM      8  C   UNL     1       1.977   7.202  19.555  0.00  0.00    +0.000 A 
ATOM      9  C   UNL     1       1.442   8.420  19.998  0.00  0.00    +0.000 A 
ATOM     10  C   UNL     1       1.473   9.534  19.164  0.00  0.00    +0.000 A 
ATOM     11  C   UNL     1       2.036   9.430  17.892  0.00  0.00    +0.000 A 
ATOM     12  C   UNL     1       2.563   8.210  17.455  0.00  0.00    +0.000 A 
ATOM     13  C   UNL     1       2.530   7.086  18.287  0.00  0.00    +0.000 A 
ATOM     14  O   UNL     1       3.047   5.918  17.787  0.00  0.00    +0.000 OA
ATOM     15  C   UNL     1       3.062   4.791  18.587  0.00  0.00    +0.000 A 
ENDROOT
BRANCH   2  16
ATOM     16  O   UNL     1       4.236   1.282  18.409  0.00  0.00    +0.000 OA
ATOM     17  H   UNL     1       4.272   1.236  17.441  0.00  0.00    +0.000 HD
ENDBRANCH   2  16
BRANCH   4  18
ATOM     18  O   UNL     1       2.145   3.564  21.934  0.00  0.00    +0.000 OA
ATOM     19  H   UNL     1       2.260   4.420  22.372  0.00  0.00    +0.000 HD
ENDBRANCH   4  18
BRANCH   1  20
ATOM     20  C   UNL     1       4.081   3.605  16.579  0.00  0.00    +0.000 C 
BRANCH  20  24
ATOM     21  C   UNL     1       7.480   4.980  15.230  0.00  0.00    +0.000 C 
ATOM     22  C   UNL     1       6.103   4.374  15.247  0.00  0.00    +0.000 C 
ATOM     23  C   UNL     1       5.491   4.023  13.921  0.00  0.00    +0.000 C 
ATOM     24  C   UNL     1       5.466   4.173  16.418  0.00  0.00    +0.000 C 
ENDBRANCH  20  24
ENDBRANCH   1  20
TORSDOF 4
ENDMDL
MODEL 6
REMARK VINA RESULT:      -7.3      4.170      5.809
REMARK  Name = 
REMARK  6 active torsions:
REMARK  status: ('A' for Active; 'I' for Inactive)
REMARK    1  A    between atoms: C_1  and  C_2
REMARK    2  A    between atoms: C_2  and  C_3
REMARK    3  A    between atoms: C_4  and  C_5
REMARK    4  A    between atoms: C_5  and  C_6
REMARK    5  A    between atoms: C_7  and  O_8
REMARK    6  A    between atoms: C_10  and  O_11
REMARK                            x       y       z     vdW  Elec       q    Type
REMARK                         _______ _______ _______ _____ _____    ______ ____
ROOT
ATOM      1  C   UNL     1       4.136   5.413  17.968  0.00  0.00    +0.000 A 
ATOM      2  C   UNL     1       4.322   4.163  18.579  0.00  0.00    +0.000 A 
ATOM      3  C   UNL     1       3.633   3.815  19.737  0.00  0.00    +0.000 A 
ATOM      4  C   UNL     1       2.744   4.714  20.316  0.00  0.00    +0.000 A 
ATOM      5  C   UNL     1       2.559   5.983  19.755  0.00  0.00    +0.000 A 
ATOM      6  C   UNL     1       1.623   6.971  20.340  0.00  0.00    +0.000 A 
ATOM      7  O   UNL     1       0.927   6.753  21.322  0.00  0.00    +0.000 OA
ATOM      8  C   UNL     1       1.539   8.279  19.686  0.00  0.00    +0.000 A 
ATOM      9  C   UNL     1       0.690   9.270  20.197  0.00  0.00    +0.000 A 
ATOM     10  C   UNL     1       0.625  10.514  19.575  0.00  0.00    +0.000 A 
ATOM     11  C   UNL     1       1.407  10.765  18.448  0.00  0.00    +0.000 A 
ATOM     12  C   UNL     1       2.247   9.768  17.941  0.00  0.00    +0.000 A 
ATOM     13  C   UNL     1       2.312   8.515  18.558  0.00  0.00    +0.000 A 
ATOM     14  O   UNL     1       3.144   7.580  17.996  0.00  0.00    +0.000 OA
ATOM     15  C   UNL     1       3.261   6.338  18.592  0.00  0.00    +0.000 A 
ENDROOT
BRANCH   2  16
ATOM     16  O   UNL     1       5.167   3.199  18.104  0.00  0.00    +0.000 OA
ATOM     17  H   UNL     1       5.811   2.940  18.780  0.00  0.00    +0.000 HD
ENDBRANCH   2  16
BRANCH   4  18
ATOM     18  O   UNL     1       2.067   4.331  21.438  0.00  0.00    +0.000 OA
ATOM     19  H   UNL     1       2.676   4.242  22.186  0.00  0.00    +0.000 HD
ENDBRANCH   4  18
BRANCH   1  20
ATOM     20  C   UNL     1       4.837   5.772  16.675  0.00  0.00    +0.000 C 
BRANCH  20  24
ATOM     21  C   UNL     1       7.844   8.127  17.499  0.00  0.00    +0.000 C 
ATOM     22  C   UNL     1       6.984   6.893  17.441  0.00  0.00    +0.000 C 
ATOM     23  C   UNL     1       7.529   5.646  18.077  0.00  0.00    +0.000 C 
ATOM     24  C   UNL     1       5.783   6.933  16.830  0.00  0.00    +0.000 C 
ENDBRANCH  20  24
ENDBRANCH   1  20
TORSDOF 4
ENDMDL
MODEL 7
REMARK VINA RESULT:      -7.2      2.461      3.184
REMARK  Name = 
REMARK  6 active torsions:
REMARK  status: ('A' for Active; 'I' for Inactive)
REMARK    1  A    between atoms: C_1  and  C_2
REMARK    2  A    between atoms: C_2  and  C_3
REMARK    3  A    between atoms: C_4  and  C_5
REMARK    4  A    between atoms: C_5  and  C_6
REMARK    5  A    between atoms: C_7  and  O_8
REMARK    6  A    between atoms: C_10  and  O_11
REMARK                            x       y       z     vdW  Elec       q    Type
REMARK                         _______ _______ _______ _____ _____    ______ ____
ROOT
ATOM      1  C   UNL     1       4.992   5.427  16.838  0.00  0.00    +0.000 A 
ATOM      2  C   UNL     1       4.842   6.671  16.206  0.00  0.00    +0.000 A 
ATOM      3  C   UNL     1       3.982   7.641  16.716  0.00  0.00    +0.000 A 
ATOM      4  C   UNL     1       3.247   7.384  17.867  0.00  0.00    +0.000 A 
ATOM      5  C   UNL     1       3.343   6.142  18.504  0.00  0.00    +0.000 A 
ATOM      6  C   UNL     1       2.576   5.827  19.731  0.00  0.00    +0.000 A 
ATOM      7  O   UNL     1       1.835   6.620  20.295  0.00  0.00    +0.000 OA
ATOM      8  C   UNL     1       2.732   4.481  20.289  0.00  0.00    +0.000 A 
ATOM      9  C   UNL     1       2.022   4.106  21.437  0.00  0.00    +0.000 A 
ATOM     10  C   UNL     1       2.168   2.821  21.954  0.00  0.00    +0.000 A 
ATOM     11  C   UNL     1       3.021   1.917  21.323  0.00  0.00    +0.000 A 
ATOM     12  C   UNL     1       3.732   2.300  20.180  0.00  0.00    +0.000 A 
ATOM     13  C   UNL     1       3.593   3.591  19.661  0.00  0.00    +0.000 A 
ATOM     14  O   UNL     1       4.333   3.905  18.549  0.00  0.00    +0.000 OA
ATOM     15  C   UNL     1       4.203   5.160  17.985  0.00  0.00    +0.000 A 
ENDROOT
BRANCH   2  16
ATOM     16  O   UNL     1       5.510   7.037  15.072  0.00  0.00    +0.000 OA
ATOM     17  H   UNL     1       6.462   7.115  15.240  0.00  0.00    +0.000 HD
ENDBRANCH   2  16
BRANCH   4  18
ATOM     18  O   UNL     1       2.431   8.365  18.352  0.00  0.00    +0.000 OA
ATOM     19  H   UNL     1       2.628   9.212  17.924  0.00  0.00    +0.000 HD
ENDBRANCH   4  18
BRANCH   1  20
ATOM     20  C   UNL     1       5.971   4.393  16.322  0.00  0.00    +0.000 C 
BRANCH  20  24
ATOM     21  C   UNL     1       5.696   3.335  12.571  0.00  0.00    +0.000 C 
ATOM     22  C   UNL     1       6.201   3.999  13.823  0.00  0.00    +0.000 C 
ATOM     23  C   UNL     1       7.435   4.847  13.700  0.00  0.00    +0.000 C 
ATOM     24  C   UNL     1       5.560   3.815  14.995  0.00  0.00    +0.000 C 
ENDBRANCH  20  24
ENDBRANCH   1  20
TORSDOF 4
ENDMDL
MODEL 8
REMARK VINA RESULT:      -7.1      3.984      4.836
REMARK  Name = 
REMARK  6 active torsions:
REMARK  status: ('A' for Active; 'I' for Inactive)
REMARK    1  A    between atoms: C_1  and  C_2
REMARK    2  A    between atoms: C_2  and  C_3
REMARK    3  A    between atoms: C_4  and  C_5
REMARK    4  A    between atoms: C_5  and  C_6
REMARK    5  A    between atoms: C_7  and  O_8
REMARK    6  A    between atoms: C_10  and  O_11
REMARK                            x       y       z     vdW  Elec       q    Type
REMARK                         _______ _______ _______ _____ _____    ______ ____
ROOT
ATOM      1  C   UNL     1       4.627   5.751  17.622  0.00  0.00    +0.000 A 
ATOM      2  C   UNL     1       4.977   4.508  18.172  0.00  0.00    +0.000 A 
ATOM      3  C   UNL     1       4.348   4.021  19.315  0.00  0.00    +0.000 A 
ATOM      4  C   UNL     1       3.358   4.772  19.939  0.00  0.00    +0.000 A 
ATOM      5  C   UNL     1       3.008   6.032  19.440  0.00  0.00    +0.000 A 
ATOM      6  C   UNL     1       1.961   6.865  20.075  0.00  0.00    +0.000 A 
ATOM      7  O   UNL     1       1.308   6.515  21.048  0.00  0.00    +0.000 OA
ATOM      8  C   UNL     1       1.705   8.181  19.484  0.00  0.00    +0.000 A 
ATOM      9  C   UNL     1       0.743   9.032  20.044  0.00  0.00    +0.000 A 
ATOM     10  C   UNL     1       0.515  10.285  19.483  0.00  0.00    +0.000 A 
ATOM     11  C   UNL     1       1.248  10.685  18.365  0.00  0.00    +0.000 A 
ATOM     12  C   UNL     1       2.203   9.828  17.808  0.00  0.00    +0.000 A 
ATOM     13  C   UNL     1       2.432   8.566  18.365  0.00  0.00    +0.000 A 
ATOM     14  O   UNL     1       3.370   7.771  17.756  0.00  0.00    +0.000 OA
ATOM     15  C   UNL     1       3.649   6.528  18.293  0.00  0.00    +0.000 A 
ENDROOT
BRANCH   2  16
ATOM     16  O   UNL     1       5.932   3.682  17.649  0.00  0.00    +0.000 OA
ATOM     17  H   UNL     1       5.675   3.370  16.767  0.00  0.00    +0.000 HD
ENDBRANCH   2  16
BRANCH   4  18
ATOM     18  O   UNL     1       2.746   4.255  21.044  0.00  0.00    +0.000 OA
ATOM     19  H   UNL     1       3.256   3.510  21.396  0.00  0.00    +0.000 HD
ENDBRANCH   4  18
BRANCH   1  20
ATOM     20  C   UNL     1       5.265   6.256  16.345  0.00  0.00    +0.000 C 
BRANCH  20  24
ATOM     21  C   UNL     1       5.628   3.802  13.327  0.00  0.00    +0.000 C 
ATOM     22  C   UNL     1       5.999   4.726  14.454  0.00  0.00    +0.000 C 
ATOM     23  C   UNL     1       7.463   4.920  14.729  0.00  0.00    +0.000 C 
ATOM     24  C   UNL     1       5.037   5.334  15.177  0.00  0.00    +0.000 C 
ENDBRANCH  20  24
ENDBRANCH   1  20
TORSDOF 4
ENDMDL
MODEL 9
REMARK VINA RESULT:      -7.0      1.305      1.783
REMARK  Name = 
REMARK  6 active torsions:
REMARK  status: ('A' for Active; 'I' for Inactive)
REMARK    1  A    between atoms: C_1  and  C_2
REMARK    2  A    between atoms: C_2  and  C_3
REMARK    3  A    between atoms: C_4  and  C_5
REMARK    4  A    between atoms: C_5  and  C_6
REMARK    5  A    between atoms: C_7  and  O_8
REMARK    6  A    between atoms: C_10  and  O_11
REMARK                            x       y       z     vdW  Elec       q    Type
REMARK                         _______ _______ _______ _____ _____    ______ ____
ROOT
ATOM      1  C   UNL     1       5.894   5.921  16.686  0.00  0.00    +0.000 A 
ATOM      2  C   UNL     1       7.120   6.453  17.116  0.00  0.00    +0.000 A 
ATOM      3  C   UNL     1       7.630   6.163  18.379  0.00  0.00    +0.000 A 
ATOM      4  C   UNL     1       6.920   5.338  19.244  0.00  0.00    +0.000 A 
ATOM      5  C   UNL     1       5.678   4.818  18.864  0.00  0.00    +0.000 A 
ATOM      6  C   UNL     1       4.889   3.937  19.755  0.00  0.00    +0.000 A 
ATOM      7  O   UNL     1       5.264   3.573  20.861  0.00  0.00    +0.000 OA
ATOM      8  C   UNL     1       3.587   3.481  19.262  0.00  0.00    +0.000 A 
ATOM      9  C   UNL     1       2.777   2.662  20.060  0.00  0.00    +0.000 A 
ATOM     10  C   UNL     1       1.536   2.243  19.587  0.00  0.00    +0.000 A 
ATOM     11  C   UNL     1       1.108   2.644  18.322  0.00  0.00    +0.000 A 
ATOM     12  C   UNL     1       1.925   3.458  17.529  0.00  0.00    +0.000 A 
ATOM     13  C   UNL     1       3.175   3.876  17.997  0.00  0.00    +0.000 A 
ATOM     14  O   UNL     1       3.930   4.657  17.159  0.00  0.00    +0.000 OA
ATOM     15  C   UNL     1       5.159   5.118  17.594  0.00  0.00    +0.000 A 
ENDROOT
BRANCH   2  16
ATOM     16  O   UNL     1       7.905   7.274  16.356  0.00  0.00    +0.000 OA
ATOM     17  H   UNL     1       7.405   7.635  15.608  0.00  0.00    +0.000 HD
ENDBRANCH   2  16
BRANCH   4  18
ATOM     18  O   UNL     1       7.460   5.056  20.466  0.00  0.00    +0.000 OA
ATOM     19  H   UNL     1       6.841   4.533  20.997  0.00  0.00    +0.000 HD
ENDBRANCH   4  18
BRANCH   1  20
ATOM     20  C   UNL     1       5.366   6.184  15.292  0.00  0.00    +0.000 C 
BRANCH  20  24
ATOM     21  C   UNL     1       6.204   3.246  12.857  0.00  0.00    +0.000 C 
ATOM     22  C   UNL     1       6.348   4.522  13.641  0.00  0.00    +0.000 C 
ATOM     23  C   UNL     1       7.643   5.271  13.500  0.00  0.00    +0.000 C 
ATOM     24  C   UNL     1       5.345   4.947  14.435  0.00  0.00    +0.000 C 
ENDBRANCH  20  24
ENDBRANCH   1  20
TORSDOF 4
ENDMDL
