MODEL 1
REMARK VINA RESULT:      -8.5      0.000      0.000
REMARK  Name = 
REMARK  9 active torsions:
REMARK  status: ('A' for Active; 'I' for Inactive)
REMARK    1  A    between atoms: C_1  and  C_2
REMARK    2  A    between atoms: C_2  and  C_3
REMARK    3  A    between atoms: C_3  and  N_4
REMARK    4  A    between atoms: C_6  and  C_7
REMARK    5  A    between atoms: C_7  and  O_9
REMARK    6  A    between atoms: O_9  and  C_10
REMARK    7  A    between atoms: C_10  and  C_11
REMARK    8  A    between atoms: N_13  and  C_14
REMARK    9  A    between atoms: C_19  and  C_20
REMARK                            x       y       z     vdW  Elec       q    Type
REMARK                         _______ _______ _______ _____ _____    ______ ____
ROOT
ATOM      1  C   UNL     1       2.326   7.402  18.826  0.00  0.00    +0.000 C 
ATOM      2  O   UNL     1       2.199   7.445  20.038  0.00  0.00    +0.000 OA
ENDROOT
BRANCH   1   5
ATOM      3  N   UNL     1       5.280   6.022  17.086  0.00  0.00    +0.000 N 
ATOM      4  N   UNL     1       4.376   6.881  17.662  0.00  0.00    +0.000 NA
ATOM      5  C   UNL     1       3.258   6.406  18.127  0.00  0.00    +0.000 A 
ATOM      6  C   UNL     1       2.885   4.979  18.044  0.00  0.00    +0.000 A 
ATOM      7  C   UNL     1       1.650   4.465  18.466  0.00  0.00    +0.000 A 
ATOM      8  C   UNL     1       1.380   3.096  18.347  0.00  0.00    +0.000 A 
ATOM      9  C   UNL     1       2.336   2.233  17.818  0.00  0.00    +0.000 A 
ATOM     10  C   UNL     1       3.564   2.740  17.396  0.00  0.00    +0.000 A 
ATOM     11  C   UNL     1       3.829   4.113  17.499  0.00  0.00    +0.000 A 
ATOM     12  C   UNL     1       5.105   4.642  16.988  0.00  0.00    +0.000 A 
ATOM     13  O   UNL     1       5.923   3.875  16.496  0.00  0.00    +0.000 OA
BRANCH   3  14
ATOM     14  C   UNL     1       6.483   6.626  16.519  0.00  0.00    +0.000 C 
BRANCH  14  16
ATOM     15  C   UNL     1       7.825   8.411  17.686  0.00  0.00    +0.000 C 
ATOM     16  C   UNL     1       7.521   6.924  17.602  0.00  0.00    +0.000 C 
ENDBRANCH  14  16
ENDBRANCH   3  14
ENDBRANCH   1   5
BRANCH   1  17
ATOM     17  O   UNL     1       1.718   8.218  17.944  0.00  0.00    +0.000 OA
BRANCH  17  18
ATOM     18  C   UNL     1       1.628   9.585  18.349  0.00  0.00    +0.000 C 
BRANCH  18  19
ATOM     19  C   UNL     1       0.291  10.005  18.971  0.00  0.00    +0.000 C 
ATOM     20  O   UNL     1      -0.114   9.504  20.018  0.00  0.00    +0.000 OA
ATOM     21  N   UNL     1      -0.397  10.953  18.230  0.00  0.00    +0.000 N 
ATOM     22  H   UNL     1      -0.315  10.841  17.221  0.00  0.00    +0.000 HD
BRANCH  21  23
ATOM     23  C   UNL     1      -1.671  11.385  18.629  0.00  0.00    +0.000 A 
ATOM     24  N   UNL     1      -1.659  12.170  19.726  0.00  0.00    +0.000 NA
ATOM     25  C   UNL     1      -2.843  12.710  20.096  0.00  0.00    +0.000 A 
ATOM     26  C   UNL     1      -4.055  12.466  19.456  0.00  0.00    +0.000 A 
ATOM     27 CL   UNL     1      -5.460  13.261  20.063  0.00  0.00    +0.000 Cl
ATOM     28  C   UNL     1      -4.083  11.581  18.370  0.00  0.00    +0.000 A 
ATOM     29  C   UNL     1      -5.357  11.217  17.655  0.00  0.00    +0.000 C 
ATOM     30  C   UNL     1      -2.854  11.020  17.957  0.00  0.00    +0.000 A 
ATOM     31 CL   UNL     1      -2.838   9.774  16.742  0.00  0.00    +0.000 Cl
ENDBRANCH  21  23
ENDBRANCH  18  19
ENDBRANCH  17  18
ENDBRANCH   1  17
TORSDOF 7
ENDMDL
MODEL 2
REMARK VINA RESULT:      -8.4      1.160      1.579
REMARK  Name = 
REMARK  9 active torsions:
REMARK  status: ('A' for Active; 'I' for Inactive)
REMARK    1  A    between atoms: C_1  and  C_2
REMARK    2  A    between atoms: C_2  and  C_3
REMARK    3  A    between atoms: C_3  and  N_4
REMARK    4  A    between atoms: C_6  and  C_7
REMARK    5  A    between atoms: C_7  and  O_9
REMARK    6  A    between atoms: O_9  and  C_10
REMARK    7  A    between atoms: C_10  and  C_11
REMARK    8  A    between atoms: N_13  and  C_14
REMARK    9  A    between atoms: C_19  and  C_20
REMARK                            x       y       z     vdW  Elec       q    Type
REMARK                         _______ _______ _______ _____ _____    ______ ____
ROOT
ATOM      1  C   UNL     1       2.384   7.599  18.803  0.00  0.00    +0.000 C 
ATOM      2  O   UNL     1       2.171   7.602  20.004  0.00  0.00    +0.000 OA
ENDROOT
BRANCH   1   5
ATOM      3  N   UNL     1       5.370   6.173  17.159  0.00  0.00    +0.000 N 
ATOM      4  N   UNL     1       4.462   7.046  17.706  0.00  0.00    +0.000 NA
ATOM      5  C   UNL     1       3.321   6.588  18.132  0.00  0.00    +0.000 A 
ATOM      6  C   UNL     1       2.927   5.168  18.032  0.00  0.00    +0.000 A 
ATOM      7  C   UNL     1       1.670   4.674  18.411  0.00  0.00    +0.000 A 
ATOM      8  C   UNL     1       1.381   3.311  18.280  0.00  0.00    +0.000 A 
ATOM      9  C   UNL     1       2.340   2.433  17.780  0.00  0.00    +0.000 A 
ATOM     10  C   UNL     1       3.589   2.920  17.400  0.00  0.00    +0.000 A 
ATOM     11  C   UNL     1       3.874   4.288  17.516  0.00  0.00    +0.000 A 
ATOM     12  C   UNL     1       5.175   4.796  17.050  0.00  0.00    +0.000 A 
ATOM     13  O   UNL     1       5.996   4.017  16.583  0.00  0.00    +0.000 OA
BRANCH   3  14
ATOM     14  C   UNL     1       6.601   6.757  16.633  0.00  0.00    +0.000 C 
BRANCH  14  16
ATOM     15  C   UNL     1       8.008   8.477  17.824  0.00  0.00    +0.000 C 
ATOM     16  C   UNL     1       7.619   7.009  17.747  0.00  0.00    +0.000 C 
ENDBRANCH  14  16
ENDBRANCH   3  14
ENDBRANCH   1   5
BRANCH   1  17
ATOM     17  O   UNL     1       1.877   8.474  17.914  0.00  0.00    +0.000 OA
BRANCH  17  18
ATOM     18  C   UNL     1       1.575   9.766  18.443  0.00  0.00    +0.000 C 
BRANCH  18  19
ATOM     19  C   UNL     1       0.098  10.018  18.774  0.00  0.00    +0.000 C 
ATOM     20  O   UNL     1      -0.395   9.637  19.834  0.00  0.00    +0.000 OA
ATOM     21  N   UNL     1      -0.597  10.669  17.767  0.00  0.00    +0.000 N 
ATOM     22  H   UNL     1      -0.323  10.401  16.824  0.00  0.00    +0.000 HD
BRANCH  21  23
ATOM     23  C   UNL     1      -1.975  10.906  17.888  0.00  0.00    +0.000 A 
ATOM     24  N   UNL     1      -2.726  10.187  17.028  0.00  0.00    +0.000 NA
ATOM     25  C   UNL     1      -4.068  10.286  17.170  0.00  0.00    +0.000 A 
ATOM     26  C   UNL     1      -4.705  11.108  18.095  0.00  0.00    +0.000 A 
ATOM     27 CL   UNL     1      -6.428  11.087  18.139  0.00  0.00    +0.000 Cl
ATOM     28  C   UNL     1      -3.925  11.922  18.929  0.00  0.00    +0.000 A 
ATOM     29  C   UNL     1      -4.531  12.880  19.919  0.00  0.00    +0.000 C 
ATOM     30  C   UNL     1      -2.522  11.819  18.809  0.00  0.00    +0.000 A 
ATOM     31 CL   UNL     1      -1.498  12.929  19.674  0.00  0.00    +0.000 Cl
ENDBRANCH  21  23
ENDBRANCH  18  19
ENDBRANCH  17  18
ENDBRANCH   1  17
TORSDOF 7
ENDMDL
MODEL 3
REMARK VINA RESULT:      -8.3      1.640      1.936
REMARK  Name = 
REMARK  9 active torsions:
REMARK  status: ('A' for Active; 'I' for Inactive)
REMARK    1  A    between atoms: C_1  and  C_2
REMARK    2  A    between atoms: C_2  and  C_3
REMARK    3  A    between atoms: C_3  and  N_4
REMARK    4  A    between atoms: C_6  and  C_7
REMARK    5  A    between atoms: C_7  and  O_9
REMARK    6  A    between atoms: O_9  and  C_10
REMARK    7  A    between atoms: C_10  and  C_11
REMARK    8  A    between atoms: N_13  and  C_14
REMARK    9  A    between atoms: C_19  and  C_20
REMARK                            x       y       z     vdW  Elec       q    Type
REMARK                         _______ _______ _______ _____ _____    ______ ____
ROOT
ATOM      1  C   UNL     1       2.312   7.511  18.795  0.00  0.00    +0.000 C 
ATOM      2  O   UNL     1       2.218   7.605  20.008  0.00  0.00    +0.000 OA
ENDROOT
BRANCH   1   5
ATOM      3  N   UNL     1       5.286   6.103  17.112  0.00  0.00    +0.000 N 
ATOM      4  N   UNL     1       4.379   6.971  17.669  0.00  0.00    +0.000 NA
ATOM      5  C   UNL     1       3.249   6.505  18.116  0.00  0.00    +0.000 A 
ATOM      6  C   UNL     1       2.866   5.081  18.029  0.00  0.00    +0.000 A 
ATOM      7  C   UNL     1       1.620   4.577  18.431  0.00  0.00    +0.000 A 
ATOM      8  C   UNL     1       1.342   3.210  18.311  0.00  0.00    +0.000 A 
ATOM      9  C   UNL     1       2.300   2.339  17.801  0.00  0.00    +0.000 A 
ATOM     10  C   UNL     1       3.539   2.835  17.400  0.00  0.00    +0.000 A 
ATOM     11  C   UNL     1       3.813   4.206  17.503  0.00  0.00    +0.000 A 
ATOM     12  C   UNL     1       5.102   4.724  17.014  0.00  0.00    +0.000 A 
ATOM     13  O   UNL     1       5.922   3.949  16.538  0.00  0.00    +0.000 OA
BRANCH   3  14
ATOM     14  C   UNL     1       6.503   6.695  16.564  0.00  0.00    +0.000 C 
BRANCH  14  16
ATOM     15  C   UNL     1       7.894   8.462  17.703  0.00  0.00    +0.000 C 
ATOM     16  C   UNL     1       7.525   6.988  17.664  0.00  0.00    +0.000 C 
ENDBRANCH  14  16
ENDBRANCH   3  14
ENDBRANCH   1   5
BRANCH   1  17
ATOM     17  O   UNL     1       1.661   8.271  17.895  0.00  0.00    +0.000 OA
BRANCH  17  18
ATOM     18  C   UNL     1       2.076   9.638  17.848  0.00  0.00    +0.000 C 
BRANCH  18  19
ATOM     19  C   UNL     1       1.278  10.603  18.733  0.00  0.00    +0.000 C 
ATOM     20  O   UNL     1       1.575  11.794  18.811  0.00  0.00    +0.000 OA
ATOM     21  N   UNL     1       0.245   9.998  19.431  0.00  0.00    +0.000 N 
ATOM     22  H   UNL     1       0.452   9.057  19.759  0.00  0.00    +0.000 HD
BRANCH  21  23
ATOM     23  C   UNL     1      -0.530  10.734  20.340  0.00  0.00    +0.000 A 
ATOM     24  N   UNL     1      -0.190  10.533  21.630  0.00  0.00    +0.000 NA
ATOM     25  C   UNL     1      -0.825  11.298  22.548  0.00  0.00    +0.000 A 
ATOM     26  C   UNL     1      -1.824  12.221  22.251  0.00  0.00    +0.000 A 
ATOM     27 CL   UNL     1      -2.505  13.118  23.556  0.00  0.00    +0.000 Cl
ATOM     28  C   UNL     1      -2.239  12.367  20.920  0.00  0.00    +0.000 A 
ATOM     29  C   UNL     1      -3.349  13.301  20.517  0.00  0.00    +0.000 C 
ATOM     30  C   UNL     1      -1.576  11.590  19.945  0.00  0.00    +0.000 A 
ATOM     31 CL   UNL     1      -2.163  11.578  18.306  0.00  0.00    +0.000 Cl
ENDBRANCH  21  23
ENDBRANCH  18  19
ENDBRANCH  17  18
ENDBRANCH   1  17
TORSDOF 7
ENDMDL
MODEL 4
REMARK VINA RESULT:      -8.3      2.607      2.730
REMARK  Name = 
REMARK  9 active torsions:
REMARK  status: ('A' for Active; 'I' for Inactive)
REMARK    1  A    between atoms: C_1  and  C_2
REMARK    2  A    between atoms: C_2  and  C_3
REMARK    3  A    between atoms: C_3  and  N_4
REMARK    4  A    between atoms: C_6  and  C_7
REMARK    5  A    between atoms: C_7  and  O_9
REMARK    6  A    between atoms: O_9  and  C_10
REMARK    7  A    between atoms: C_10  and  C_11
REMARK    8  A    between atoms: N_13  and  C_14
REMARK    9  A    between atoms: C_19  and  C_20
REMARK                            x       y       z     vdW  Elec       q    Type
REMARK                         _______ _______ _______ _____ _____    ______ ____
ROOT
ATOM      1  C   UNL     1       2.351   7.438  18.738  0.00  0.00    +0.000 C 
ATOM      2  O   UNL     1       2.287   7.585  19.947  0.00  0.00    +0.000 OA
ENDROOT
BRANCH   1   5
ATOM      3  N   UNL     1       5.315   5.974  17.085  0.00  0.00    +0.000 N 
ATOM      4  N   UNL     1       4.414   6.860  17.624  0.00  0.00    +0.000 NA
ATOM      5  C   UNL     1       3.280   6.412  18.078  0.00  0.00    +0.000 A 
ATOM      6  C   UNL     1       2.886   4.989  18.019  0.00  0.00    +0.000 A 
ATOM      7  C   UNL     1       1.635   4.504  18.428  0.00  0.00    +0.000 A 
ATOM      8  C   UNL     1       1.346   3.137  18.335  0.00  0.00    +0.000 A 
ATOM      9  C   UNL     1       2.298   2.248  17.842  0.00  0.00    +0.000 A 
ATOM     10  C   UNL     1       3.541   2.727  17.433  0.00  0.00    +0.000 A 
ATOM     11  C   UNL     1       3.826   4.098  17.511  0.00  0.00    +0.000 A 
ATOM     12  C   UNL     1       5.120   4.595  17.013  0.00  0.00    +0.000 A 
ATOM     13  O   UNL     1       5.934   3.804  16.553  0.00  0.00    +0.000 OA
BRANCH   3  14
ATOM     14  C   UNL     1       6.538   6.546  16.527  0.00  0.00    +0.000 C 
BRANCH  14  16
ATOM     15  C   UNL     1       7.874   6.336  18.653  0.00  0.00    +0.000 C 
ATOM     16  C   UNL     1       7.343   7.289  17.594  0.00  0.00    +0.000 C 
ENDBRANCH  14  16
ENDBRANCH   3  14
ENDBRANCH   1   5
BRANCH   1  17
ATOM     17  O   UNL     1       1.670   8.153  17.823  0.00  0.00    +0.000 OA
BRANCH  17  18
ATOM     18  C   UNL     1       1.938   9.556  17.831  0.00  0.00    +0.000 C 
BRANCH  18  19
ATOM     19  C   UNL     1       0.990  10.406  18.687  0.00  0.00    +0.000 C 
ATOM     20  O   UNL     1      -0.096  10.786  18.253  0.00  0.00    +0.000 OA
ATOM     21  N   UNL     1       1.491  10.712  19.942  0.00  0.00    +0.000 N 
ATOM     22  H   UNL     1       2.495  10.885  19.964  0.00  0.00    +0.000 HD
BRANCH  21  23
ATOM     23  C   UNL     1       0.774  11.544  20.814  0.00  0.00    +0.000 A 
ATOM     24  N   UNL     1       1.148  12.839  20.759  0.00  0.00    +0.000 NA
ATOM     25  C   UNL     1       0.420  13.711  21.493  0.00  0.00    +0.000 A 
ATOM     26  C   UNL     1      -0.636  13.350  22.327  0.00  0.00    +0.000 A 
ATOM     27 CL   UNL     1      -1.459  14.607  23.172  0.00  0.00    +0.000 Cl
ATOM     28  C   UNL     1      -0.968  11.994  22.452  0.00  0.00    +0.000 A 
ATOM     29  C   UNL     1      -2.058  11.511  23.372  0.00  0.00    +0.000 C 
ATOM     30  C   UNL     1      -0.231  11.071  21.680  0.00  0.00    +0.000 A 
ATOM     31 CL   UNL     1      -0.459   9.362  21.925  0.00  0.00    +0.000 Cl
ENDBRANCH  21  23
ENDBRANCH  18  19
ENDBRANCH  17  18
ENDBRANCH   1  17
TORSDOF 7
ENDMDL
MODEL 5
REMARK VINA RESULT:      -8.3      2.661      4.007
REMARK  Name = 
REMARK  9 active torsions:
REMARK  status: ('A' for Active; 'I' for Inactive)
REMARK    1  A    between atoms: C_1  and  C_2
REMARK    2  A    between atoms: C_2  and  C_3
REMARK    3  A    between atoms: C_3  and  N_4
REMARK    4  A    between atoms: C_6  and  C_7
REMARK    5  A    between atoms: C_7  and  O_9
REMARK    6  A    between atoms: O_9  and  C_10
REMARK    7  A    between atoms: C_10  and  C_11
REMARK    8  A    between atoms: N_13  and  C_14
REMARK    9  A    between atoms: C_19  and  C_20
REMARK                            x       y       z     vdW  Elec       q    Type
REMARK                         _______ _______ _______ _____ _____    ______ ____
ROOT
ATOM      1  C   UNL     1       2.160   7.391  18.879  0.00  0.00    +0.000 C 
ATOM      2  O   UNL     1       2.231   7.852  20.006  0.00  0.00    +0.000 OA
ENDROOT
BRANCH   1   5
ATOM      3  N   UNL     1       1.989   3.700  18.791  0.00  0.00    +0.000 N 
ATOM      4  N   UNL     1       1.761   5.019  19.096  0.00  0.00    +0.000 NA
ATOM      5  C   UNL     1       2.515   5.934  18.560  0.00  0.00    +0.000 A 
ATOM      6  C   UNL     1       3.640   5.629  17.652  0.00  0.00    +0.000 A 
ATOM      7  C   UNL     1       4.513   6.596  17.132  0.00  0.00    +0.000 A 
ATOM      8  C   UNL     1       5.555   6.217  16.278  0.00  0.00    +0.000 A 
ATOM      9  C   UNL     1       5.730   4.879  15.932  0.00  0.00    +0.000 A 
ATOM     10  C   UNL     1       4.867   3.915  16.448  0.00  0.00    +0.000 A 
ATOM     11  C   UNL     1       3.832   4.292  17.316  0.00  0.00    +0.000 A 
ATOM     12  C   UNL     1       2.969   3.254  17.904  0.00  0.00    +0.000 A 
ATOM     13  O   UNL     1       3.156   2.078  17.615  0.00  0.00    +0.000 OA
BRANCH   3  14
ATOM     14  C   UNL     1       1.157   2.717  19.479  0.00  0.00    +0.000 C 
BRANCH  14  16
ATOM     15  C   UNL     1       2.551   2.672  21.577  0.00  0.00    +0.000 C 
ATOM     16  C   UNL     1       1.173   2.935  20.993  0.00  0.00    +0.000 C 
ENDBRANCH  14  16
ENDBRANCH   3  14
ENDBRANCH   1   5
BRANCH   1  17
ATOM     17  O   UNL     1       1.809   8.071  17.772  0.00  0.00    +0.000 OA
BRANCH  17  18
ATOM     18  C   UNL     1       1.934   9.491  17.871  0.00  0.00    +0.000 C 
BRANCH  18  19
ATOM     19  C   UNL     1       0.747  10.216  18.518  0.00  0.00    +0.000 C 
ATOM     20  O   UNL     1      -0.390  10.119  18.061  0.00  0.00    +0.000 OA
ATOM     21  N   UNL     1       1.095  10.990  19.614  0.00  0.00    +0.000 N 
ATOM     22  H   UNL     1       1.997  11.457  19.532  0.00  0.00    +0.000 HD
BRANCH  21  23
ATOM     23  C   UNL     1       0.134  11.774  20.270  0.00  0.00    +0.000 A 
ATOM     24  N   UNL     1      -0.100  12.960  19.670  0.00  0.00    +0.000 NA
ATOM     25  C   UNL     1      -1.097  13.713  20.189  0.00  0.00    +0.000 A 
ATOM     26  C   UNL     1      -1.842  13.369  21.313  0.00  0.00    +0.000 A 
ATOM     27 CL   UNL     1      -3.087  14.451  21.817  0.00  0.00    +0.000 Cl
ATOM     28  C   UNL     1      -1.540  12.178  21.989  0.00  0.00    +0.000 A 
ATOM     29  C   UNL     1      -2.259  11.755  23.242  0.00  0.00    +0.000 C 
ATOM     30  C   UNL     1      -0.516  11.369  21.452  0.00  0.00    +0.000 A 
ATOM     31 CL   UNL     1       0.040   9.977  22.338  0.00  0.00    +0.000 Cl
ENDBRANCH  21  23
ENDBRANCH  18  19
ENDBRANCH  17  18
ENDBRANCH   1  17
TORSDOF 7
ENDMDL
MODEL 6
REMARK VINA RESULT:      -8.2      1.685      2.162
REMARK  Name = 
REMARK  9 active torsions:
REMARK  status: ('A' for Active; 'I' for Inactive)
REMARK    1  A    between atoms: C_1  and  C_2
REMARK    2  A    between atoms: C_2  and  C_3
REMARK    3  A    between atoms: C_3  and  N_4
REMARK    4  A    between atoms: C_6  and  C_7
REMARK    5  A    between atoms: C_7  and  O_9
REMARK    6  A    between atoms: O_9  and  C_10
REMARK    7  A    between atoms: C_10  and  C_11
REMARK    8  A    between atoms: N_13  and  C_14
REMARK    9  A    between atoms: C_19  and  C_20
REMARK                            x       y       z     vdW  Elec       q    Type
REMARK                         _______ _______ _______ _____ _____    ______ ____
ROOT
ATOM      1  C   UNL     1       2.314   7.375  18.817  0.00  0.00    +0.000 C 
ATOM      2  O   UNL     1       2.207   7.463  20.028  0.00  0.00    +0.000 OA
ENDROOT
BRANCH   1   5
ATOM      3  N   UNL     1       5.289   5.961  17.139  0.00  0.00    +0.000 N 
ATOM      4  N   UNL     1       4.381   6.831  17.692  0.00  0.00    +0.000 NA
ATOM      5  C   UNL     1       3.251   6.367  18.141  0.00  0.00    +0.000 A 
ATOM      6  C   UNL     1       2.869   4.942  18.061  0.00  0.00    +0.000 A 
ATOM      7  C   UNL     1       1.623   4.440  18.465  0.00  0.00    +0.000 A 
ATOM      8  C   UNL     1       1.346   3.072  18.352  0.00  0.00    +0.000 A 
ATOM      9  C   UNL     1       2.305   2.199  17.846  0.00  0.00    +0.000 A 
ATOM     10  C   UNL     1       3.543   2.694  17.442  0.00  0.00    +0.000 A 
ATOM     11  C   UNL     1       3.816   4.066  17.539  0.00  0.00    +0.000 A 
ATOM     12  C   UNL     1       5.105   4.582  17.048  0.00  0.00    +0.000 A 
ATOM     13  O   UNL     1       5.926   3.805  16.575  0.00  0.00    +0.000 OA
BRANCH   3  14
ATOM     14  C   UNL     1       6.505   6.552  16.588  0.00  0.00    +0.000 C 
BRANCH  14  16
ATOM     15  C   UNL     1       7.857   8.372  17.689  0.00  0.00    +0.000 C 
ATOM     16  C   UNL     1       7.509   6.892  17.691  0.00  0.00    +0.000 C 
ENDBRANCH  14  16
ENDBRANCH   3  14
ENDBRANCH   1   5
BRANCH   1  17
ATOM     17  O   UNL     1       1.679   8.146  17.914  0.00  0.00    +0.000 OA
BRANCH  17  18
ATOM     18  C   UNL     1       2.180   9.479  17.799  0.00  0.00    +0.000 C 
BRANCH  18  19
ATOM     19  C   UNL     1       1.343  10.563  18.489  0.00  0.00    +0.000 C 
ATOM     20  O   UNL     1       1.773  11.705  18.641  0.00  0.00    +0.000 OA
ATOM     21  N   UNL     1       0.107  10.118  18.932  0.00  0.00    +0.000 N 
ATOM     22  H   UNL     1       0.106   9.166  19.291  0.00  0.00    +0.000 HD
BRANCH  21  23
ATOM     23  C   UNL     1      -0.745  10.973  19.648  0.00  0.00    +0.000 A 
ATOM     24  N   UNL     1      -1.539  11.730  18.862  0.00  0.00    +0.000 NA
ATOM     25  C   UNL     1      -2.461  12.493  19.492  0.00  0.00    +0.000 A 
ATOM     26  C   UNL     1      -2.601  12.581  20.874  0.00  0.00    +0.000 A 
ATOM     27 CL   UNL     1      -3.850  13.595  21.494  0.00  0.00    +0.000 Cl
ATOM     28  C   UNL     1      -1.719  11.862  21.692  0.00  0.00    +0.000 A 
ATOM     29  C   UNL     1      -1.763  11.942  23.195  0.00  0.00    +0.000 C 
ATOM     30  C   UNL     1      -0.760  11.046  21.054  0.00  0.00    +0.000 A 
ATOM     31 CL   UNL     1       0.484  10.275  21.997  0.00  0.00    +0.000 Cl
ENDBRANCH  21  23
ENDBRANCH  18  19
ENDBRANCH  17  18
ENDBRANCH   1  17
TORSDOF 7
ENDMDL
MODEL 7
REMARK VINA RESULT:      -8.1      1.893      3.666
REMARK  Name = 
REMARK  9 active torsions:
REMARK  status: ('A' for Active; 'I' for Inactive)
REMARK    1  A    between atoms: C_1  and  C_2
REMARK    2  A    between atoms: C_2  and  C_3
REMARK    3  A    between atoms: C_3  and  N_4
REMARK    4  A    between atoms: C_6  and  C_7
REMARK    5  A    between atoms: C_7  and  O_9
REMARK    6  A    between atoms: O_9  and  C_10
REMARK    7  A    between atoms: C_10  and  C_11
REMARK    8  A    between atoms: N_13  and  C_14
REMARK    9  A    between atoms: C_19  and  C_20
REMARK                            x       y       z     vdW  Elec       q    Type
REMARK                         _______ _______ _______ _____ _____    ______ ____
ROOT
ATOM      1  C   UNL     1       2.246   7.452  19.031  0.00  0.00    +0.000 C 
ATOM      2  O   UNL     1       2.329   7.825  20.189  0.00  0.00    +0.000 OA
ENDROOT
BRANCH   1   5
ATOM      3  N   UNL     1       2.137   3.774  18.681  0.00  0.00    +0.000 N 
ATOM      4  N   UNL     1       1.898   5.063  19.091  0.00  0.00    +0.000 NA
ATOM      5  C   UNL     1       2.613   6.029  18.592  0.00  0.00    +0.000 A 
ATOM      6  C   UNL     1       3.704   5.814  17.620  0.00  0.00    +0.000 A 
ATOM      7  C   UNL     1       4.537   6.834  17.137  0.00  0.00    +0.000 A 
ATOM      8  C   UNL     1       5.550   6.539  16.216  0.00  0.00    +0.000 A 
ATOM      9  C   UNL     1       5.734   5.234  15.767  0.00  0.00    +0.000 A 
ATOM     10  C   UNL     1       4.910   4.217  16.246  0.00  0.00    +0.000 A 
ATOM     11  C   UNL     1       3.906   4.509  17.181  0.00  0.00    +0.000 A 
ATOM     12  C   UNL     1       3.087   3.413  17.726  0.00  0.00    +0.000 A 
ATOM     13  O   UNL     1       3.283   2.266  17.345  0.00  0.00    +0.000 OA
BRANCH   3  14
ATOM     14  C   UNL     1       1.352   2.727  19.330  0.00  0.00    +0.000 C 
BRANCH  14  16
ATOM     15  C   UNL     1       1.976   2.585  21.767  0.00  0.00    +0.000 C 
ATOM     16  C   UNL     1       0.972   3.119  20.758  0.00  0.00    +0.000 C 
ENDBRANCH  14  16
ENDBRANCH   3  14
ENDBRANCH   1   5
BRANCH   1  17
ATOM     17  O   UNL     1       1.869   8.213  17.986  0.00  0.00    +0.000 OA
BRANCH  17  18
ATOM     18  C   UNL     1       1.600   9.580  18.301  0.00  0.00    +0.000 C 
BRANCH  18  19
ATOM     19  C   UNL     1       0.149   9.899  18.681  0.00  0.00    +0.000 C 
ATOM     20  O   UNL     1      -0.295   9.631  19.796  0.00  0.00    +0.000 OA
ATOM     21  N   UNL     1      -0.585  10.472  17.654  0.00  0.00    +0.000 N 
ATOM     22  H   UNL     1      -0.367  10.111  16.728  0.00  0.00    +0.000 HD
BRANCH  21  23
ATOM     23  C   UNL     1      -1.949  10.754  17.823  0.00  0.00    +0.000 A 
ATOM     24  N   UNL     1      -2.759   9.999  17.051  0.00  0.00    +0.000 NA
ATOM     25  C   UNL     1      -4.089  10.144  17.248  0.00  0.00    +0.000 A 
ATOM     26  C   UNL     1      -4.660  11.046  18.142  0.00  0.00    +0.000 A 
ATOM     27 CL   UNL     1      -6.380  11.074  18.268  0.00  0.00    +0.000 Cl
ATOM     28  C   UNL     1      -3.822  11.892  18.880  0.00  0.00    +0.000 A 
ATOM     29  C   UNL     1      -4.356  12.933  19.828  0.00  0.00    +0.000 C 
ATOM     30  C   UNL     1      -2.429  11.744  18.702  0.00  0.00    +0.000 A 
ATOM     31 CL   UNL     1      -1.338  12.882  19.439  0.00  0.00    +0.000 Cl
ENDBRANCH  21  23
ENDBRANCH  18  19
ENDBRANCH  17  18
ENDBRANCH   1  17
TORSDOF 7
ENDMDL
MODEL 8
REMARK VINA RESULT:      -8.1      2.042      3.797
REMARK  Name = 
REMARK  9 active torsions:
REMARK  status: ('A' for Active; 'I' for Inactive)
REMARK    1  A    between atoms: C_1  and  C_2
REMARK    2  A    between atoms: C_2  and  C_3
REMARK    3  A    between atoms: C_3  and  N_4
REMARK    4  A    between atoms: C_6  and  C_7
REMARK    5  A    between atoms: C_7  and  O_9
REMARK    6  A    between atoms: O_9  and  C_10
REMARK    7  A    between atoms: C_10  and  C_11
REMARK    8  A    between atoms: N_13  and  C_14
REMARK    9  A    between atoms: C_19  and  C_20
REMARK                            x       y       z     vdW  Elec       q    Type
REMARK                         _______ _______ _______ _____ _____    ______ ____
ROOT
ATOM      1  C   UNL     1       2.230   7.379  19.107  0.00  0.00    +0.000 C 
ATOM      2  O   UNL     1       2.204   8.298  18.306  0.00  0.00    +0.000 OA
ENDROOT
BRANCH   1   5
ATOM      3  N   UNL     1       1.951   3.703  18.836  0.00  0.00    +0.000 N 
ATOM      4  N   UNL     1       1.775   5.010  19.221  0.00  0.00    +0.000 NA
ATOM      5  C   UNL     1       2.527   5.932  18.694  0.00  0.00    +0.000 A 
ATOM      6  C   UNL     1       3.596   5.648  17.715  0.00  0.00    +0.000 A 
ATOM      7  C   UNL     1       4.468   6.619  17.201  0.00  0.00    +0.000 A 
ATOM      8  C   UNL     1       5.455   6.260  16.275  0.00  0.00    +0.000 A 
ATOM      9  C   UNL     1       5.575   4.939  15.852  0.00  0.00    +0.000 A 
ATOM     10  C   UNL     1       4.712   3.971  16.361  0.00  0.00    +0.000 A 
ATOM     11  C   UNL     1       3.733   4.326  17.300  0.00  0.00    +0.000 A 
ATOM     12  C   UNL     1       2.872   3.280  17.877  0.00  0.00    +0.000 A 
ATOM     13  O   UNL     1       3.011   2.118  17.518  0.00  0.00    +0.000 OA
BRANCH   3  14
ATOM     14  C   UNL     1       1.127   2.707  19.514  0.00  0.00    +0.000 C 
BRANCH  14  16
ATOM     15  C   UNL     1       2.543   2.609  21.597  0.00  0.00    +0.000 C 
ATOM     16  C   UNL     1       1.161   2.895  21.032  0.00  0.00    +0.000 C 
ENDBRANCH  14  16
ENDBRANCH   3  14
ENDBRANCH   1   5
BRANCH   1  17
ATOM     17  O   UNL     1       1.974   7.477  20.425  0.00  0.00    +0.000 OA
BRANCH  17  18
ATOM     18  C   UNL     1       1.728   8.804  20.894  0.00  0.00    +0.000 C 
BRANCH  18  19
ATOM     19  C   UNL     1       0.303   9.330  20.677  0.00  0.00    +0.000 C 
ATOM     20  O   UNL     1      -0.650   8.875  21.306  0.00  0.00    +0.000 OA
ATOM     21  N   UNL     1       0.213  10.315  19.707  0.00  0.00    +0.000 N 
ATOM     22  H   UNL     1       0.836  10.182  18.912  0.00  0.00    +0.000 HD
BRANCH  21  23
ATOM     23  C   UNL     1      -1.033  10.845  19.340  0.00  0.00    +0.000 A 
ATOM     24  N   UNL     1      -1.538  10.311  18.208  0.00  0.00    +0.000 NA
ATOM     25  C   UNL     1      -2.787  10.699  17.862  0.00  0.00    +0.000 A 
ATOM     26  C   UNL     1      -3.544  11.635  18.560  0.00  0.00    +0.000 A 
ATOM     27 CL   UNL     1      -5.127  11.988  17.976  0.00  0.00    +0.000 Cl
ATOM     28  C   UNL     1      -2.985  12.255  19.687  0.00  0.00    +0.000 A 
ATOM     29  C   UNL     1      -3.712  13.317  20.468  0.00  0.00    +0.000 C 
ATOM     30  C   UNL     1      -1.690  11.851  20.075  0.00  0.00    +0.000 A 
ATOM     31 CL   UNL     1      -0.861  12.708  21.344  0.00  0.00    +0.000 Cl
ENDBRANCH  21  23
ENDBRANCH  18  19
ENDBRANCH  17  18
ENDBRANCH   1  17
TORSDOF 7
ENDMDL
MODEL 9
REMARK VINA RESULT:      -8.1      2.563      4.250
REMARK  Name = 
REMARK  9 active torsions:
REMARK  status: ('A' for Active; 'I' for Inactive)
REMARK    1  A    between atoms: C_1  and  C_2
REMARK    2  A    between atoms: C_2  and  C_3
REMARK    3  A    between atoms: C_3  and  N_4
REMARK    4  A    between atoms: C_6  and  C_7
REMARK    5  A    between atoms: C_7  and  O_9
REMARK    6  A    between atoms: O_9  and  C_10
REMARK    7  A    between atoms: C_10  and  C_11
REMARK    8  A    between atoms: N_13  and  C_14
REMARK    9  A    between atoms: C_19  and  C_20
REMARK                            x       y       z     vdW  Elec       q    Type
REMARK                         _______ _______ _______ _____ _____    ______ ____
ROOT
ATOM      1  C   UNL     1       2.309   7.524  18.709  0.00  0.00    +0.000 C 
ATOM      2  O   UNL     1       1.954   8.315  17.851  0.00  0.00    +0.000 OA
ENDROOT
BRANCH   1   5
ATOM      3  N   UNL     1       2.333   3.829  18.648  0.00  0.00    +0.000 N 
ATOM      4  N   UNL     1       2.045   5.137  18.955  0.00  0.00    +0.000 NA
ATOM      5  C   UNL     1       2.729   6.086  18.385  0.00  0.00    +0.000 A 
ATOM      6  C   UNL     1       3.833   5.835  17.436  0.00  0.00    +0.000 A 
ATOM      7  C   UNL     1       4.632   6.843  16.877  0.00  0.00    +0.000 A 
ATOM      8  C   UNL     1       5.660   6.513  15.985  0.00  0.00    +0.000 A 
ATOM      9  C   UNL     1       5.893   5.184  15.640  0.00  0.00    +0.000 A 
ATOM     10  C   UNL     1       5.103   4.180  16.195  0.00  0.00    +0.000 A 
ATOM     11  C   UNL     1       4.083   4.507  17.101  0.00  0.00    +0.000 A 
ATOM     12  C   UNL     1       3.300   3.429  17.727  0.00  0.00    +0.000 A 
ATOM     13  O   UNL     1       3.539   2.263  17.438  0.00  0.00    +0.000 OA
BRANCH   3  14
ATOM     14  C   UNL     1       1.581   2.809  19.374  0.00  0.00    +0.000 C 
BRANCH  14  16
ATOM     15  C   UNL     1       1.687   2.584  21.882  0.00  0.00    +0.000 C 
ATOM     16  C   UNL     1       1.072   3.340  20.715  0.00  0.00    +0.000 C 
ENDBRANCH  14  16
ENDBRANCH   3  14
ENDBRANCH   1   5
BRANCH   1  17
ATOM     17  O   UNL     1       2.351   7.768  20.033  0.00  0.00    +0.000 OA
BRANCH  17  18
ATOM     18  C   UNL     1       1.110   8.174  20.612  0.00  0.00    +0.000 C 
BRANCH  18  19
ATOM     19  C   UNL     1       0.898   9.689  20.730  0.00  0.00    +0.000 C 
ATOM     20  O   UNL     1       1.230  10.305  21.741  0.00  0.00    +0.000 OA
ATOM     21  N   UNL     1       0.284  10.255  19.624  0.00  0.00    +0.000 N 
ATOM     22  H   UNL     1      -0.430   9.671  19.192  0.00  0.00    +0.000 HD
BRANCH  21  23
ATOM     23  C   UNL     1      -0.046  11.619  19.610  0.00  0.00    +0.000 A 
ATOM     24  N   UNL     1      -1.294  11.879  20.054  0.00  0.00    +0.000 NA
ATOM     25  C   UNL     1      -1.632  13.184  20.172  0.00  0.00    +0.000 A 
ATOM     26  C   UNL     1      -0.808  14.248  19.818  0.00  0.00    +0.000 A 
ATOM     27 CL   UNL     1      -1.409  15.846  20.057  0.00  0.00    +0.000 Cl
ATOM     28  C   UNL     1       0.455  13.976  19.274  0.00  0.00    +0.000 A 
ATOM     29  C   UNL     1       1.389  15.064  18.815  0.00  0.00    +0.000 C 
ATOM     30  C   UNL     1       0.835  12.621  19.161  0.00  0.00    +0.000 A 
ATOM     31 CL   UNL     1       2.303  12.203  18.324  0.00  0.00    +0.000 Cl
ENDBRANCH  21  23
ENDBRANCH  18  19
ENDBRANCH  17  18
ENDBRANCH   1  17
TORSDOF 7
ENDMDL
