MODEL 1
REMARK VINA RESULT:      -8.6      0.000      0.000
REMARK  Name = 
REMARK  7 active torsions:
REMARK  status: ('A' for Active; 'I' for Inactive)
REMARK    1  A    between atoms: C_1  and  O_2
REMARK    2  A    between atoms: O_2  and  C_3
REMARK    3  A    between atoms: C_6  and  C_7
REMARK    4  A    between atoms: C_7  and  C_8
REMARK    5  A    between atoms: C_10  and  C_11
REMARK    6  A    between atoms: N_13  and  C_14
REMARK    7  A    between atoms: C_14  and  C_15
REMARK                            x       y       z     vdW  Elec       q    Type
REMARK                         _______ _______ _______ _____ _____    ______ ____
ROOT
ATOM      1  C   UNL     1       4.989   6.512  17.432  0.00  0.00    +0.000 C 
ATOM      2  N   UNL     1       5.162   6.216  15.987  0.00  0.00    +0.000 NA
ATOM      3  C   UNL     1       5.568   4.846  15.653  0.00  0.00    +0.000 C 
ATOM      4  C   UNL     1       5.032   3.822  16.640  0.00  0.00    +0.000 C 
ATOM      5  O   UNL     1       5.374   4.128  17.998  0.00  0.00    +0.000 OA
ATOM      6  C   UNL     1       5.438   5.419  18.405  0.00  0.00    +0.000 C 
ATOM      7  O   UNL     1       5.755   5.682  19.562  0.00  0.00    +0.000 OA
ATOM      8  H   UNL     1       5.862   6.862  15.609  0.00  0.00    +0.000 HD
ENDROOT
BRANCH   3   9
ATOM      9  C   UNL     1       7.101   4.723  15.540  0.00  0.00    +0.000 C 
ATOM     10  O   UNL     1       7.839   4.720  16.529  0.00  0.00    +0.000 OA
ATOM     11  N   UNL     1       7.654   4.606  14.290  0.00  0.00    +0.000 N 
ATOM     12  H   UNL     1       8.665   4.565  14.308  0.00  0.00    +0.000 HD
BRANCH  11  13
ATOM     13  C   UNL     1       7.021   4.924  13.018  0.00  0.00    +0.000 C 
BRANCH  13  14
ATOM     14  C   UNL     1       6.587   3.691  12.266  0.00  0.00    +0.000 A 
ATOM     15  C   UNL     1       7.530   2.781  11.762  0.00  0.00    +0.000 A 
ATOM     16  C   UNL     1       7.121   1.646  11.063  0.00  0.00    +0.000 A 
ATOM     17  C   UNL     1       5.765   1.397  10.869  0.00  0.00    +0.000 A 
ATOM     18  C   UNL     1       4.815   2.279  11.381  0.00  0.00    +0.000 A 
ATOM     19  C   UNL     1       5.223   3.417  12.081  0.00  0.00    +0.000 A 
ENDBRANCH  13  14
ENDBRANCH  11  13
ENDBRANCH   3   9
BRANCH   1  20
ATOM     20  C   UNL     1       3.528   6.895  17.790  0.00  0.00    +0.000 C 
BRANCH  20  24
ATOM     21  C   UNL     1       1.364   3.715  19.796  0.00  0.00    +0.000 A 
ATOM     22  C   UNL     1       1.954   4.743  20.526  0.00  0.00    +0.000 A 
ATOM     23  C   UNL     1       2.598   5.797  19.877  0.00  0.00    +0.000 A 
ATOM     24  C   UNL     1       2.725   5.812  18.484  0.00  0.00    +0.000 A 
ATOM     25  C   UNL     1       2.087   4.800  17.751  0.00  0.00    +0.000 A 
ATOM     26  C   UNL     1       1.404   3.759  18.403  0.00  0.00    +0.000 A 
BRANCH  21  28
ATOM     27  C   UNL     1       1.368   2.565  21.867  0.00  0.00    +0.000 C 
ATOM     28  O   UNL     1       0.839   2.710  20.558  0.00  0.00    +0.000 OA
ENDBRANCH  21  28
ENDBRANCH  20  24
ENDBRANCH   1  20
TORSDOF 6
ENDMDL
MODEL 2
REMARK VINA RESULT:      -8.3      3.501      5.697
REMARK  Name = 
REMARK  7 active torsions:
REMARK  status: ('A' for Active; 'I' for Inactive)
REMARK    1  A    between atoms: C_1  and  O_2
REMARK    2  A    between atoms: O_2  and  C_3
REMARK    3  A    between atoms: C_6  and  C_7
REMARK    4  A    between atoms: C_7  and  C_8
REMARK    5  A    between atoms: C_10  and  C_11
REMARK    6  A    between atoms: N_13  and  C_14
REMARK    7  A    between atoms: C_14  and  C_15
REMARK                            x       y       z     vdW  Elec       q    Type
REMARK                         _______ _______ _______ _____ _____    ______ ____
ROOT
ATOM      1  C   UNL     1       2.565   4.671  20.424  0.00  0.00    +0.000 C 
ATOM      2  N   UNL     1       2.741   4.696  18.950  0.00  0.00    +0.000 NA
ATOM      3  C   UNL     1       2.432   3.448  18.241  0.00  0.00    +0.000 C 
ATOM      4  C   UNL     1       1.332   2.649  18.921  0.00  0.00    +0.000 C 
ATOM      5  O   UNL     1       1.611   2.385  20.302  0.00  0.00    +0.000 OA
ATOM      6  C   UNL     1       2.271   3.304  21.047  0.00  0.00    +0.000 C 
ATOM      7  O   UNL     1       2.532   3.067  22.223  0.00  0.00    +0.000 OA
ATOM      8  H   UNL     1       3.713   4.951  18.747  0.00  0.00    +0.000 HD
ENDROOT
BRANCH   3   9
ATOM      9  C   UNL     1       3.690   2.575  18.061  0.00  0.00    +0.000 C 
ATOM     10  O   UNL     1       3.907   1.577  18.753  0.00  0.00    +0.000 OA
ATOM     11  N   UNL     1       4.591   2.925  17.088  0.00  0.00    +0.000 N 
ATOM     12  H   UNL     1       5.400   2.317  17.063  0.00  0.00    +0.000 HD
BRANCH  11  13
ATOM     13  C   UNL     1       4.700   4.212  16.416  0.00  0.00    +0.000 C 
BRANCH  13  14
ATOM     14  C   UNL     1       5.753   5.097  17.035  0.00  0.00    +0.000 A 
ATOM     15  C   UNL     1       5.782   6.476  16.776  0.00  0.00    +0.000 A 
ATOM     16  C   UNL     1       6.762   7.287  17.348  0.00  0.00    +0.000 A 
ATOM     17  C   UNL     1       7.718   6.735  18.196  0.00  0.00    +0.000 A 
ATOM     18  C   UNL     1       7.690   5.370  18.481  0.00  0.00    +0.000 A 
ATOM     19  C   UNL     1       6.710   4.556  17.908  0.00  0.00    +0.000 A 
ENDBRANCH  13  14
ENDBRANCH  11  13
ENDBRANCH   3   9
BRANCH   1  20
ATOM     20  C   UNL     1       1.470   5.659  20.909  0.00  0.00    +0.000 C 
BRANCH  20  24
ATOM     21  C   UNL     1       1.521   9.611  19.121  0.00  0.00    +0.000 A 
ATOM     22  C   UNL     1       0.962   9.408  20.380  0.00  0.00    +0.000 A 
ATOM     23  C   UNL     1       0.999   8.149  20.980  0.00  0.00    +0.000 A 
ATOM     24  C   UNL     1       1.538   7.049  20.305  0.00  0.00    +0.000 A 
ATOM     25  C   UNL     1       2.143   7.268  19.059  0.00  0.00    +0.000 A 
ATOM     26  C   UNL     1       2.140   8.545  18.471  0.00  0.00    +0.000 A 
BRANCH  21  28
ATOM     27  C   UNL     1       0.050  11.435  18.772  0.00  0.00    +0.000 C 
ATOM     28  O   UNL     1       1.343  10.870  18.621  0.00  0.00    +0.000 OA
ENDBRANCH  21  28
ENDBRANCH  20  24
ENDBRANCH   1  20
TORSDOF 6
ENDMDL
MODEL 3
REMARK VINA RESULT:      -8.2      3.389      5.773
REMARK  Name = 
REMARK  7 active torsions:
REMARK  status: ('A' for Active; 'I' for Inactive)
REMARK    1  A    between atoms: C_1  and  O_2
REMARK    2  A    between atoms: O_2  and  C_3
REMARK    3  A    between atoms: C_6  and  C_7
REMARK    4  A    between atoms: C_7  and  C_8
REMARK    5  A    between atoms: C_10  and  C_11
REMARK    6  A    between atoms: N_13  and  C_14
REMARK    7  A    between atoms: C_14  and  C_15
REMARK                            x       y       z     vdW  Elec       q    Type
REMARK                         _______ _______ _______ _____ _____    ______ ____
ROOT
ATOM      1  C   UNL     1       2.660   4.955  20.380  0.00  0.00    +0.000 C 
ATOM      2  N   UNL     1       2.974   4.929  18.929  0.00  0.00    +0.000 NA
ATOM      3  C   UNL     1       2.589   3.710  18.208  0.00  0.00    +0.000 C 
ATOM      4  C   UNL     1       1.347   3.055  18.789  0.00  0.00    +0.000 C 
ATOM      5  O   UNL     1       1.465   2.790  20.193  0.00  0.00    +0.000 OA
ATOM      6  C   UNL     1       2.155   3.644  20.987  0.00  0.00    +0.000 C 
ATOM      7  O   UNL     1       2.276   3.403  22.185  0.00  0.00    +0.000 OA
ATOM      8  H   UNL     1       3.982   5.067  18.817  0.00  0.00    +0.000 HD
ENDROOT
BRANCH   3   9
ATOM      9  C   UNL     1       3.750   2.696  18.156  0.00  0.00    +0.000 C 
ATOM     10  O   UNL     1       3.867   1.783  18.978  0.00  0.00    +0.000 OA
ATOM     11  N   UNL     1       4.676   2.817  17.151  0.00  0.00    +0.000 N 
ATOM     12  H   UNL     1       5.417   2.132  17.214  0.00  0.00    +0.000 HD
BRANCH  11  13
ATOM     13  C   UNL     1       4.912   3.983  16.313  0.00  0.00    +0.000 C 
BRANCH  13  14
ATOM     14  C   UNL     1       5.855   4.971  16.954  0.00  0.00    +0.000 A 
ATOM     15  C   UNL     1       5.742   6.347  16.702  0.00  0.00    +0.000 A 
ATOM     16  C   UNL     1       6.622   7.253  17.293  0.00  0.00    +0.000 A 
ATOM     17  C   UNL     1       7.617   6.800  18.154  0.00  0.00    +0.000 A 
ATOM     18  C   UNL     1       7.730   5.438  18.431  0.00  0.00    +0.000 A 
ATOM     19  C   UNL     1       6.850   4.528  17.839  0.00  0.00    +0.000 A 
ENDBRANCH  13  14
ENDBRANCH  11  13
ENDBRANCH   3   9
BRANCH   1  20
ATOM     20  C   UNL     1       1.646   6.071  20.750  0.00  0.00    +0.000 C 
BRANCH  20  24
ATOM     21  C   UNL     1       1.976   9.675  18.358  0.00  0.00    +0.000 A 
ATOM     22  C   UNL     1       2.559   8.484  17.932  0.00  0.00    +0.000 A 
ATOM     23  C   UNL     1       2.402   7.312  18.672  0.00  0.00    +0.000 A 
ATOM     24  C   UNL     1       1.714   7.319  19.890  0.00  0.00    +0.000 A 
ATOM     25  C   UNL     1       1.087   8.508  20.289  0.00  0.00    +0.000 A 
ATOM     26  C   UNL     1       1.212   9.681  19.524  0.00  0.00    +0.000 A 
BRANCH  21  28
ATOM     27  C   UNL     1       2.280  12.021  18.232  0.00  0.00    +0.000 C 
ATOM     28  O   UNL     1       2.276  10.759  17.583  0.00  0.00    +0.000 OA
ENDBRANCH  21  28
ENDBRANCH  20  24
ENDBRANCH   1  20
TORSDOF 6
ENDMDL
MODEL 4
REMARK VINA RESULT:      -8.2      3.885      7.850
REMARK  Name = 
REMARK  7 active torsions:
REMARK  status: ('A' for Active; 'I' for Inactive)
REMARK    1  A    between atoms: C_1  and  O_2
REMARK    2  A    between atoms: O_2  and  C_3
REMARK    3  A    between atoms: C_6  and  C_7
REMARK    4  A    between atoms: C_7  and  C_8
REMARK    5  A    between atoms: C_10  and  C_11
REMARK    6  A    between atoms: N_13  and  C_14
REMARK    7  A    between atoms: C_14  and  C_15
REMARK                            x       y       z     vdW  Elec       q    Type
REMARK                         _______ _______ _______ _____ _____    ______ ____
ROOT
ATOM      1  C   UNL     1       3.683   4.449  17.886  0.00  0.00    +0.000 C 
ATOM      2  N   UNL     1       3.673   4.977  19.274  0.00  0.00    +0.000 NA
ATOM      3  C   UNL     1       3.012   4.138  20.280  0.00  0.00    +0.000 C 
ATOM      4  C   UNL     1       3.128   2.654  19.970  0.00  0.00    +0.000 C 
ATOM      5  O   UNL     1       2.660   2.324  18.656  0.00  0.00    +0.000 OA
ATOM      6  C   UNL     1       2.841   3.195  17.634  0.00  0.00    +0.000 C 
ATOM      7  O   UNL     1       2.418   2.923  16.514  0.00  0.00    +0.000 OA
ATOM      8  H   UNL     1       3.215   5.894  19.265  0.00  0.00    +0.000 HD
ENDROOT
BRANCH   3   9
ATOM      9  C   UNL     1       1.530   4.529  20.456  0.00  0.00    +0.000 C 
ATOM     10  O   UNL     1       0.607   3.756  20.190  0.00  0.00    +0.000 OA
ATOM     11  N   UNL     1       1.241   5.782  20.933  0.00  0.00    +0.000 N 
ATOM     12  H   UNL     1       0.247   5.964  20.985  0.00  0.00    +0.000 HD
BRANCH  11  13
ATOM     13  C   UNL     1       2.134   6.931  20.979  0.00  0.00    +0.000 C 
BRANCH  13  14
ATOM     14  C   UNL     1       1.740   8.007  19.998  0.00  0.00    +0.000 A 
ATOM     15  C   UNL     1       0.919   9.076  20.389  0.00  0.00    +0.000 A 
ATOM     16  C   UNL     1       0.555  10.064  19.474  0.00  0.00    +0.000 A 
ATOM     17  C   UNL     1       1.015  10.004  18.162  0.00  0.00    +0.000 A 
ATOM     18  C   UNL     1       1.848   8.960  17.763  0.00  0.00    +0.000 A 
ATOM     19  C   UNL     1       2.214   7.969  18.678  0.00  0.00    +0.000 A 
ENDBRANCH  13  14
ENDBRANCH  11  13
ENDBRANCH   3   9
BRANCH   1  20
ATOM     20  C   UNL     1       5.118   4.169  17.366  0.00  0.00    +0.000 C 
BRANCH  20  24
ATOM     21  C   UNL     1       7.914   7.376  18.215  0.00  0.00    +0.000 A 
ATOM     22  C   UNL     1       8.008   6.156  18.881  0.00  0.00    +0.000 A 
ATOM     23  C   UNL     1       7.147   5.106  18.565  0.00  0.00    +0.000 A 
ATOM     24  C   UNL     1       6.127   5.273  17.622  0.00  0.00    +0.000 A 
ATOM     25  C   UNL     1       6.068   6.485  16.920  0.00  0.00    +0.000 A 
ATOM     26  C   UNL     1       6.961   7.531  17.210  0.00  0.00    +0.000 A 
BRANCH  21  28
ATOM     27  C   UNL     1       8.513   9.668  18.248  0.00  0.00    +0.000 C 
ATOM     28  O   UNL     1       8.764   8.339  18.679  0.00  0.00    +0.000 OA
ENDBRANCH  21  28
ENDBRANCH  20  24
ENDBRANCH   1  20
TORSDOF 6
ENDMDL
MODEL 5
REMARK VINA RESULT:      -8.2      3.774      8.488
REMARK  Name = 
REMARK  7 active torsions:
REMARK  status: ('A' for Active; 'I' for Inactive)
REMARK    1  A    between atoms: C_1  and  O_2
REMARK    2  A    between atoms: O_2  and  C_3
REMARK    3  A    between atoms: C_6  and  C_7
REMARK    4  A    between atoms: C_7  and  C_8
REMARK    5  A    between atoms: C_10  and  C_11
REMARK    6  A    between atoms: N_13  and  C_14
REMARK    7  A    between atoms: C_14  and  C_15
REMARK                            x       y       z     vdW  Elec       q    Type
REMARK                         _______ _______ _______ _____ _____    ______ ____
ROOT
ATOM      1  C   UNL     1       3.457   4.522  17.732  0.00  0.00    +0.000 C 
ATOM      2  N   UNL     1       3.569   5.269  19.011  0.00  0.00    +0.000 NA
ATOM      3  C   UNL     1       3.155   4.546  20.219  0.00  0.00    +0.000 C 
ATOM      4  C   UNL     1       3.408   3.051  20.119  0.00  0.00    +0.000 C 
ATOM      5  O   UNL     1       2.812   2.464  18.955  0.00  0.00    +0.000 OA
ATOM      6  C   UNL     1       2.748   3.168  17.800  0.00  0.00    +0.000 C 
ATOM      7  O   UNL     1       2.215   2.674  16.810  0.00  0.00    +0.000 OA
ATOM      8  H   UNL     1       3.006   6.121  18.934  0.00  0.00    +0.000 HD
ENDROOT
BRANCH   3   9
ATOM      9  C   UNL     1       1.674   4.813  20.556  0.00  0.00    +0.000 C 
ATOM     10  O   UNL     1       0.837   3.910  20.620  0.00  0.00    +0.000 OA
ATOM     11  N   UNL     1       1.286   6.106  20.801  0.00  0.00    +0.000 N 
ATOM     12  H   UNL     1       0.294   6.192  20.980  0.00  0.00    +0.000 HD
BRANCH  11  13
ATOM     13  C   UNL     1       2.010   7.320  20.451  0.00  0.00    +0.000 C 
BRANCH  13  14
ATOM     14  C   UNL     1       1.189   8.565  20.675  0.00  0.00    +0.000 A 
ATOM     15  C   UNL     1       0.940   9.466  19.627  0.00  0.00    +0.000 A 
ATOM     16  C   UNL     1       0.185  10.618  19.844  0.00  0.00    +0.000 A 
ATOM     17  C   UNL     1      -0.343  10.880  21.105  0.00  0.00    +0.000 A 
ATOM     18  C   UNL     1      -0.123   9.985  22.151  0.00  0.00    +0.000 A 
ATOM     19  C   UNL     1       0.634   8.831  21.936  0.00  0.00    +0.000 A 
ENDBRANCH  13  14
ENDBRANCH  11  13
ENDBRANCH   3   9
BRANCH   1  20
ATOM     20  C   UNL     1       4.834   4.303  17.049  0.00  0.00    +0.000 C 
BRANCH  20  24
ATOM     21  C   UNL     1       7.800   7.261  18.179  0.00  0.00    +0.000 A 
ATOM     22  C   UNL     1       7.787   6.004  18.777  0.00  0.00    +0.000 A 
ATOM     23  C   UNL     1       6.871   5.033  18.371  0.00  0.00    +0.000 A 
ATOM     24  C   UNL     1       5.903   5.320  17.403  0.00  0.00    +0.000 A 
ATOM     25  C   UNL     1       5.952   6.570  16.769  0.00  0.00    +0.000 A 
ATOM     26  C   UNL     1       6.899   7.536  17.151  0.00  0.00    +0.000 A 
BRANCH  21  28
ATOM     27  C   UNL     1       8.591   9.490  18.310  0.00  0.00    +0.000 C 
ATOM     28  O   UNL     1       8.693   8.138  18.727  0.00  0.00    +0.000 OA
ENDBRANCH  21  28
ENDBRANCH  20  24
ENDBRANCH   1  20
TORSDOF 6
ENDMDL
MODEL 6
REMARK VINA RESULT:      -8.1      2.271      7.430
REMARK  Name = 
REMARK  7 active torsions:
REMARK  status: ('A' for Active; 'I' for Inactive)
REMARK    1  A    between atoms: C_1  and  O_2
REMARK    2  A    between atoms: O_2  and  C_3
REMARK    3  A    between atoms: C_6  and  C_7
REMARK    4  A    between atoms: C_7  and  C_8
REMARK    5  A    between atoms: C_10  and  C_11
REMARK    6  A    between atoms: N_13  and  C_14
REMARK    7  A    between atoms: C_14  and  C_15
REMARK                            x       y       z     vdW  Elec       q    Type
REMARK                         _______ _______ _______ _____ _____    ______ ____
ROOT
ATOM      1  C   UNL     1       6.341   4.987  15.956  0.00  0.00    +0.000 C 
ATOM      2  N   UNL     1       5.464   4.005  16.642  0.00  0.00    +0.000 NA
ATOM      3  C   UNL     1       4.844   4.457  17.893  0.00  0.00    +0.000 C 
ATOM      4  C   UNL     1       4.561   5.951  17.898  0.00  0.00    +0.000 C 
ATOM      5  O   UNL     1       5.724   6.736  17.603  0.00  0.00    +0.000 OA
ATOM      6  C   UNL     1       6.647   6.275  16.726  0.00  0.00    +0.000 C 
ATOM      7  O   UNL     1       7.655   6.936  16.493  0.00  0.00    +0.000 OA
ATOM      8  H   UNL     1       6.016   3.165  16.839  0.00  0.00    +0.000 HD
ENDROOT
BRANCH   3   9
ATOM      9  C   UNL     1       5.700   4.074  19.117  0.00  0.00    +0.000 C 
ATOM     10  O   UNL     1       6.716   4.697  19.434  0.00  0.00    +0.000 OA
ATOM     11  N   UNL     1       5.303   3.005  19.880  0.00  0.00    +0.000 N 
ATOM     12  H   UNL     1       5.940   2.805  20.640  0.00  0.00    +0.000 HD
BRANCH  11  13
ATOM     13  C   UNL     1       4.366   1.957  19.500  0.00  0.00    +0.000 C 
BRANCH  13  14
ATOM     14  C   UNL     1       2.928   2.389  19.647  0.00  0.00    +0.000 A 
ATOM     15  C   UNL     1       2.490   3.065  20.797  0.00  0.00    +0.000 A 
ATOM     16  C   UNL     1       1.158   3.455  20.928  0.00  0.00    +0.000 A 
ATOM     17  C   UNL     1       0.249   3.190  19.908  0.00  0.00    +0.000 A 
ATOM     18  C   UNL     1       0.673   2.538  18.751  0.00  0.00    +0.000 A 
ATOM     19  C   UNL     1       2.006   2.145  18.618  0.00  0.00    +0.000 A 
ENDBRANCH  13  14
ENDBRANCH  11  13
ENDBRANCH   3   9
BRANCH   1  20
ATOM     20  C   UNL     1       5.804   5.388  14.556  0.00  0.00    +0.000 C 
BRANCH  20  24
ATOM     21  C   UNL     1       6.529   2.384  11.511  0.00  0.00    +0.000 A 
ATOM     22  C   UNL     1       5.260   2.548  12.060  0.00  0.00    +0.000 A 
ATOM     23  C   UNL     1       5.014   3.553  12.994  0.00  0.00    +0.000 A 
ATOM     24  C   UNL     1       6.048   4.376  13.453  0.00  0.00    +0.000 A 
ATOM     25  C   UNL     1       7.313   4.239  12.862  0.00  0.00    +0.000 A 
ATOM     26  C   UNL     1       7.552   3.251  11.891  0.00  0.00    +0.000 A 
BRANCH  21  28
ATOM     27  C   UNL     1       6.080   0.091  11.118  0.00  0.00    +0.000 C 
ATOM     28  O   UNL     1       6.647   1.313  10.671  0.00  0.00    +0.000 OA
ENDBRANCH  21  28
ENDBRANCH  20  24
ENDBRANCH   1  20
TORSDOF 6
ENDMDL
MODEL 7
REMARK VINA RESULT:      -8.1      2.183      2.959
REMARK  Name = 
REMARK  7 active torsions:
REMARK  status: ('A' for Active; 'I' for Inactive)
REMARK    1  A    between atoms: C_1  and  O_2
REMARK    2  A    between atoms: O_2  and  C_3
REMARK    3  A    between atoms: C_6  and  C_7
REMARK    4  A    between atoms: C_7  and  C_8
REMARK    5  A    between atoms: C_10  and  C_11
REMARK    6  A    between atoms: N_13  and  C_14
REMARK    7  A    between atoms: C_14  and  C_15
REMARK                            x       y       z     vdW  Elec       q    Type
REMARK                         _______ _______ _______ _____ _____    ______ ____
ROOT
ATOM      1  C   UNL     1       4.512   5.666  17.718  0.00  0.00    +0.000 C 
ATOM      2  N   UNL     1       4.798   6.058  16.315  0.00  0.00    +0.000 NA
ATOM      3  C   UNL     1       5.404   5.024  15.467  0.00  0.00    +0.000 C 
ATOM      4  C   UNL     1       4.963   3.621  15.852  0.00  0.00    +0.000 C 
ATOM      5  O   UNL     1       5.189   3.329  17.237  0.00  0.00    +0.000 OA
ATOM      6  C   UNL     1       5.055   4.307  18.166  0.00  0.00    +0.000 C 
ATOM      7  O   UNL     1       5.273   4.062  19.349  0.00  0.00    +0.000 OA
ATOM      8  H   UNL     1       5.422   6.870  16.330  0.00  0.00    +0.000 HD
ENDROOT
BRANCH   3   9
ATOM      9  C   UNL     1       6.944   5.118  15.476  0.00  0.00    +0.000 C 
ATOM     10  O   UNL     1       7.591   5.257  16.517  0.00  0.00    +0.000 OA
ATOM     11  N   UNL     1       7.607   5.034  14.279  0.00  0.00    +0.000 N 
ATOM     12  H   UNL     1       8.609   5.139  14.375  0.00  0.00    +0.000 HD
BRANCH  11  13
ATOM     13  C   UNL     1       7.042   5.211  12.949  0.00  0.00    +0.000 C 
BRANCH  13  14
ATOM     14  C   UNL     1       6.705   3.898  12.287  0.00  0.00    +0.000 A 
ATOM     15  C   UNL     1       7.714   3.061  11.784  0.00  0.00    +0.000 A 
ATOM     16  C   UNL     1       7.393   1.852  11.169  0.00  0.00    +0.000 A 
ATOM     17  C   UNL     1       6.064   1.455  11.058  0.00  0.00    +0.000 A 
ATOM     18  C   UNL     1       5.051   2.265  11.571  0.00  0.00    +0.000 A 
ATOM     19  C   UNL     1       5.370   3.477  12.187  0.00  0.00    +0.000 A 
ENDBRANCH  13  14
ENDBRANCH  11  13
ENDBRANCH   3   9
BRANCH   1  20
ATOM     20  C   UNL     1       2.996   5.704  18.049  0.00  0.00    +0.000 C 
BRANCH  20  24
ATOM     21  C   UNL     1       1.366   9.456  19.491  0.00  0.00    +0.000 A 
ATOM     22  C   UNL     1       1.553   8.383  20.358  0.00  0.00    +0.000 A 
ATOM     23  C   UNL     1       2.133   7.198  19.907  0.00  0.00    +0.000 A 
ATOM     24  C   UNL     1       2.477   7.034  18.561  0.00  0.00    +0.000 A 
ATOM     25  C   UNL     1       2.332   8.134  17.703  0.00  0.00    +0.000 A 
ATOM     26  C   UNL     1       1.784   9.343  18.167  0.00  0.00    +0.000 A 
BRANCH  21  28
ATOM     27  C   UNL     1       0.367  10.410  21.416  0.00  0.00    +0.000 C 
ATOM     28  O   UNL     1       0.717  10.523  20.045  0.00  0.00    +0.000 OA
ENDBRANCH  21  28
ENDBRANCH  20  24
ENDBRANCH   1  20
TORSDOF 6
ENDMDL
MODEL 8
REMARK VINA RESULT:      -8.0      3.471      7.963
REMARK  Name = 
REMARK  7 active torsions:
REMARK  status: ('A' for Active; 'I' for Inactive)
REMARK    1  A    between atoms: C_1  and  O_2
REMARK    2  A    between atoms: O_2  and  C_3
REMARK    3  A    between atoms: C_6  and  C_7
REMARK    4  A    between atoms: C_7  and  C_8
REMARK    5  A    between atoms: C_10  and  C_11
REMARK    6  A    between atoms: N_13  and  C_14
REMARK    7  A    between atoms: C_14  and  C_15
REMARK                            x       y       z     vdW  Elec       q    Type
REMARK                         _______ _______ _______ _____ _____    ______ ____
ROOT
ATOM      1  C   UNL     1       3.770   3.992  17.334  0.00  0.00    +0.000 C 
ATOM      2  N   UNL     1       3.435   5.311  17.928  0.00  0.00    +0.000 NA
ATOM      3  C   UNL     1       3.284   5.342  19.388  0.00  0.00    +0.000 C 
ATOM      4  C   UNL     1       4.179   4.332  20.088  0.00  0.00    +0.000 C 
ATOM      5  O   UNL     1       4.001   2.998  19.595  0.00  0.00    +0.000 OA
ATOM      6  C   UNL     1       3.728   2.792  18.284  0.00  0.00    +0.000 C 
ATOM      7  O   UNL     1       3.552   1.651  17.867  0.00  0.00    +0.000 OA
ATOM      8  H   UNL     1       2.561   5.640  17.506  0.00  0.00    +0.000 HD
ENDROOT
BRANCH   3   9
ATOM      9  C   UNL     1       1.815   5.132  19.808  0.00  0.00    +0.000 C 
ATOM     10  O   UNL     1       1.130   4.203  19.374  0.00  0.00    +0.000 OA
ATOM     11  N   UNL     1       1.263   6.012  20.704  0.00  0.00    +0.000 N 
ATOM     12  H   UNL     1       0.289   5.818  20.896  0.00  0.00    +0.000 HD
BRANCH  11  13
ATOM     13  C   UNL     1       1.766   7.331  21.061  0.00  0.00    +0.000 C 
BRANCH  13  14
ATOM     14  C   UNL     1       1.201   8.420  20.184  0.00  0.00    +0.000 A 
ATOM     15  C   UNL     1       0.189   9.273  20.651  0.00  0.00    +0.000 A 
ATOM     16  C   UNL     1      -0.332  10.274  19.831  0.00  0.00    +0.000 A 
ATOM     17  C   UNL     1       0.160  10.445  18.540  0.00  0.00    +0.000 A 
ATOM     18  C   UNL     1       1.179   9.619  18.068  0.00  0.00    +0.000 A 
ATOM     19  C   UNL     1       1.702   8.615  18.887  0.00  0.00    +0.000 A 
ENDBRANCH  13  14
ENDBRANCH  11  13
ENDBRANCH   3   9
BRANCH   1  20
ATOM     20  C   UNL     1       5.153   3.991  16.629  0.00  0.00    +0.000 C 
BRANCH  20  24
ATOM     21  C   UNL     1       7.800   7.123  18.045  0.00  0.00    +0.000 A 
ATOM     22  C   UNL     1       7.882   5.835  18.566  0.00  0.00    +0.000 A 
ATOM     23  C   UNL     1       7.072   4.814  18.068  0.00  0.00    +0.000 A 
ATOM     24  C   UNL     1       6.113   5.075  17.084  0.00  0.00    +0.000 A 
ATOM     25  C   UNL     1       6.068   6.362  16.528  0.00  0.00    +0.000 A 
ATOM     26  C   UNL     1       6.912   7.381  17.003  0.00  0.00    +0.000 A 
BRANCH  21  28
ATOM     27  C   UNL     1       8.464   9.388  18.254  0.00  0.00    +0.000 C 
ATOM     28  O   UNL     1       8.591   8.039  18.678  0.00  0.00    +0.000 OA
ENDBRANCH  21  28
ENDBRANCH  20  24
ENDBRANCH   1  20
TORSDOF 6
ENDMDL
MODEL 9
REMARK VINA RESULT:      -8.0      2.564      3.718
REMARK  Name = 
REMARK  7 active torsions:
REMARK  status: ('A' for Active; 'I' for Inactive)
REMARK    1  A    between atoms: C_1  and  O_2
REMARK    2  A    between atoms: O_2  and  C_3
REMARK    3  A    between atoms: C_6  and  C_7
REMARK    4  A    between atoms: C_7  and  C_8
REMARK    5  A    between atoms: C_10  and  C_11
REMARK    6  A    between atoms: N_13  and  C_14
REMARK    7  A    between atoms: C_14  and  C_15
REMARK                            x       y       z     vdW  Elec       q    Type
REMARK                         _______ _______ _______ _____ _____    ______ ____
ROOT
ATOM      1  C   UNL     1       3.915   4.783  19.728  0.00  0.00    +0.000 C 
ATOM      2  N   UNL     1       4.541   5.720  18.762  0.00  0.00    +0.000 NA
ATOM      3  C   UNL     1       5.033   5.126  17.513  0.00  0.00    +0.000 C 
ATOM      4  C   UNL     1       4.209   3.927  17.074  0.00  0.00    +0.000 C 
ATOM      5  O   UNL     1       4.099   2.926  18.095  0.00  0.00    +0.000 OA
ATOM      6  C   UNL     1       4.029   3.293  19.397  0.00  0.00    +0.000 C 
ATOM      7  O   UNL     1       3.959   2.435  20.272  0.00  0.00    +0.000 OA
ATOM      8  H   UNL     1       5.325   6.187  19.229  0.00  0.00    +0.000 HD
ENDROOT
BRANCH   3   9
ATOM      9  C   UNL     1       6.522   4.739  17.620  0.00  0.00    +0.000 C 
ATOM     10  O   UNL     1       7.011   4.278  18.654  0.00  0.00    +0.000 OA
ATOM     11  N   UNL     1       7.320   4.909  16.518  0.00  0.00    +0.000 N 
ATOM     12  H   UNL     1       8.285   4.661  16.688  0.00  0.00    +0.000 HD
BRANCH  11  13
ATOM     13  C   UNL     1       7.037   5.730  15.349  0.00  0.00    +0.000 C 
BRANCH  13  14
ATOM     14  C   UNL     1       6.800   4.905  14.109  0.00  0.00    +0.000 A 
ATOM     15  C   UNL     1       5.700   4.037  14.016  0.00  0.00    +0.000 A 
ATOM     16  C   UNL     1       5.492   3.273  12.869  0.00  0.00    +0.000 A 
ATOM     17  C   UNL     1       6.370   3.375  11.793  0.00  0.00    +0.000 A 
ATOM     18  C   UNL     1       7.456   4.247  11.861  0.00  0.00    +0.000 A 
ATOM     19  C   UNL     1       7.667   5.013  13.011  0.00  0.00    +0.000 A 
ENDBRANCH  13  14
ENDBRANCH  11  13
ENDBRANCH   3   9
BRANCH   1  20
ATOM     20  C   UNL     1       2.416   5.101  19.978  0.00  0.00    +0.000 C 
BRANCH  20  24
ATOM     21  C   UNL     1       1.223   9.270  19.846  0.00  0.00    +0.000 A 
ATOM     22  C   UNL     1       1.122   8.539  21.027  0.00  0.00    +0.000 A 
ATOM     23  C   UNL     1       1.561   7.216  21.084  0.00  0.00    +0.000 A 
ATOM     24  C   UNL     1       2.050   6.573  19.942  0.00  0.00    +0.000 A 
ATOM     25  C   UNL     1       2.196   7.327  18.769  0.00  0.00    +0.000 A 
ATOM     26  C   UNL     1       1.789   8.672  18.722  0.00  0.00    +0.000 A 
BRANCH  21  28
ATOM     27  C   UNL     1       0.455  11.179  18.672  0.00  0.00    +0.000 C 
ATOM     28  O   UNL     1       0.682  10.523  19.910  0.00  0.00    +0.000 OA
ENDBRANCH  21  28
ENDBRANCH  20  24
ENDBRANCH   1  20
TORSDOF 6
ENDMDL
