MODEL 1
REMARK VINA RESULT:      -8.1      0.000      0.000
REMARK  Name = 
REMARK  8 active torsions:
REMARK  status: ('A' for Active; 'I' for Inactive)
REMARK    1  A    between atoms: C_1  and  C_2
REMARK    2  A    between atoms: C_5  and  S_6
REMARK    3  A    between atoms: S_6  and  N_9
REMARK    4  A    between atoms: N_12  and  C_13
REMARK    5  A    between atoms: C_13  and  C_14
REMARK    6  A    between atoms: C_14  and  C_15
REMARK    7  A    between atoms: C_18  and  O_19
REMARK    8  A    between atoms: C_20  and  O_21
REMARK                            x       y       z     vdW  Elec       q    Type
REMARK                         _______ _______ _______ _____ _____    ______ ____
ROOT
ATOM      1  N   UNL     1       7.032   7.618  16.825  0.00  0.00    +0.000 N 
ATOM      2  C   UNL     1       7.876   7.901  17.884  0.00  0.00    +0.000 C 
ATOM      3  O   UNL     1       8.255   7.056  18.680  0.00  0.00    +0.000 OA
ATOM      4  N   UNL     1       8.225   9.222  17.958  0.00  0.00    +0.000 N 
ATOM      5  H   UNL     1       6.645   8.345  16.240  0.00  0.00    +0.000 HD
ATOM      6  H   UNL     1       8.069   9.798  17.145  0.00  0.00    +0.000 HD
ENDROOT
BRANCH   1   7
ATOM      7  S   UNL     1       6.376   6.116  16.525  0.00  0.00    +0.000 S 
ATOM      8  O   UNL     1       7.383   5.107  16.769  0.00  0.00    +0.000 OA
ATOM      9  O   UNL     1       5.742   6.227  15.224  0.00  0.00    +0.000 OA
BRANCH   7  14
ATOM     10  C   UNL     1       1.835   5.468  20.509  0.00  0.00    +0.000 C 
ATOM     11  C   UNL     1       2.961   5.641  19.532  0.00  0.00    +0.000 A 
ATOM     12  C   UNL     1       2.822   6.485  18.421  0.00  0.00    +0.000 A 
ATOM     13  C   UNL     1       3.867   6.634  17.509  0.00  0.00    +0.000 A 
ATOM     14  C   UNL     1       5.067   5.946  17.713  0.00  0.00    +0.000 A 
ATOM     15  C   UNL     1       5.220   5.098  18.814  0.00  0.00    +0.000 A 
ATOM     16  C   UNL     1       4.165   4.948  19.718  0.00  0.00    +0.000 A 
ENDBRANCH   7  14
ENDBRANCH   1   7
BRANCH   4  17
ATOM     17  C   UNL     1       9.210   9.669  18.931  0.00  0.00    +0.000 C 
BRANCH  17  18
ATOM     18  C   UNL     1       9.034  11.127  19.368  0.00  0.00    +0.000 C 
BRANCH  18  19
ATOM     19  C   UNL     1       9.939  12.103  18.651  0.00  0.00    +0.000 A 
ATOM     20  C   UNL     1      11.257  11.752  18.310  0.00  0.00    +0.000 A 
ATOM     21  C   UNL     1      12.079  12.645  17.612  0.00  0.00    +0.000 A 
ATOM     22  C   UNL     1      11.577  13.888  17.253  0.00  0.00    +0.000 A 
ATOM     23  C   UNL     1      10.282  14.251  17.608  0.00  0.00    +0.000 A 
ATOM     24  C   UNL     1       9.467  13.380  18.319  0.00  0.00    +0.000 A 
BRANCH  22  25
ATOM     25  O   UNL     1      12.317  14.793  16.541  0.00  0.00    +0.000 OA
ATOM     26  H   UNL     1      13.132  14.352  16.245  0.00  0.00    +0.000 HD
ENDBRANCH  22  25
BRANCH  23  27
ATOM     27  O   UNL     1       9.786  15.468  17.237  0.00  0.00    +0.000 OA
ATOM     28  H   UNL     1       9.405  15.837  18.058  0.00  0.00    +0.000 HD
ENDBRANCH  23  27
ENDBRANCH  18  19
ENDBRANCH  17  18
ENDBRANCH   4  17
TORSDOF 7
ENDMDL
MODEL 2
REMARK VINA RESULT:      -8.1      2.088      2.705
REMARK  Name = 
REMARK  8 active torsions:
REMARK  status: ('A' for Active; 'I' for Inactive)
REMARK    1  A    between atoms: C_1  and  C_2
REMARK    2  A    between atoms: C_5  and  S_6
REMARK    3  A    between atoms: S_6  and  N_9
REMARK    4  A    between atoms: N_12  and  C_13
REMARK    5  A    between atoms: C_13  and  C_14
REMARK    6  A    between atoms: C_14  and  C_15
REMARK    7  A    between atoms: C_18  and  O_19
REMARK    8  A    between atoms: C_20  and  O_21
REMARK                            x       y       z     vdW  Elec       q    Type
REMARK                         _______ _______ _______ _____ _____    ______ ____
ROOT
ATOM      1  N   UNL     1       7.370   6.596  16.538  0.00  0.00    +0.000 N 
ATOM      2  C   UNL     1       7.801   7.265  17.670  0.00  0.00    +0.000 C 
ATOM      3  O   UNL     1       7.969   6.715  18.748  0.00  0.00    +0.000 OA
ATOM      4  N   UNL     1       8.000   8.603  17.463  0.00  0.00    +0.000 N 
ATOM      5  H   UNL     1       7.137   7.083  15.684  0.00  0.00    +0.000 HD
ATOM      6  H   UNL     1       8.070   8.928  16.510  0.00  0.00    +0.000 HD
ENDROOT
BRANCH   1   7
ATOM      7  S   UNL     1       6.969   4.979  16.501  0.00  0.00    +0.000 S 
ATOM      8  O   UNL     1       8.011   4.222  17.160  0.00  0.00    +0.000 OA
ATOM      9  O   UNL     1       6.617   4.702  15.121  0.00  0.00    +0.000 OA
BRANCH   7  14
ATOM     10  C   UNL     1       1.878   4.645  19.800  0.00  0.00    +0.000 C 
ATOM     11  C   UNL     1       3.133   4.714  18.978  0.00  0.00    +0.000 A 
ATOM     12  C   UNL     1       4.286   4.024  19.373  0.00  0.00    +0.000 A 
ATOM     13  C   UNL     1       5.454   4.100  18.613  0.00  0.00    +0.000 A 
ATOM     14  C   UNL     1       5.467   4.861  17.440  0.00  0.00    +0.000 A 
ATOM     15  C   UNL     1       4.325   5.557  17.034  0.00  0.00    +0.000 A 
ATOM     16  C   UNL     1       3.163   5.483  17.806  0.00  0.00    +0.000 A 
ENDBRANCH   7  14
ENDBRANCH   1   7
BRANCH   4  17
ATOM     17  C   UNL     1       8.578   9.430  18.510  0.00  0.00    +0.000 C 
BRANCH  17  18
ATOM     18  C   UNL     1       9.270  10.696  17.990  0.00  0.00    +0.000 C 
BRANCH  18  19
ATOM     19  C   UNL     1       9.578  11.718  19.060  0.00  0.00    +0.000 A 
ATOM     20  C   UNL     1      10.089  12.984  18.726  0.00  0.00    +0.000 A 
ATOM     21  C   UNL     1      10.337  13.942  19.716  0.00  0.00    +0.000 A 
ATOM     22  C   UNL     1      10.068  13.630  21.042  0.00  0.00    +0.000 A 
ATOM     23  C   UNL     1       9.584  12.371  21.382  0.00  0.00    +0.000 A 
ATOM     24  C   UNL     1       9.357  11.408  20.409  0.00  0.00    +0.000 A 
BRANCH  22  25
ATOM     25  O   UNL     1      10.256  14.533  22.053  0.00  0.00    +0.000 OA
ATOM     26  H   UNL     1      10.144  15.426  21.687  0.00  0.00    +0.000 HD
ENDBRANCH  22  25
BRANCH  23  27
ATOM     27  O   UNL     1       9.304  12.075  22.685  0.00  0.00    +0.000 OA
ATOM     28  H   UNL     1      10.022  12.504  23.193  0.00  0.00    +0.000 HD
ENDBRANCH  23  27
ENDBRANCH  18  19
ENDBRANCH  17  18
ENDBRANCH   4  17
TORSDOF 7
ENDMDL
MODEL 3
REMARK VINA RESULT:      -7.9      1.663      2.024
REMARK  Name = 
REMARK  8 active torsions:
REMARK  status: ('A' for Active; 'I' for Inactive)
REMARK    1  A    between atoms: C_1  and  C_2
REMARK    2  A    between atoms: C_5  and  S_6
REMARK    3  A    between atoms: S_6  and  N_9
REMARK    4  A    between atoms: N_12  and  C_13
REMARK    5  A    between atoms: C_13  and  C_14
REMARK    6  A    between atoms: C_14  and  C_15
REMARK    7  A    between atoms: C_18  and  O_19
REMARK    8  A    between atoms: C_20  and  O_21
REMARK                            x       y       z     vdW  Elec       q    Type
REMARK                         _______ _______ _______ _____ _____    ______ ____
ROOT
ATOM      1  N   UNL     1       7.441   6.864  16.679  0.00  0.00    +0.000 N 
ATOM      2  C   UNL     1       7.923   7.555  17.776  0.00  0.00    +0.000 C 
ATOM      3  O   UNL     1       8.269   7.007  18.811  0.00  0.00    +0.000 OA
ATOM      4  N   UNL     1       7.953   8.910  17.590  0.00  0.00    +0.000 N 
ATOM      5  H   UNL     1       7.062   7.338  15.871  0.00  0.00    +0.000 HD
ATOM      6  H   UNL     1       7.880   9.259  16.646  0.00  0.00    +0.000 HD
ENDROOT
BRANCH   1   7
ATOM      7  S   UNL     1       7.213   5.214  16.636  0.00  0.00    +0.000 S 
ATOM      8  O   UNL     1       8.016   4.603  17.673  0.00  0.00    +0.000 OA
ATOM      9  O   UNL     1       7.391   4.837  15.246  0.00  0.00    +0.000 OA
BRANCH   7  14
ATOM     10  C   UNL     1       1.355   4.350  17.996  0.00  0.00    +0.000 C 
ATOM     11  C   UNL     1       2.799   4.566  17.645  0.00  0.00    +0.000 A 
ATOM     12  C   UNL     1       3.554   3.543  17.056  0.00  0.00    +0.000 A 
ATOM     13  C   UNL     1       4.899   3.744  16.742  0.00  0.00    +0.000 A 
ATOM     14  C   UNL     1       5.492   4.982  17.007  0.00  0.00    +0.000 A 
ATOM     15  C   UNL     1       4.754   6.012  17.596  0.00  0.00    +0.000 A 
ATOM     16  C   UNL     1       3.410   5.799  17.915  0.00  0.00    +0.000 A 
ENDBRANCH   7  14
ENDBRANCH   1   7
BRANCH   4  17
ATOM     17  C   UNL     1       8.554   9.777  18.591  0.00  0.00    +0.000 C 
BRANCH  17  18
ATOM     18  C   UNL     1       9.744  10.592  18.074  0.00  0.00    +0.000 C 
BRANCH  18  19
ATOM     19  C   UNL     1       9.620  12.081  18.297  0.00  0.00    +0.000 A 
ATOM     20  C   UNL     1      10.578  12.784  19.049  0.00  0.00    +0.000 A 
ATOM     21  C   UNL     1      10.480  14.170  19.221  0.00  0.00    +0.000 A 
ATOM     22  C   UNL     1       9.422  14.851  18.634  0.00  0.00    +0.000 A 
ATOM     23  C   UNL     1       8.458  14.159  17.909  0.00  0.00    +0.000 A 
ATOM     24  C   UNL     1       8.535  12.782  17.752  0.00  0.00    +0.000 A 
BRANCH  22  25
ATOM     25  O   UNL     1       9.287  16.209  18.735  0.00  0.00    +0.000 OA
ATOM     26  H   UNL     1      10.174  16.597  18.822  0.00  0.00    +0.000 HD
ENDBRANCH  22  25
BRANCH  23  27
ATOM     27  O   UNL     1       7.429  14.836  17.318  0.00  0.00    +0.000 OA
ATOM     28  H   UNL     1       6.741  14.888  18.012  0.00  0.00    +0.000 HD
ENDBRANCH  23  27
ENDBRANCH  18  19
ENDBRANCH  17  18
ENDBRANCH   4  17
TORSDOF 7
ENDMDL
MODEL 4
REMARK VINA RESULT:      -7.8      1.422      1.585
REMARK  Name = 
REMARK  8 active torsions:
REMARK  status: ('A' for Active; 'I' for Inactive)
REMARK    1  A    between atoms: C_1  and  C_2
REMARK    2  A    between atoms: C_5  and  S_6
REMARK    3  A    between atoms: S_6  and  N_9
REMARK    4  A    between atoms: N_12  and  C_13
REMARK    5  A    between atoms: C_13  and  C_14
REMARK    6  A    between atoms: C_14  and  C_15
REMARK    7  A    between atoms: C_18  and  O_19
REMARK    8  A    between atoms: C_20  and  O_21
REMARK                            x       y       z     vdW  Elec       q    Type
REMARK                         _______ _______ _______ _____ _____    ______ ____
ROOT
ATOM      1  N   UNL     1       7.146   7.394  16.788  0.00  0.00    +0.000 N 
ATOM      2  C   UNL     1       7.867   7.852  17.876  0.00  0.00    +0.000 C 
ATOM      3  O   UNL     1       8.217   7.131  18.797  0.00  0.00    +0.000 OA
ATOM      4  N   UNL     1       8.127   9.195  17.823  0.00  0.00    +0.000 N 
ATOM      5  H   UNL     1       6.775   8.021  16.088  0.00  0.00    +0.000 HD
ATOM      6  H   UNL     1       8.017   9.663  16.937  0.00  0.00    +0.000 HD
ENDROOT
BRANCH   1   7
ATOM      7  S   UNL     1       6.612   5.825  16.610  0.00  0.00    +0.000 S 
ATOM      8  O   UNL     1       7.677   4.922  16.991  0.00  0.00    +0.000 OA
ATOM      9  O   UNL     1       6.032   5.764  15.282  0.00  0.00    +0.000 OA
BRANCH   7  14
ATOM     10  C   UNL     1       1.936   5.256  20.448  0.00  0.00    +0.000 C 
ATOM     11  C   UNL     1       3.097   5.408  19.509  0.00  0.00    +0.000 A 
ATOM     12  C   UNL     1       3.118   6.434  18.555  0.00  0.00    +0.000 A 
ATOM     13  C   UNL     1       4.194   6.565  17.676  0.00  0.00    +0.000 A 
ATOM     14  C   UNL     1       5.266   5.670  17.758  0.00  0.00    +0.000 A 
ATOM     15  C   UNL     1       5.259   4.640  18.702  0.00  0.00    +0.000 A 
ATOM     16  C   UNL     1       4.174   4.512  19.573  0.00  0.00    +0.000 A 
ENDBRANCH   7  14
ENDBRANCH   1   7
BRANCH   4  17
ATOM     17  C   UNL     1       8.986   9.816  18.819  0.00  0.00    +0.000 C 
BRANCH  17  18
ATOM     18  C   UNL     1      10.008  10.797  18.234  0.00  0.00    +0.000 C 
BRANCH  18  19
ATOM     19  C   UNL     1       9.675  12.252  18.467  0.00  0.00    +0.000 A 
ATOM     20  C   UNL     1      10.432  13.035  19.356  0.00  0.00    +0.000 A 
ATOM     21  C   UNL     1      10.144  14.393  19.541  0.00  0.00    +0.000 A 
ATOM     22  C   UNL     1       9.098  14.966  18.829  0.00  0.00    +0.000 A 
ATOM     23  C   UNL     1       8.330  14.192  17.966  0.00  0.00    +0.000 A 
ATOM     24  C   UNL     1       8.595  12.840  17.794  0.00  0.00    +0.000 A 
BRANCH  22  25
ATOM     25  O   UNL     1       8.787  16.293  18.939  0.00  0.00    +0.000 OA
ATOM     26  H   UNL     1       8.158  16.399  19.672  0.00  0.00    +0.000 HD
ENDBRANCH  22  25
BRANCH  23  27
ATOM     27  O   UNL     1       7.314  14.763  17.255  0.00  0.00    +0.000 OA
ATOM     28  H   UNL     1       7.412  15.723  17.417  0.00  0.00    +0.000 HD
ENDBRANCH  23  27
ENDBRANCH  18  19
ENDBRANCH  17  18
ENDBRANCH   4  17
TORSDOF 7
ENDMDL
MODEL 5
REMARK VINA RESULT:      -7.8      1.404      1.985
REMARK  Name = 
REMARK  8 active torsions:
REMARK  status: ('A' for Active; 'I' for Inactive)
REMARK    1  A    between atoms: C_1  and  C_2
REMARK    2  A    between atoms: C_5  and  S_6
REMARK    3  A    between atoms: S_6  and  N_9
REMARK    4  A    between atoms: N_12  and  C_13
REMARK    5  A    between atoms: C_13  and  C_14
REMARK    6  A    between atoms: C_14  and  C_15
REMARK    7  A    between atoms: C_18  and  O_19
REMARK    8  A    between atoms: C_20  and  O_21
REMARK                            x       y       z     vdW  Elec       q    Type
REMARK                         _______ _______ _______ _____ _____    ______ ____
ROOT
ATOM      1  N   UNL     1       7.354   6.782  16.509  0.00  0.00    +0.000 N 
ATOM      2  C   UNL     1       7.789   7.465  17.630  0.00  0.00    +0.000 C 
ATOM      3  O   UNL     1       7.967   6.927  18.712  0.00  0.00    +0.000 OA
ATOM      4  N   UNL     1       7.979   8.802  17.408  0.00  0.00    +0.000 N 
ATOM      5  H   UNL     1       7.111   7.259  15.651  0.00  0.00    +0.000 HD
ATOM      6  H   UNL     1       8.041   9.118  16.452  0.00  0.00    +0.000 HD
ENDROOT
BRANCH   1   7
ATOM      7  S   UNL     1       6.960   5.163  16.490  0.00  0.00    +0.000 S 
ATOM      8  O   UNL     1       8.025   4.415  17.121  0.00  0.00    +0.000 OA
ATOM      9  O   UNL     1       6.567   4.878  15.123  0.00  0.00    +0.000 OA
BRANCH   7  14
ATOM     10  C   UNL     1       1.865   4.695  19.767  0.00  0.00    +0.000 C 
ATOM     11  C   UNL     1       3.128   4.823  18.966  0.00  0.00    +0.000 A 
ATOM     12  C   UNL     1       3.219   5.746  17.916  0.00  0.00    +0.000 A 
ATOM     13  C   UNL     1       4.392   5.853  17.166  0.00  0.00    +0.000 A 
ATOM     14  C   UNL     1       5.487   5.042  17.475  0.00  0.00    +0.000 A 
ATOM     15  C   UNL     1       5.411   4.114  18.518  0.00  0.00    +0.000 A 
ATOM     16  C   UNL     1       4.231   4.007  19.258  0.00  0.00    +0.000 A 
ENDBRANCH   7  14
ENDBRANCH   1   7
BRANCH   4  17
ATOM     17  C   UNL     1       8.561   9.643  18.442  0.00  0.00    +0.000 C 
BRANCH  17  18
ATOM     18  C   UNL     1       9.608  10.634  17.921  0.00  0.00    +0.000 C 
BRANCH  18  19
ATOM     19  C   UNL     1       9.156  12.076  17.934  0.00  0.00    +0.000 A 
ATOM     20  C   UNL     1       7.899  12.446  17.425  0.00  0.00    +0.000 A 
ATOM     21  C   UNL     1       7.469  13.778  17.472  0.00  0.00    +0.000 A 
ATOM     22  C   UNL     1       8.299  14.738  18.035  0.00  0.00    +0.000 A 
ATOM     23  C   UNL     1       9.554  14.383  18.519  0.00  0.00    +0.000 A 
ATOM     24  C   UNL     1       9.998  13.069  18.455  0.00  0.00    +0.000 A 
BRANCH  22  25
ATOM     25  O   UNL     1       7.925  16.049  18.143  0.00  0.00    +0.000 OA
ATOM     26  H   UNL     1       7.913  16.436  17.251  0.00  0.00    +0.000 HD
ENDBRANCH  22  25
BRANCH  23  27
ATOM     27  O   UNL     1      10.361  15.327  19.087  0.00  0.00    +0.000 OA
ATOM     28  H   UNL     1      10.994  15.565  18.381  0.00  0.00    +0.000 HD
ENDBRANCH  23  27
ENDBRANCH  18  19
ENDBRANCH  17  18
ENDBRANCH   4  17
TORSDOF 7
ENDMDL
MODEL 6
REMARK VINA RESULT:      -7.8      1.452      1.601
REMARK  Name = 
REMARK  8 active torsions:
REMARK  status: ('A' for Active; 'I' for Inactive)
REMARK    1  A    between atoms: C_1  and  C_2
REMARK    2  A    between atoms: C_5  and  S_6
REMARK    3  A    between atoms: S_6  and  N_9
REMARK    4  A    between atoms: N_12  and  C_13
REMARK    5  A    between atoms: C_13  and  C_14
REMARK    6  A    between atoms: C_14  and  C_15
REMARK    7  A    between atoms: C_18  and  O_19
REMARK    8  A    between atoms: C_20  and  O_21
REMARK                            x       y       z     vdW  Elec       q    Type
REMARK                         _______ _______ _______ _____ _____    ______ ____
ROOT
ATOM      1  N   UNL     1       6.002   6.561  17.690  0.00  0.00    +0.000 N 
ATOM      2  C   UNL     1       7.128   7.249  17.278  0.00  0.00    +0.000 C 
ATOM      3  O   UNL     1       7.868   6.849  16.392  0.00  0.00    +0.000 OA
ATOM      4  N   UNL     1       7.339   8.407  17.976  0.00  0.00    +0.000 N 
ATOM      5  H   UNL     1       5.460   6.850  18.492  0.00  0.00    +0.000 HD
ATOM      6  H   UNL     1       6.571   8.780  18.514  0.00  0.00    +0.000 HD
ENDROOT
BRANCH   1   7
ATOM      7  S   UNL     1       5.532   5.081  17.084  0.00  0.00    +0.000 S 
ATOM      8  O   UNL     1       6.590   4.122  17.319  0.00  0.00    +0.000 OA
ATOM      9  O   UNL     1       5.064   5.348  15.737  0.00  0.00    +0.000 OA
BRANCH   7  14
ATOM     10  C   UNL     1       0.682   3.430  20.350  0.00  0.00    +0.000 C 
ATOM     11  C   UNL     1       1.872   3.849  19.536  0.00  0.00    +0.000 A 
ATOM     12  C   UNL     1       2.003   3.450  18.200  0.00  0.00    +0.000 A 
ATOM     13  C   UNL     1       3.117   3.832  17.450  0.00  0.00    +0.000 A 
ATOM     14  C   UNL     1       4.103   4.632  18.037  0.00  0.00    +0.000 A 
ATOM     15  C   UNL     1       3.989   5.036  19.369  0.00  0.00    +0.000 A 
ATOM     16  C   UNL     1       2.874   4.642  20.115  0.00  0.00    +0.000 A 
ENDBRANCH   7  14
ENDBRANCH   1   7
BRANCH   4  17
ATOM     17  C   UNL     1       8.403   9.318  17.584  0.00  0.00    +0.000 C 
BRANCH  17  18
ATOM     18  C   UNL     1       9.012  10.101  18.752  0.00  0.00    +0.000 C 
BRANCH  18  19
ATOM     19  C   UNL     1       9.681  11.395  18.350  0.00  0.00    +0.000 A 
ATOM     20  C   UNL     1      11.072  11.462  18.155  0.00  0.00    +0.000 A 
ATOM     21  C   UNL     1      11.683  12.653  17.746  0.00  0.00    +0.000 A 
ATOM     22  C   UNL     1      10.897  13.777  17.528  0.00  0.00    +0.000 A 
ATOM     23  C   UNL     1       9.523  13.724  17.742  0.00  0.00    +0.000 A 
ATOM     24  C   UNL     1       8.912  12.553  18.169  0.00  0.00    +0.000 A 
BRANCH  22  25
ATOM     25  O   UNL     1      11.427  14.961  17.095  0.00  0.00    +0.000 OA
ATOM     26  H   UNL     1      10.863  15.303  16.381  0.00  0.00    +0.000 HD
ENDBRANCH  22  25
BRANCH  23  27
ATOM     27  O   UNL     1       8.752  14.827  17.509  0.00  0.00    +0.000 OA
ATOM     28  H   UNL     1       9.011  15.458  18.210  0.00  0.00    +0.000 HD
ENDBRANCH  23  27
ENDBRANCH  18  19
ENDBRANCH  17  18
ENDBRANCH   4  17
TORSDOF 7
ENDMDL
MODEL 7
REMARK VINA RESULT:      -7.7      1.552      2.214
REMARK  Name = 
REMARK  8 active torsions:
REMARK  status: ('A' for Active; 'I' for Inactive)
REMARK    1  A    between atoms: C_1  and  C_2
REMARK    2  A    between atoms: C_5  and  S_6
REMARK    3  A    between atoms: S_6  and  N_9
REMARK    4  A    between atoms: N_12  and  C_13
REMARK    5  A    between atoms: C_13  and  C_14
REMARK    6  A    between atoms: C_14  and  C_15
REMARK    7  A    between atoms: C_18  and  O_19
REMARK    8  A    between atoms: C_20  and  O_21
REMARK                            x       y       z     vdW  Elec       q    Type
REMARK                         _______ _______ _______ _____ _____    ______ ____
ROOT
ATOM      1  N   UNL     1       7.083   6.871  16.528  0.00  0.00    +0.000 N 
ATOM      2  C   UNL     1       7.684   7.433  17.640  0.00  0.00    +0.000 C 
ATOM      3  O   UNL     1       7.986   6.789  18.633  0.00  0.00    +0.000 OA
ATOM      4  N   UNL     1       7.886   8.781  17.521  0.00  0.00    +0.000 N 
ATOM      5  H   UNL     1       6.745   7.434  15.760  0.00  0.00    +0.000 HD
ATOM      6  H   UNL     1       7.831   9.188  16.600  0.00  0.00    +0.000 HD
ENDROOT
BRANCH   1   7
ATOM      7  S   UNL     1       6.640   5.269  16.411  0.00  0.00    +0.000 S 
ATOM      8  O   UNL     1       7.720   4.446  16.910  0.00  0.00    +0.000 OA
ATOM      9  O   UNL     1       6.152   5.104  15.054  0.00  0.00    +0.000 OA
BRANCH   7  14
ATOM     10  C   UNL     1       1.882   4.765  20.156  0.00  0.00    +0.000 C 
ATOM     11  C   UNL     1       3.052   4.878  19.222  0.00  0.00    +0.000 A 
ATOM     12  C   UNL     1       4.160   4.032  19.358  0.00  0.00    +0.000 A 
ATOM     13  C   UNL     1       5.251   4.147  18.495  0.00  0.00    +0.000 A 
ATOM     14  C   UNL     1       5.230   5.108  17.479  0.00  0.00    +0.000 A 
ATOM     15  C   UNL     1       4.134   5.962  17.332  0.00  0.00    +0.000 A 
ATOM     16  C   UNL     1       3.049   5.844  18.206  0.00  0.00    +0.000 A 
ENDBRANCH   7  14
ENDBRANCH   1   7
BRANCH   4  17
ATOM     17  C   UNL     1       8.625   9.506  18.543  0.00  0.00    +0.000 C 
BRANCH  17  18
ATOM     18  C   UNL     1       9.345  10.754  18.020  0.00  0.00    +0.000 C 
BRANCH  18  19
ATOM     19  C   UNL     1       9.580  11.819  19.067  0.00  0.00    +0.000 A 
ATOM     20  C   UNL     1       9.789  11.476  20.415  0.00  0.00    +0.000 A 
ATOM     21  C   UNL     1      10.044  12.462  21.375  0.00  0.00    +0.000 A 
ATOM     22  C   UNL     1      10.094  13.793  20.982  0.00  0.00    +0.000 A 
ATOM     23  C   UNL     1       9.865  14.141  19.655  0.00  0.00    +0.000 A 
ATOM     24  C   UNL     1       9.589  13.172  18.700  0.00  0.00    +0.000 A 
BRANCH  22  25
ATOM     25  O   UNL     1      10.372  14.801  21.864  0.00  0.00    +0.000 OA
ATOM     26  H   UNL     1      10.043  15.634  21.487  0.00  0.00    +0.000 HD
ENDBRANCH  22  25
BRANCH  23  27
ATOM     27  O   UNL     1       9.933  15.449  19.269  0.00  0.00    +0.000 OA
ATOM     28  H   UNL     1       9.203  15.553  18.627  0.00  0.00    +0.000 HD
ENDBRANCH  23  27
ENDBRANCH  18  19
ENDBRANCH  17  18
ENDBRANCH   4  17
TORSDOF 7
ENDMDL
MODEL 8
REMARK VINA RESULT:      -7.7      1.605      2.089
REMARK  Name = 
REMARK  8 active torsions:
REMARK  status: ('A' for Active; 'I' for Inactive)
REMARK    1  A    between atoms: C_1  and  C_2
REMARK    2  A    between atoms: C_5  and  S_6
REMARK    3  A    between atoms: S_6  and  N_9
REMARK    4  A    between atoms: N_12  and  C_13
REMARK    5  A    between atoms: C_13  and  C_14
REMARK    6  A    between atoms: C_14  and  C_15
REMARK    7  A    between atoms: C_18  and  O_19
REMARK    8  A    between atoms: C_20  and  O_21
REMARK                            x       y       z     vdW  Elec       q    Type
REMARK                         _______ _______ _______ _____ _____    ______ ____
ROOT
ATOM      1  N   UNL     1       7.105   7.248  16.711  0.00  0.00    +0.000 N 
ATOM      2  C   UNL     1       7.811   7.682  17.818  0.00  0.00    +0.000 C 
ATOM      3  O   UNL     1       8.146   6.942  18.730  0.00  0.00    +0.000 OA
ATOM      4  N   UNL     1       8.076   9.025  17.797  0.00  0.00    +0.000 N 
ATOM      5  H   UNL     1       6.746   7.889  16.019  0.00  0.00    +0.000 HD
ATOM      6  H   UNL     1       7.979   9.511  16.918  0.00  0.00    +0.000 HD
ENDROOT
BRANCH   1   7
ATOM      7  S   UNL     1       6.569   5.684  16.495  0.00  0.00    +0.000 S 
ATOM      8  O   UNL     1       7.641   4.772  16.828  0.00  0.00    +0.000 OA
ATOM      9  O   UNL     1       5.965   5.664  15.176  0.00  0.00    +0.000 OA
BRANCH   7  14
ATOM     10  C   UNL     1       1.963   4.992  20.396  0.00  0.00    +0.000 C 
ATOM     11  C   UNL     1       3.107   5.173  19.441  0.00  0.00    +0.000 A 
ATOM     12  C   UNL     1       3.115   6.234  18.526  0.00  0.00    +0.000 A 
ATOM     13  C   UNL     1       4.175   6.393  17.632  0.00  0.00    +0.000 A 
ATOM     14  C   UNL     1       5.244   5.492  17.661  0.00  0.00    +0.000 A 
ATOM     15  C   UNL     1       5.250   4.427  18.566  0.00  0.00    +0.000 A 
ATOM     16  C   UNL     1       4.180   4.271  19.452  0.00  0.00    +0.000 A 
ENDBRANCH   7  14
ENDBRANCH   1   7
BRANCH   4  17
ATOM     17  C   UNL     1       8.922   9.623  18.817  0.00  0.00    +0.000 C 
BRANCH  17  18
ATOM     18  C   UNL     1       9.664  10.881  18.350  0.00  0.00    +0.000 C 
BRANCH  18  19
ATOM     19  C   UNL     1       9.755  11.971  19.393  0.00  0.00    +0.000 A 
ATOM     20  C   UNL     1       9.597  11.681  20.759  0.00  0.00    +0.000 A 
ATOM     21  C   UNL     1       9.720  12.687  21.725  0.00  0.00    +0.000 A 
ATOM     22  C   UNL     1      10.004  13.984  21.319  0.00  0.00    +0.000 A 
ATOM     23  C   UNL     1      10.137  14.282  19.967  0.00  0.00    +0.000 A 
ATOM     24  C   UNL     1       9.995  13.295  19.002  0.00  0.00    +0.000 A 
BRANCH  22  25
ATOM     25  O   UNL     1      10.169  15.005  22.214  0.00  0.00    +0.000 OA
ATOM     26  H   UNL     1       9.488  14.919  22.903  0.00  0.00    +0.000 HD
ENDBRANCH  22  25
BRANCH  23  27
ATOM     27  O   UNL     1      10.434  15.556  19.574  0.00  0.00    +0.000 OA
ATOM     28  H   UNL     1       9.595  16.047  19.682  0.00  0.00    +0.000 HD
ENDBRANCH  23  27
ENDBRANCH  18  19
ENDBRANCH  17  18
ENDBRANCH   4  17
TORSDOF 7
ENDMDL
MODEL 9
REMARK VINA RESULT:      -7.7      2.021      2.262
REMARK  Name = 
REMARK  8 active torsions:
REMARK  status: ('A' for Active; 'I' for Inactive)
REMARK    1  A    between atoms: C_1  and  C_2
REMARK    2  A    between atoms: C_5  and  S_6
REMARK    3  A    between atoms: S_6  and  N_9
REMARK    4  A    between atoms: N_12  and  C_13
REMARK    5  A    between atoms: C_13  and  C_14
REMARK    6  A    between atoms: C_14  and  C_15
REMARK    7  A    between atoms: C_18  and  O_19
REMARK    8  A    between atoms: C_20  and  O_21
REMARK                            x       y       z     vdW  Elec       q    Type
REMARK                         _______ _______ _______ _____ _____    ______ ____
ROOT
ATOM      1  N   UNL     1       6.157   5.874  17.644  0.00  0.00    +0.000 N 
ATOM      2  C   UNL     1       7.254   6.693  17.448  0.00  0.00    +0.000 C 
ATOM      3  O   UNL     1       7.811   6.817  16.368  0.00  0.00    +0.000 OA
ATOM      4  N   UNL     1       7.661   7.331  18.588  0.00  0.00    +0.000 N 
ATOM      5  H   UNL     1       5.774   5.701  18.563  0.00  0.00    +0.000 HD
ATOM      6  H   UNL     1       7.020   7.363  19.367  0.00  0.00    +0.000 HD
ENDROOT
BRANCH   1   7
ATOM      7  S   UNL     1       5.485   4.908  16.463  0.00  0.00    +0.000 S 
ATOM      8  O   UNL     1       6.429   3.869  16.114  0.00  0.00    +0.000 OA
ATOM      9  O   UNL     1       4.989   5.825  15.454  0.00  0.00    +0.000 OA
BRANCH   7  14
ATOM     10  C   UNL     1       0.540   2.436  18.984  0.00  0.00    +0.000 C 
ATOM     11  C   UNL     1       1.767   3.050  18.375  0.00  0.00    +0.000 A 
ATOM     12  C   UNL     1       1.855   4.436  18.185  0.00  0.00    +0.000 A 
ATOM     13  C   UNL     1       2.993   5.002  17.608  0.00  0.00    +0.000 A 
ATOM     14  C   UNL     1       4.058   4.179  17.230  0.00  0.00    +0.000 A 
ATOM     15  C   UNL     1       3.985   2.796  17.410  0.00  0.00    +0.000 A 
ATOM     16  C   UNL     1       2.838   2.236  17.981  0.00  0.00    +0.000 A 
ENDBRANCH   7  14
ENDBRANCH   1   7
BRANCH   4  17
ATOM     17  C   UNL     1       8.717   8.330  18.534  0.00  0.00    +0.000 C 
BRANCH  17  18
ATOM     18  C   UNL     1       8.245   9.707  18.052  0.00  0.00    +0.000 C 
BRANCH  18  19
ATOM     19  C   UNL     1       9.118  10.855  18.504  0.00  0.00    +0.000 A 
ATOM     20  C   UNL     1       9.893  10.759  19.673  0.00  0.00    +0.000 A 
ATOM     21  C   UNL     1      10.729  11.811  20.068  0.00  0.00    +0.000 A 
ATOM     22  C   UNL     1      10.790  12.957  19.286  0.00  0.00    +0.000 A 
ATOM     23  C   UNL     1      10.008  13.067  18.141  0.00  0.00    +0.000 A 
ATOM     24  C   UNL     1       9.160  12.039  17.755  0.00  0.00    +0.000 A 
BRANCH  22  25
ATOM     25  O   UNL     1      11.612  14.005  19.598  0.00  0.00    +0.000 OA
ATOM     26  H   UNL     1      11.521  14.679  18.903  0.00  0.00    +0.000 HD
ENDBRANCH  22  25
BRANCH  23  27
ATOM     27  O   UNL     1      10.085  14.189  17.366  0.00  0.00    +0.000 OA
ATOM     28  H   UNL     1      10.276  13.853  16.468  0.00  0.00    +0.000 HD
ENDBRANCH  23  27
ENDBRANCH  18  19
ENDBRANCH  17  18
ENDBRANCH   4  17
TORSDOF 7
ENDMDL
