MODEL 1
REMARK VINA RESULT:      -8.1      0.000      0.000
REMARK  Name = 
REMARK  11 active torsions:
REMARK  status: ('A' for Active; 'I' for Inactive)
REMARK    1  A    between atoms: C_1  and  C_2
REMARK    2  A    between atoms: C_2  and  C_3
REMARK    3  A    between atoms: C_3  and  C_4
REMARK    4  A    between atoms: C_4  and  C_5
REMARK    5  A    between atoms: C_5  and  C_6
REMARK    6  A    between atoms: C_6  and  N_7
REMARK    7  A    between atoms: C_6  and  N_17
REMARK    8  A    between atoms: C_8  and  C_10
REMARK    9  A    between atoms: C_10  and  C_11
REMARK   10  A    between atoms: C_18  and  C_20
REMARK   11  A    between atoms: C_20  and  C_21
REMARK                            x       y       z     vdW  Elec       q    Type
REMARK                         _______ _______ _______ _____ _____    ______ ____
ROOT
ATOM      1  C   UNL     1       7.104   6.243  17.244  0.00  0.00    +0.000 C 
ENDROOT
BRANCH   1   2
ATOM      2  N   UNL     1       7.271   7.670  17.151  0.00  0.00    +0.000 N 
ATOM      3  C   UNL     1       8.073   8.369  18.026  0.00  0.00    +0.000 C 
ATOM      4  O   UNL     1       8.733   7.829  18.912  0.00  0.00    +0.000 OA
ATOM      5  H   UNL     1       6.482   8.158  16.742  0.00  0.00    +0.000 HD
BRANCH   3   6
ATOM      6  C   UNL     1       8.124   9.866  17.767  0.00  0.00    +0.000 C 
BRANCH   6   7
ATOM      7  C   UNL     1       9.242  10.569  18.496  0.00  0.00    +0.000 A 
ATOM      8  C   UNL     1       9.176  10.777  19.881  0.00  0.00    +0.000 A 
ATOM      9  C   UNL     1      10.203  11.451  20.545  0.00  0.00    +0.000 A 
ATOM     10  C   UNL     1      11.304  11.925  19.833  0.00  0.00    +0.000 A 
ATOM     11  C   UNL     1      11.388  11.707  18.459  0.00  0.00    +0.000 A 
ATOM     12  C   UNL     1      10.364  11.032  17.793  0.00  0.00    +0.000 A 
ENDBRANCH   6   7
ENDBRANCH   3   6
ENDBRANCH   1   2
BRANCH   1  13
ATOM     13  N   UNL     1       5.877   5.946  17.943  0.00  0.00    +0.000 N 
ATOM     14  C   UNL     1       4.650   6.419  17.533  0.00  0.00    +0.000 C 
ATOM     15  O   UNL     1       4.504   7.155  16.559  0.00  0.00    +0.000 OA
ATOM     16  H   UNL     1       5.975   5.598  18.887  0.00  0.00    +0.000 HD
BRANCH  14  17
ATOM     17  C   UNL     1       3.479   5.946  18.371  0.00  0.00    +0.000 C 
BRANCH  17  18
ATOM     18  C   UNL     1       3.367   4.441  18.440  0.00  0.00    +0.000 A 
ATOM     19  C   UNL     1       2.637   3.737  17.472  0.00  0.00    +0.000 A 
ATOM     20  C   UNL     1       2.560   2.343  17.516  0.00  0.00    +0.000 A 
ATOM     21  C   UNL     1       3.214   1.638  18.525  0.00  0.00    +0.000 A 
ATOM     22  C   UNL     1       3.943   2.326  19.492  0.00  0.00    +0.000 A 
ATOM     23  C   UNL     1       4.022   3.719  19.449  0.00  0.00    +0.000 A 
ENDBRANCH  17  18
ENDBRANCH  14  17
ENDBRANCH   1  13
BRANCH   1  24
ATOM     24  C   UNL     1       7.163   5.556  15.865  0.00  0.00    +0.000 C 
BRANCH  24  25
ATOM     25  C   UNL     1       6.466   4.194  15.788  0.00  0.00    +0.000 C 
BRANCH  25  26
ATOM     26  C   UNL     1       5.513   4.049  14.601  0.00  0.00    +0.000 C 
BRANCH  26  28
ATOM     27  C   UNL     1       5.499   3.256  12.205  0.00  0.00    +0.000 C 
ATOM     28  C   UNL     1       6.307   3.933  13.298  0.00  0.00    +0.000 C 
ENDBRANCH  26  28
ENDBRANCH  25  26
ENDBRANCH  24  25
ENDBRANCH   1  24
TORSDOF 10
ENDMDL
MODEL 2
REMARK VINA RESULT:      -8.0      1.849      7.789
REMARK  Name = 
REMARK  11 active torsions:
REMARK  status: ('A' for Active; 'I' for Inactive)
REMARK    1  A    between atoms: C_1  and  C_2
REMARK    2  A    between atoms: C_2  and  C_3
REMARK    3  A    between atoms: C_3  and  C_4
REMARK    4  A    between atoms: C_4  and  C_5
REMARK    5  A    between atoms: C_5  and  C_6
REMARK    6  A    between atoms: C_6  and  N_7
REMARK    7  A    between atoms: C_6  and  N_17
REMARK    8  A    between atoms: C_8  and  C_10
REMARK    9  A    between atoms: C_10  and  C_11
REMARK   10  A    between atoms: C_18  and  C_20
REMARK   11  A    between atoms: C_20  and  C_21
REMARK                            x       y       z     vdW  Elec       q    Type
REMARK                         _______ _______ _______ _____ _____    ______ ____
ROOT
ATOM      1  C   UNL     1       6.969   6.040  17.456  0.00  0.00    +0.000 C 
ENDROOT
BRANCH   1   2
ATOM      2  N   UNL     1       5.582   6.337  17.700  0.00  0.00    +0.000 N 
ATOM      3  C   UNL     1       4.815   5.583  18.560  0.00  0.00    +0.000 C 
ATOM      4  O   UNL     1       5.262   4.640  19.211  0.00  0.00    +0.000 OA
ATOM      5  H   UNL     1       5.111   6.798  16.929  0.00  0.00    +0.000 HD
BRANCH   3   6
ATOM      6  C   UNL     1       3.375   6.053  18.687  0.00  0.00    +0.000 C 
BRANCH   6   7
ATOM      7  C   UNL     1       2.401   4.944  18.999  0.00  0.00    +0.000 A 
ATOM      8  C   UNL     1       2.016   4.028  18.010  0.00  0.00    +0.000 A 
ATOM      9  C   UNL     1       1.095   3.019  18.298  0.00  0.00    +0.000 A 
ATOM     10  C   UNL     1       0.548   2.916  19.576  0.00  0.00    +0.000 A 
ATOM     11  C   UNL     1       0.937   3.810  20.572  0.00  0.00    +0.000 A 
ATOM     12  C   UNL     1       1.859   4.818  20.287  0.00  0.00    +0.000 A 
ENDBRANCH   6   7
ENDBRANCH   3   6
ENDBRANCH   1   2
BRANCH   1  13
ATOM     13  N   UNL     1       7.219   6.039  16.035  0.00  0.00    +0.000 N 
ATOM     14  C   UNL     1       7.072   4.915  15.251  0.00  0.00    +0.000 C 
ATOM     15  O   UNL     1       6.748   3.818  15.701  0.00  0.00    +0.000 OA
ATOM     16  H   UNL     1       7.753   6.818  15.675  0.00  0.00    +0.000 HD
BRANCH  14  17
ATOM     17  C   UNL     1       7.327   5.138  13.773  0.00  0.00    +0.000 C 
BRANCH  17  18
ATOM     18  C   UNL     1       6.602   4.150  12.889  0.00  0.00    +0.000 A 
ATOM     19  C   UNL     1       7.320   3.269  12.069  0.00  0.00    +0.000 A 
ATOM     20  C   UNL     1       6.653   2.333  11.277  0.00  0.00    +0.000 A 
ATOM     21  C   UNL     1       5.261   2.266  11.297  0.00  0.00    +0.000 A 
ATOM     22  C   UNL     1       4.535   3.134  12.108  0.00  0.00    +0.000 A 
ATOM     23  C   UNL     1       5.201   4.070  12.903  0.00  0.00    +0.000 A 
ENDBRANCH  17  18
ENDBRANCH  14  17
ENDBRANCH   1  13
BRANCH   1  24
ATOM     24  C   UNL     1       7.915   6.997  18.207  0.00  0.00    +0.000 C 
BRANCH  24  25
ATOM     25  C   UNL     1       7.941   8.434  17.676  0.00  0.00    +0.000 C 
BRANCH  25  26
ATOM     26  C   UNL     1       8.652   9.425  18.598  0.00  0.00    +0.000 C 
BRANCH  26  28
ATOM     27  C   UNL     1      10.212  11.403  18.453  0.00  0.00    +0.000 C 
ATOM     28  C   UNL     1       9.028  10.690  17.824  0.00  0.00    +0.000 C 
ENDBRANCH  26  28
ENDBRANCH  25  26
ENDBRANCH  24  25
ENDBRANCH   1  24
TORSDOF 10
ENDMDL
MODEL 3
REMARK VINA RESULT:      -7.9      1.391      1.459
REMARK  Name = 
REMARK  11 active torsions:
REMARK  status: ('A' for Active; 'I' for Inactive)
REMARK    1  A    between atoms: C_1  and  C_2
REMARK    2  A    between atoms: C_2  and  C_3
REMARK    3  A    between atoms: C_3  and  C_4
REMARK    4  A    between atoms: C_4  and  C_5
REMARK    5  A    between atoms: C_5  and  C_6
REMARK    6  A    between atoms: C_6  and  N_7
REMARK    7  A    between atoms: C_6  and  N_17
REMARK    8  A    between atoms: C_8  and  C_10
REMARK    9  A    between atoms: C_10  and  C_11
REMARK   10  A    between atoms: C_18  and  C_20
REMARK   11  A    between atoms: C_20  and  C_21
REMARK                            x       y       z     vdW  Elec       q    Type
REMARK                         _______ _______ _______ _____ _____    ______ ____
ROOT
ATOM      1  C   UNL     1       6.605   6.416  17.364  0.00  0.00    +0.000 C 
ENDROOT
BRANCH   1   2
ATOM      2  N   UNL     1       7.018   7.775  17.129  0.00  0.00    +0.000 N 
ATOM      3  C   UNL     1       7.995   8.382  17.886  0.00  0.00    +0.000 C 
ATOM      4  O   UNL     1       8.613   7.803  18.778  0.00  0.00    +0.000 OA
ATOM      5  H   UNL     1       6.301   8.366  16.723  0.00  0.00    +0.000 HD
BRANCH   3   6
ATOM      6  C   UNL     1       8.294   9.818  17.485  0.00  0.00    +0.000 C 
BRANCH   6   7
ATOM      7  C   UNL     1       9.306  10.497  18.374  0.00  0.00    +0.000 A 
ATOM      8  C   UNL     1       9.093  10.598  19.756  0.00  0.00    +0.000 A 
ATOM      9  C   UNL     1      10.022  11.250  20.570  0.00  0.00    +0.000 A 
ATOM     10  C   UNL     1      11.171  11.808  20.012  0.00  0.00    +0.000 A 
ATOM     11  C   UNL     1      11.401  11.697  18.642  0.00  0.00    +0.000 A 
ATOM     12  C   UNL     1      10.475  11.044  17.827  0.00  0.00    +0.000 A 
ENDBRANCH   6   7
ENDBRANCH   3   6
ENDBRANCH   1   2
BRANCH   1  13
ATOM     13  N   UNL     1       5.166   6.357  17.443  0.00  0.00    +0.000 N 
ATOM     14  C   UNL     1       4.484   5.221  17.821  0.00  0.00    +0.000 C 
ATOM     15  O   UNL     1       5.043   4.159  18.090  0.00  0.00    +0.000 OA
ATOM     16  H   UNL     1       4.663   7.091  16.964  0.00  0.00    +0.000 HD
BRANCH  14  17
ATOM     17  C   UNL     1       2.978   5.383  17.895  0.00  0.00    +0.000 C 
BRANCH  17  18
ATOM     18  C   UNL     1       2.344   4.548  18.982  0.00  0.00    +0.000 A 
ATOM     19  C   UNL     1       1.422   3.542  18.660  0.00  0.00    +0.000 A 
ATOM     20  C   UNL     1       0.860   2.747  19.660  0.00  0.00    +0.000 A 
ATOM     21  C   UNL     1       1.214   2.947  20.994  0.00  0.00    +0.000 A 
ATOM     22  C   UNL     1       2.129   3.942  21.327  0.00  0.00    +0.000 A 
ATOM     23  C   UNL     1       2.694   4.736  20.328  0.00  0.00    +0.000 A 
ENDBRANCH  17  18
ENDBRANCH  14  17
ENDBRANCH   1  13
BRANCH   1  24
ATOM     24  C   UNL     1       7.166   5.442  16.310  0.00  0.00    +0.000 C 
BRANCH  24  25
ATOM     25  C   UNL     1       6.504   5.525  14.931  0.00  0.00    +0.000 C 
BRANCH  25  26
ATOM     26  C   UNL     1       5.938   4.195  14.432  0.00  0.00    +0.000 C 
BRANCH  26  28
ATOM     27  C   UNL     1       5.516   3.170  12.164  0.00  0.00    +0.000 C 
ATOM     28  C   UNL     1       6.533   3.848  13.065  0.00  0.00    +0.000 C 
ENDBRANCH  26  28
ENDBRANCH  25  26
ENDBRANCH  24  25
ENDBRANCH   1  24
TORSDOF 10
ENDMDL
MODEL 4
REMARK VINA RESULT:      -7.8      1.360      1.685
REMARK  Name = 
REMARK  11 active torsions:
REMARK  status: ('A' for Active; 'I' for Inactive)
REMARK    1  A    between atoms: C_1  and  C_2
REMARK    2  A    between atoms: C_2  and  C_3
REMARK    3  A    between atoms: C_3  and  C_4
REMARK    4  A    between atoms: C_4  and  C_5
REMARK    5  A    between atoms: C_5  and  C_6
REMARK    6  A    between atoms: C_6  and  N_7
REMARK    7  A    between atoms: C_6  and  N_17
REMARK    8  A    between atoms: C_8  and  C_10
REMARK    9  A    between atoms: C_10  and  C_11
REMARK   10  A    between atoms: C_18  and  C_20
REMARK   11  A    between atoms: C_20  and  C_21
REMARK                            x       y       z     vdW  Elec       q    Type
REMARK                         _______ _______ _______ _____ _____    ______ ____
ROOT
ATOM      1  C   UNL     1       6.505   6.670  17.400  0.00  0.00    +0.000 C 
ENDROOT
BRANCH   1   2
ATOM      2  N   UNL     1       6.992   8.001  17.143  0.00  0.00    +0.000 N 
ATOM      3  C   UNL     1       8.005   8.563  17.886  0.00  0.00    +0.000 C 
ATOM      4  O   UNL     1       8.594   7.964  18.784  0.00  0.00    +0.000 OA
ATOM      5  H   UNL     1       6.306   8.624  16.732  0.00  0.00    +0.000 HD
BRANCH   3   6
ATOM      6  C   UNL     1       8.380   9.974  17.464  0.00  0.00    +0.000 C 
BRANCH   6   7
ATOM      7  C   UNL     1       9.376  10.637  18.382  0.00  0.00    +0.000 A 
ATOM      8  C   UNL     1      10.574  11.166  17.880  0.00  0.00    +0.000 A 
ATOM      9  C   UNL     1      11.503  11.756  18.739  0.00  0.00    +0.000 A 
ATOM     10  C   UNL     1      11.247  11.822  20.108  0.00  0.00    +0.000 A 
ATOM     11  C   UNL     1      10.052  11.316  20.615  0.00  0.00    +0.000 A 
ATOM     12  C   UNL     1       9.120  10.727  19.758  0.00  0.00    +0.000 A 
ENDBRANCH   6   7
ENDBRANCH   3   6
ENDBRANCH   1   2
BRANCH   1  13
ATOM     13  N   UNL     1       5.078   6.710  17.605  0.00  0.00    +0.000 N 
ATOM     14  C   UNL     1       4.457   6.085  18.664  0.00  0.00    +0.000 C 
ATOM     15  O   UNL     1       5.063   5.418  19.501  0.00  0.00    +0.000 OA
ATOM     16  H   UNL     1       4.521   6.990  16.809  0.00  0.00    +0.000 HD
BRANCH  14  17
ATOM     17  C   UNL     1       2.957   6.296  18.731  0.00  0.00    +0.000 C 
BRANCH  17  18
ATOM     18  C   UNL     1       2.191   5.025  19.017  0.00  0.00    +0.000 A 
ATOM     19  C   UNL     1       2.009   4.063  18.013  0.00  0.00    +0.000 A 
ATOM     20  C   UNL     1       1.330   2.874  18.284  0.00  0.00    +0.000 A 
ATOM     21  C   UNL     1       0.827   2.632  19.562  0.00  0.00    +0.000 A 
ATOM     22  C   UNL     1       1.003   3.578  20.568  0.00  0.00    +0.000 A 
ATOM     23  C   UNL     1       1.683   4.767  20.299  0.00  0.00    +0.000 A 
ENDBRANCH  17  18
ENDBRANCH  14  17
ENDBRANCH   1  13
BRANCH   1  24
ATOM     24  C   UNL     1       6.902   5.677  16.290  0.00  0.00    +0.000 C 
BRANCH  24  25
ATOM     25  C   UNL     1       5.812   4.674  15.896  0.00  0.00    +0.000 C 
BRANCH  25  26
ATOM     26  C   UNL     1       6.239   3.689  14.807  0.00  0.00    +0.000 C 
BRANCH  26  28
ATOM     27  C   UNL     1       6.297   3.318  12.311  0.00  0.00    +0.000 C 
ATOM     28  C   UNL     1       6.080   4.327  13.426  0.00  0.00    +0.000 C 
ENDBRANCH  26  28
ENDBRANCH  25  26
ENDBRANCH  24  25
ENDBRANCH   1  24
TORSDOF 10
ENDMDL
MODEL 5
REMARK VINA RESULT:      -7.8      4.036      4.999
REMARK  Name = 
REMARK  11 active torsions:
REMARK  status: ('A' for Active; 'I' for Inactive)
REMARK    1  A    between atoms: C_1  and  C_2
REMARK    2  A    between atoms: C_2  and  C_3
REMARK    3  A    between atoms: C_3  and  C_4
REMARK    4  A    between atoms: C_4  and  C_5
REMARK    5  A    between atoms: C_5  and  C_6
REMARK    6  A    between atoms: C_6  and  N_7
REMARK    7  A    between atoms: C_6  and  N_17
REMARK    8  A    between atoms: C_8  and  C_10
REMARK    9  A    between atoms: C_10  and  C_11
REMARK   10  A    between atoms: C_18  and  C_20
REMARK   11  A    between atoms: C_20  and  C_21
REMARK                            x       y       z     vdW  Elec       q    Type
REMARK                         _______ _______ _______ _____ _____    ______ ____
ROOT
ATOM      1  C   UNL     1       5.787   4.302  16.612  0.00  0.00    +0.000 C 
ENDROOT
BRANCH   1   2
ATOM      2  N   UNL     1       4.828   5.359  16.426  0.00  0.00    +0.000 N 
ATOM      3  C   UNL     1       5.057   6.639  16.878  0.00  0.00    +0.000 C 
ATOM      4  O   UNL     1       6.103   6.983  17.426  0.00  0.00    +0.000 OA
ATOM      5  H   UNL     1       3.865   5.045  16.367  0.00  0.00    +0.000 HD
BRANCH   3   6
ATOM      6  C   UNL     1       3.929   7.616  16.586  0.00  0.00    +0.000 C 
BRANCH   6   7
ATOM      7  C   UNL     1       3.034   7.879  17.772  0.00  0.00    +0.000 A 
ATOM      8  C   UNL     1       2.946   6.955  18.823  0.00  0.00    +0.000 A 
ATOM      9  C   UNL     1       2.096   7.193  19.906  0.00  0.00    +0.000 A 
ATOM     10  C   UNL     1       1.325   8.354  19.948  0.00  0.00    +0.000 A 
ATOM     11  C   UNL     1       1.419   9.287  18.917  0.00  0.00    +0.000 A 
ATOM     12  C   UNL     1       2.269   9.052  17.835  0.00  0.00    +0.000 A 
ENDBRANCH   6   7
ENDBRANCH   3   6
ENDBRANCH   1   2
BRANCH   1  13
ATOM     13  N   UNL     1       5.269   3.342  17.557  0.00  0.00    +0.000 N 
ATOM     14  C   UNL     1       5.304   3.542  18.920  0.00  0.00    +0.000 C 
ATOM     15  O   UNL     1       5.806   4.536  19.442  0.00  0.00    +0.000 OA
ATOM     16  H   UNL     1       5.116   2.407  17.205  0.00  0.00    +0.000 HD
BRANCH  14  17
ATOM     17  C   UNL     1       4.657   2.441  19.736  0.00  0.00    +0.000 C 
BRANCH  17  18
ATOM     18  C   UNL     1       3.168   2.629  19.913  0.00  0.00    +0.000 A 
ATOM     19  C   UNL     1       2.289   2.387  18.848  0.00  0.00    +0.000 A 
ATOM     20  C   UNL     1       0.911   2.529  19.019  0.00  0.00    +0.000 A 
ATOM     21  C   UNL     1       0.395   2.911  20.256  0.00  0.00    +0.000 A 
ATOM     22  C   UNL     1       1.257   3.152  21.323  0.00  0.00    +0.000 A 
ATOM     23  C   UNL     1       2.636   3.010  21.154  0.00  0.00    +0.000 A 
ENDBRANCH  17  18
ENDBRANCH  14  17
ENDBRANCH   1  13
BRANCH   1  24
ATOM     24  C   UNL     1       6.194   3.639  15.281  0.00  0.00    +0.000 C 
BRANCH  24  25
ATOM     25  C   UNL     1       5.594   4.280  14.026  0.00  0.00    +0.000 C 
BRANCH  25  26
ATOM     26  C   UNL     1       6.333   3.930  12.735  0.00  0.00    +0.000 C 
BRANCH  26  28
ATOM     27  C   UNL     1       4.280   3.261  11.428  0.00  0.00    +0.000 C 
ATOM     28  C   UNL     1       5.609   2.800  12.000  0.00  0.00    +0.000 C 
ENDBRANCH  26  28
ENDBRANCH  25  26
ENDBRANCH  24  25
ENDBRANCH   1  24
TORSDOF 10
ENDMDL
MODEL 6
REMARK VINA RESULT:      -7.6      1.404      1.974
REMARK  Name = 
REMARK  11 active torsions:
REMARK  status: ('A' for Active; 'I' for Inactive)
REMARK    1  A    between atoms: C_1  and  C_2
REMARK    2  A    between atoms: C_2  and  C_3
REMARK    3  A    between atoms: C_3  and  C_4
REMARK    4  A    between atoms: C_4  and  C_5
REMARK    5  A    between atoms: C_5  and  C_6
REMARK    6  A    between atoms: C_6  and  N_7
REMARK    7  A    between atoms: C_6  and  N_17
REMARK    8  A    between atoms: C_8  and  C_10
REMARK    9  A    between atoms: C_10  and  C_11
REMARK   10  A    between atoms: C_18  and  C_20
REMARK   11  A    between atoms: C_20  and  C_21
REMARK                            x       y       z     vdW  Elec       q    Type
REMARK                         _______ _______ _______ _____ _____    ______ ____
ROOT
ATOM      1  C   UNL     1       6.618   6.715  17.412  0.00  0.00    +0.000 C 
ENDROOT
BRANCH   1   2
ATOM      2  N   UNL     1       7.031   8.080  17.213  0.00  0.00    +0.000 N 
ATOM      3  C   UNL     1       8.038   8.653  17.956  0.00  0.00    +0.000 C 
ATOM      4  O   UNL     1       8.683   8.038  18.803  0.00  0.00    +0.000 OA
ATOM      5  H   UNL     1       6.303   8.689  16.856  0.00  0.00    +0.000 HD
BRANCH   3   6
ATOM      6  C   UNL     1       8.331  10.101  17.599  0.00  0.00    +0.000 C 
BRANCH   6   7
ATOM      7  C   UNL     1       9.391  10.736  18.465  0.00  0.00    +0.000 A 
ATOM      8  C   UNL     1      10.610  11.156  17.915  0.00  0.00    +0.000 A 
ATOM      9  C   UNL     1      11.597  11.720  18.726  0.00  0.00    +0.000 A 
ATOM     10  C   UNL     1      11.377  11.868  20.095  0.00  0.00    +0.000 A 
ATOM     11  C   UNL     1      10.161  11.470  20.649  0.00  0.00    +0.000 A 
ATOM     12  C   UNL     1       9.173  10.908  19.840  0.00  0.00    +0.000 A 
ENDBRANCH   6   7
ENDBRANCH   3   6
ENDBRANCH   1   2
BRANCH   1  13
ATOM     13  N   UNL     1       5.179   6.656  17.507  0.00  0.00    +0.000 N 
ATOM     14  C   UNL     1       4.518   5.690  18.234  0.00  0.00    +0.000 C 
ATOM     15  O   UNL     1       5.095   4.785  18.833  0.00  0.00    +0.000 OA
ATOM     16  H   UNL     1       4.664   7.185  16.817  0.00  0.00    +0.000 HD
BRANCH  14  17
ATOM     17  C   UNL     1       3.009   5.838  18.254  0.00  0.00    +0.000 C 
BRANCH  17  18
ATOM     18  C   UNL     1       2.318   4.769  19.067  0.00  0.00    +0.000 A 
ATOM     19  C   UNL     1       2.352   4.807  20.468  0.00  0.00    +0.000 A 
ATOM     20  C   UNL     1       1.686   3.838  21.221  0.00  0.00    +0.000 A 
ATOM     21  C   UNL     1       0.977   2.821  20.583  0.00  0.00    +0.000 A 
ATOM     22  C   UNL     1       0.934   2.773  19.192  0.00  0.00    +0.000 A 
ATOM     23  C   UNL     1       1.598   3.742  18.437  0.00  0.00    +0.000 A 
ENDBRANCH  17  18
ENDBRANCH  14  17
ENDBRANCH   1  13
BRANCH   1  24
ATOM     24  C   UNL     1       7.163   5.773  16.320  0.00  0.00    +0.000 C 
BRANCH  24  25
ATOM     25  C   UNL     1       6.323   5.706  15.041  0.00  0.00    +0.000 C 
BRANCH  25  26
ATOM     26  C   UNL     1       5.588   4.379  14.849  0.00  0.00    +0.000 C 
BRANCH  26  28
ATOM     27  C   UNL     1       7.034   4.513  12.785  0.00  0.00    +0.000 C 
ATOM     28  C   UNL     1       6.177   3.616  13.660  0.00  0.00    +0.000 C 
ENDBRANCH  26  28
ENDBRANCH  25  26
ENDBRANCH  24  25
ENDBRANCH   1  24
TORSDOF 10
ENDMDL
MODEL 7
REMARK VINA RESULT:      -7.6      1.667      2.981
REMARK  Name = 
REMARK  11 active torsions:
REMARK  status: ('A' for Active; 'I' for Inactive)
REMARK    1  A    between atoms: C_1  and  C_2
REMARK    2  A    between atoms: C_2  and  C_3
REMARK    3  A    between atoms: C_3  and  C_4
REMARK    4  A    between atoms: C_4  and  C_5
REMARK    5  A    between atoms: C_5  and  C_6
REMARK    6  A    between atoms: C_6  and  N_7
REMARK    7  A    between atoms: C_6  and  N_17
REMARK    8  A    between atoms: C_8  and  C_10
REMARK    9  A    between atoms: C_10  and  C_11
REMARK   10  A    between atoms: C_18  and  C_20
REMARK   11  A    between atoms: C_20  and  C_21
REMARK                            x       y       z     vdW  Elec       q    Type
REMARK                         _______ _______ _______ _____ _____    ______ ____
ROOT
ATOM      1  C   UNL     1       6.947   6.344  17.388  0.00  0.00    +0.000 C 
ENDROOT
BRANCH   1   2
ATOM      2  N   UNL     1       7.151   7.764  17.264  0.00  0.00    +0.000 N 
ATOM      3  C   UNL     1       8.040   8.446  18.064  0.00  0.00    +0.000 C 
ATOM      4  O   UNL     1       8.751   7.896  18.903  0.00  0.00    +0.000 OA
ATOM      5  H   UNL     1       6.347   8.273  16.911  0.00  0.00    +0.000 HD
BRANCH   3   6
ATOM      6  C   UNL     1       8.117   9.938  17.782  0.00  0.00    +0.000 C 
BRANCH   6   7
ATOM      7  C   UNL     1       9.238  10.636  18.511  0.00  0.00    +0.000 A 
ATOM      8  C   UNL     1      10.369  11.093  17.819  0.00  0.00    +0.000 A 
ATOM      9  C   UNL     1      11.415  11.715  18.504  0.00  0.00    +0.000 A 
ATOM     10  C   UNL     1      11.342  11.886  19.886  0.00  0.00    +0.000 A 
ATOM     11  C   UNL     1      10.215  11.452  20.580  0.00  0.00    +0.000 A 
ATOM     12  C   UNL     1       9.168  10.831  19.898  0.00  0.00    +0.000 A 
ENDBRANCH   6   7
ENDBRANCH   3   6
ENDBRANCH   1   2
BRANCH   1  13
ATOM     13  N   UNL     1       5.615   6.091  17.882  0.00  0.00    +0.000 N 
ATOM     14  C   UNL     1       4.482   6.544  17.242  0.00  0.00    +0.000 C 
ATOM     15  O   UNL     1       4.514   7.226  16.220  0.00  0.00    +0.000 OA
ATOM     16  H   UNL     1       5.546   5.794  18.846  0.00  0.00    +0.000 HD
BRANCH  14  17
ATOM     17  C   UNL     1       3.179   6.121  17.892  0.00  0.00    +0.000 C 
BRANCH  17  18
ATOM     18  C   UNL     1       2.470   7.256  18.593  0.00  0.00    +0.000 A 
ATOM     19  C   UNL     1       2.055   8.387  17.876  0.00  0.00    +0.000 A 
ATOM     20  C   UNL     1       1.370   9.422  18.516  0.00  0.00    +0.000 A 
ATOM     21  C   UNL     1       1.090   9.337  19.879  0.00  0.00    +0.000 A 
ATOM     22  C   UNL     1       1.495   8.218  20.603  0.00  0.00    +0.000 A 
ATOM     23  C   UNL     1       2.179   7.182  19.964  0.00  0.00    +0.000 A 
ENDBRANCH  17  18
ENDBRANCH  14  17
ENDBRANCH   1  13
BRANCH   1  24
ATOM     24  C   UNL     1       7.227   5.595  16.071  0.00  0.00    +0.000 C 
BRANCH  24  25
ATOM     25  C   UNL     1       6.637   4.183  15.988  0.00  0.00    +0.000 C 
BRANCH  25  26
ATOM     26  C   UNL     1       5.703   3.968  14.797  0.00  0.00    +0.000 C 
BRANCH  26  28
ATOM     27  C   UNL     1       5.736   3.343  12.352  0.00  0.00    +0.000 C 
ATOM     28  C   UNL     1       6.498   3.999  13.490  0.00  0.00    +0.000 C 
ENDBRANCH  26  28
ENDBRANCH  25  26
ENDBRANCH  24  25
ENDBRANCH   1  24
TORSDOF 10
ENDMDL
MODEL 8
REMARK VINA RESULT:      -7.6      1.909      3.076
REMARK  Name = 
REMARK  11 active torsions:
REMARK  status: ('A' for Active; 'I' for Inactive)
REMARK    1  A    between atoms: C_1  and  C_2
REMARK    2  A    between atoms: C_2  and  C_3
REMARK    3  A    between atoms: C_3  and  C_4
REMARK    4  A    between atoms: C_4  and  C_5
REMARK    5  A    between atoms: C_5  and  C_6
REMARK    6  A    between atoms: C_6  and  N_7
REMARK    7  A    between atoms: C_6  and  N_17
REMARK    8  A    between atoms: C_8  and  C_10
REMARK    9  A    between atoms: C_10  and  C_11
REMARK   10  A    between atoms: C_18  and  C_20
REMARK   11  A    between atoms: C_20  and  C_21
REMARK                            x       y       z     vdW  Elec       q    Type
REMARK                         _______ _______ _______ _____ _____    ______ ____
ROOT
ATOM      1  C   UNL     1       6.550   6.692  17.423  0.00  0.00    +0.000 C 
ENDROOT
BRANCH   1   2
ATOM      2  N   UNL     1       6.959   8.060  17.236  0.00  0.00    +0.000 N 
ATOM      3  C   UNL     1       7.993   8.617  17.954  0.00  0.00    +0.000 C 
ATOM      4  O   UNL     1       8.666   7.985  18.766  0.00  0.00    +0.000 OA
ATOM      5  H   UNL     1       6.220   8.677  16.916  0.00  0.00    +0.000 HD
BRANCH   3   6
ATOM      6  C   UNL     1       8.277  10.071  17.615  0.00  0.00    +0.000 C 
BRANCH   6   7
ATOM      7  C   UNL     1       9.365  10.689  18.457  0.00  0.00    +0.000 A 
ATOM      8  C   UNL     1       9.209  10.825  19.844  0.00  0.00    +0.000 A 
ATOM      9  C   UNL     1      10.209  11.421  20.615  0.00  0.00    +0.000 A 
ATOM     10  C   UNL     1      11.375  11.887  20.008  0.00  0.00    +0.000 A 
ATOM     11  C   UNL     1      11.548  11.739  18.634  0.00  0.00    +0.000 A 
ATOM     12  C   UNL     1      10.550  11.143  17.861  0.00  0.00    +0.000 A 
ENDBRANCH   6   7
ENDBRANCH   3   6
ENDBRANCH   1   2
BRANCH   1  13
ATOM     13  N   UNL     1       5.110   6.610  17.387  0.00  0.00    +0.000 N 
ATOM     14  C   UNL     1       4.368   6.038  18.398  0.00  0.00    +0.000 C 
ATOM     15  O   UNL     1       4.873   5.524  19.394  0.00  0.00    +0.000 OA
ATOM     16  H   UNL     1       4.678   6.751  16.484  0.00  0.00    +0.000 HD
BRANCH  14  17
ATOM     17  C   UNL     1       2.868   6.105  18.194  0.00  0.00    +0.000 C 
BRANCH  17  18
ATOM     18  C   UNL     1       2.257   7.394  18.690  0.00  0.00    +0.000 A 
ATOM     19  C   UNL     1       2.002   8.449  17.802  0.00  0.00    +0.000 A 
ATOM     20  C   UNL     1       1.408   9.629  18.253  0.00  0.00    +0.000 A 
ATOM     21  C   UNL     1       1.060   9.768  19.596  0.00  0.00    +0.000 A 
ATOM     22  C   UNL     1       1.307   8.728  20.488  0.00  0.00    +0.000 A 
ATOM     23  C   UNL     1       1.899   7.546  20.039  0.00  0.00    +0.000 A 
ENDBRANCH  17  18
ENDBRANCH  14  17
ENDBRANCH   1  13
BRANCH   1  24
ATOM     24  C   UNL     1       7.208   5.739  16.405  0.00  0.00    +0.000 C 
BRANCH  24  25
ATOM     25  C   UNL     1       6.251   4.758  15.721  0.00  0.00    +0.000 C 
BRANCH  25  26
ATOM     26  C   UNL     1       6.785   4.181  14.410  0.00  0.00    +0.000 C 
BRANCH  26  28
ATOM     27  C   UNL     1       6.119   3.328  12.130  0.00  0.00    +0.000 C 
ATOM     28  C   UNL     1       5.626   3.842  13.471  0.00  0.00    +0.000 C 
ENDBRANCH  26  28
ENDBRANCH  25  26
ENDBRANCH  24  25
ENDBRANCH   1  24
TORSDOF 10
ENDMDL
MODEL 9
REMARK VINA RESULT:      -7.6      1.923      7.378
REMARK  Name = 
REMARK  11 active torsions:
REMARK  status: ('A' for Active; 'I' for Inactive)
REMARK    1  A    between atoms: C_1  and  C_2
REMARK    2  A    between atoms: C_2  and  C_3
REMARK    3  A    between atoms: C_3  and  C_4
REMARK    4  A    between atoms: C_4  and  C_5
REMARK    5  A    between atoms: C_5  and  C_6
REMARK    6  A    between atoms: C_6  and  N_7
REMARK    7  A    between atoms: C_6  and  N_17
REMARK    8  A    between atoms: C_8  and  C_10
REMARK    9  A    between atoms: C_10  and  C_11
REMARK   10  A    between atoms: C_18  and  C_20
REMARK   11  A    between atoms: C_20  and  C_21
REMARK                            x       y       z     vdW  Elec       q    Type
REMARK                         _______ _______ _______ _____ _____    ______ ____
ROOT
ATOM      1  C   UNL     1       7.073   5.887  16.839  0.00  0.00    +0.000 C 
ENDROOT
BRANCH   1   2
ATOM      2  N   UNL     1       5.986   5.026  17.227  0.00  0.00    +0.000 N 
ATOM      3  C   UNL     1       5.870   4.529  18.506  0.00  0.00    +0.000 C 
ATOM      4  O   UNL     1       6.651   4.815  19.413  0.00  0.00    +0.000 OA
ATOM      5  H   UNL     1       5.599   4.474  16.470  0.00  0.00    +0.000 HD
BRANCH   3   6
ATOM      6  C   UNL     1       4.657   3.640  18.723  0.00  0.00    +0.000 C 
BRANCH   6   7
ATOM      7  C   UNL     1       3.527   4.325  19.451  0.00  0.00    +0.000 A 
ATOM      8  C   UNL     1       2.659   3.596  20.277  0.00  0.00    +0.000 A 
ATOM      9  C   UNL     1       1.599   4.232  20.928  0.00  0.00    +0.000 A 
ATOM     10  C   UNL     1       1.396   5.600  20.760  0.00  0.00    +0.000 A 
ATOM     11  C   UNL     1       2.264   6.338  19.957  0.00  0.00    +0.000 A 
ATOM     12  C   UNL     1       3.324   5.705  19.306  0.00  0.00    +0.000 A 
ENDBRANCH   6   7
ENDBRANCH   3   6
ENDBRANCH   1   2
BRANCH   1  13
ATOM     13  N   UNL     1       7.273   5.797  15.413  0.00  0.00    +0.000 N 
ATOM     14  C   UNL     1       6.912   4.690  14.676  0.00  0.00    +0.000 C 
ATOM     15  O   UNL     1       6.423   3.679  15.176  0.00  0.00    +0.000 OA
ATOM     16  H   UNL     1       7.919   6.462  15.010  0.00  0.00    +0.000 HD
BRANCH  14  17
ATOM     17  C   UNL     1       7.153   4.818  13.185  0.00  0.00    +0.000 C 
BRANCH  17  18
ATOM     18  C   UNL     1       6.626   3.643  12.395  0.00  0.00    +0.000 A 
ATOM     19  C   UNL     1       5.248   3.480  12.196  0.00  0.00    +0.000 A 
ATOM     20  C   UNL     1       4.760   2.413  11.439  0.00  0.00    +0.000 A 
ATOM     21  C   UNL     1       5.645   1.499  10.869  0.00  0.00    +0.000 A 
ATOM     22  C   UNL     1       7.016   1.650  11.057  0.00  0.00    +0.000 A 
ATOM     23  C   UNL     1       7.506   2.717  11.813  0.00  0.00    +0.000 A 
ENDBRANCH  17  18
ENDBRANCH  14  17
ENDBRANCH   1  13
BRANCH   1  24
ATOM     24  C   UNL     1       6.863   7.341  17.302  0.00  0.00    +0.000 C 
BRANCH  24  25
ATOM     25  C   UNL     1       8.092   8.008  17.928  0.00  0.00    +0.000 C 
BRANCH  25  26
ATOM     26  C   UNL     1       8.034   9.536  17.934  0.00  0.00    +0.000 C 
BRANCH  26  28
ATOM     27  C   UNL     1      10.028  11.061  18.201  0.00  0.00    +0.000 C 
ATOM     28  C   UNL     1       9.081  10.100  18.898  0.00  0.00    +0.000 C 
ENDBRANCH  26  28
ENDBRANCH  25  26
ENDBRANCH  24  25
ENDBRANCH   1  24
TORSDOF 10
ENDMDL
