MODEL 1
REMARK VINA RESULT:      -7.9      0.000      0.000
REMARK  Name = 
REMARK  11 active torsions:
REMARK  status: ('A' for Active; 'I' for Inactive)
REMARK    1  A    between atoms: C_1  and  N_2
REMARK    2  A    between atoms: C_5  and  C_6
REMARK    3  A    between atoms: C_12  and  C_14
REMARK    4  A    between atoms: C_14  and  O_15
REMARK    5  A    between atoms: C_14  and  C_16
REMARK    6  A    between atoms: C_16  and  O_17
REMARK    7  A    between atoms: C_16  and  C_18
REMARK    8  A    between atoms: N_20  and  C_21
REMARK    9  A    between atoms: C_21  and  C_22
REMARK   10  A    between atoms: C_21  and  C_23
REMARK   11  A    between atoms: C_26  and  N_27
REMARK                            x       y       z     vdW  Elec       q    Type
REMARK                         _______ _______ _______ _____ _____    ______ ____
ROOT
ATOM      1  C   UNL     1       1.750   8.531  20.790  0.00  0.00    +0.000 C 
ENDROOT
BRANCH   1   2
ATOM      2  C   UNL     1       1.738   7.044  20.314  0.00  0.00    +0.000 C 
ATOM      3  O   UNL     1       1.016   6.198  20.838  0.00  0.00    +0.000 OA
ATOM      4  N   UNL     1       2.693   6.697  19.372  0.00  0.00    +0.000 N 
ATOM      5  H   UNL     1       3.271   7.418  18.962  0.00  0.00    +0.000 HD
BRANCH   4   6
ATOM      6  C   UNL     1       2.907   5.310  18.951  0.00  0.00    +0.000 C 
ATOM      7  C   UNL     1       3.242   4.400  20.142  0.00  0.00    +0.000 C 
BRANCH   6   8
ATOM      8  C   UNL     1       3.980   5.159  17.878  0.00  0.00    +0.000 A 
ATOM      9  C   UNL     1       4.404   6.294  17.168  0.00  0.00    +0.000 A 
ATOM     10  C   UNL     1       5.204   6.180  16.024  0.00  0.00    +0.000 A 
ATOM     11  C   UNL     1       5.602   4.919  15.568  0.00  0.00    +0.000 A 
ATOM     12  C   UNL     1       5.265   3.785  16.325  0.00  0.00    +0.000 A 
ATOM     13  C   UNL     1       4.464   3.906  17.472  0.00  0.00    +0.000 A 
BRANCH  11  14
ATOM     14  N   UNL     1       6.290   4.772  14.327  0.00  0.00    +0.000 N 
ATOM     15  C   UNL     1       5.996   3.910  13.287  0.00  0.00    +0.000 A 
ATOM     16  C   UNL     1       7.001   4.030  12.357  0.00  0.00    +0.000 A 
ATOM     17  C   UNL     1       7.849   5.011  12.886  0.00  0.00    +0.000 A 
ATOM     18  N   UNL     1       7.424   5.476  14.062  0.00  0.00    +0.000 NA
ENDBRANCH  11  14
ENDBRANCH   6   8
ENDBRANCH   4   6
ENDBRANCH   1   2
BRANCH   1  19
ATOM     19  O   UNL     1       2.006   8.508  22.207  0.00  0.00    +0.000 OA
ATOM     20  H   UNL     1       1.838   9.414  22.532  0.00  0.00    +0.000 HD
ENDBRANCH   1  19
BRANCH   1  21
ATOM     21  C   UNL     1       0.405   9.252  20.493  0.00  0.00    +0.000 C 
BRANCH  21  28
ATOM     22  C   UNL     1      -0.961  12.923  20.527  0.00  0.00    +0.000 C 
ATOM     23  C   UNL     1      -2.485  12.881  20.213  0.00  0.00    +0.000 C 
ATOM     24  C   UNL     1      -2.637  11.916  19.062  0.00  0.00    +0.000 C 
ATOM     25  C   UNL     1      -1.782  11.984  17.829  0.00  0.00    +0.000 C 
ATOM     26  C   UNL     1      -1.366  11.118  18.992  0.00  0.00    +0.000 C 
ATOM     27  N   UNL     1      -0.468  11.591  20.028  0.00  0.00    +0.000 N 
ATOM     28  C   UNL     1       0.393  10.792  20.801  0.00  0.00    +0.000 C 
ATOM     29  O   UNL     1       1.075  11.278  21.701  0.00  0.00    +0.000 OA
BRANCH  22  34
ATOM     30  C   UNL     1       3.812  14.340  18.447  0.00  0.00    +0.000 C 
ATOM     31  N   UNL     1       2.686  15.182  18.118  0.00  0.00    +0.000 N 
ATOM     32  C   UNL     1       1.492  14.995  18.731  0.00  0.00    +0.000 A 
ATOM     33  N   UNL     1       1.056  13.893  19.303  0.00  0.00    +0.000 NA
ATOM     34  C   UNL     1      -0.236  14.068  19.828  0.00  0.00    +0.000 A 
ATOM     35  C   UNL     1      -0.743  15.338  19.624  0.00  0.00    +0.000 A 
ATOM     36  S   UNL     1       0.383  16.313  18.791  0.00  0.00    +0.000 S 
ATOM     37  H   UNL     1       2.927  16.145  17.914  0.00  0.00    +0.000 HD
ENDBRANCH  22  34
ENDBRANCH  21  28
BRANCH  21  38
ATOM     38  O   UNL     1      -0.646   8.616  21.237  0.00  0.00    +0.000 OA
ATOM     39  H   UNL     1      -1.455   8.696  20.700  0.00  0.00    +0.000 HD
ENDBRANCH  21  38
ENDBRANCH   1  21
TORSDOF 9
ENDMDL
MODEL 2
REMARK VINA RESULT:      -7.8      1.282      1.460
REMARK  Name = 
REMARK  11 active torsions:
REMARK  status: ('A' for Active; 'I' for Inactive)
REMARK    1  A    between atoms: C_1  and  N_2
REMARK    2  A    between atoms: C_5  and  C_6
REMARK    3  A    between atoms: C_12  and  C_14
REMARK    4  A    between atoms: C_14  and  O_15
REMARK    5  A    between atoms: C_14  and  C_16
REMARK    6  A    between atoms: C_16  and  O_17
REMARK    7  A    between atoms: C_16  and  C_18
REMARK    8  A    between atoms: N_20  and  C_21
REMARK    9  A    between atoms: C_21  and  C_22
REMARK   10  A    between atoms: C_21  and  C_23
REMARK   11  A    between atoms: C_26  and  N_27
REMARK                            x       y       z     vdW  Elec       q    Type
REMARK                         _______ _______ _______ _____ _____    ______ ____
ROOT
ATOM      1  C   UNL     1       1.142   9.387  21.798  0.00  0.00    +0.000 C 
ENDROOT
BRANCH   1   2
ATOM      2  C   UNL     1       0.934   8.019  21.074  0.00  0.00    +0.000 C 
ATOM      3  O   UNL     1      -0.163   7.465  21.031  0.00  0.00    +0.000 OA
ATOM      4  N   UNL     1       2.081   7.391  20.613  0.00  0.00    +0.000 N 
ATOM      5  H   UNL     1       2.967   7.875  20.664  0.00  0.00    +0.000 HD
BRANCH   4   6
ATOM      6  C   UNL     1       2.059   6.036  20.059  0.00  0.00    +0.000 C 
ATOM      7  C   UNL     1       2.118   4.969  21.162  0.00  0.00    +0.000 C 
BRANCH   6   8
ATOM      8  C   UNL     1       3.166   5.778  19.042  0.00  0.00    +0.000 A 
ATOM      9  C   UNL     1       3.603   6.831  18.222  0.00  0.00    +0.000 A 
ATOM     10  C   UNL     1       4.439   6.598  17.122  0.00  0.00    +0.000 A 
ATOM     11  C   UNL     1       4.860   5.299  16.823  0.00  0.00    +0.000 A 
ATOM     12  C   UNL     1       4.509   4.253  17.692  0.00  0.00    +0.000 A 
ATOM     13  C   UNL     1       3.672   4.492  18.793  0.00  0.00    +0.000 A 
BRANCH  11  14
ATOM     14  N   UNL     1       5.588   5.021  15.627  0.00  0.00    +0.000 N 
ATOM     15  C   UNL     1       5.300   4.083  14.653  0.00  0.00    +0.000 A 
ATOM     16  C   UNL     1       6.343   4.088  13.757  0.00  0.00    +0.000 A 
ATOM     17  C   UNL     1       7.207   5.082  14.234  0.00  0.00    +0.000 A 
ATOM     18  N   UNL     1       6.756   5.661  15.348  0.00  0.00    +0.000 NA
ENDBRANCH  11  14
ENDBRANCH   6   8
ENDBRANCH   4   6
ENDBRANCH   1   2
BRANCH   1  19
ATOM     19  O   UNL     1       2.142   9.167  22.813  0.00  0.00    +0.000 OA
ATOM     20  H   UNL     1       2.421  10.052  23.120  0.00  0.00    +0.000 HD
ENDBRANCH   1  19
BRANCH   1  21
ATOM     21  C   UNL     1      -0.171   9.919  22.436  0.00  0.00    +0.000 C 
BRANCH  21  28
ATOM     22  C   UNL     1      -1.559  13.154  20.720  0.00  0.00    +0.000 C 
ATOM     23  C   UNL     1      -2.676  12.737  19.721  0.00  0.00    +0.000 C 
ATOM     24  C   UNL     1      -2.136  11.536  18.983  0.00  0.00    +0.000 C 
ATOM     25  C   UNL     1      -0.761  11.508  18.378  0.00  0.00    +0.000 C 
ATOM     26  C   UNL     1      -0.978  11.016  19.788  0.00  0.00    +0.000 C 
ATOM     27  N   UNL     1      -0.798  11.874  20.943  0.00  0.00    +0.000 N 
ATOM     28  C   UNL     1      -0.436  11.453  22.235  0.00  0.00    +0.000 C 
ATOM     29  O   UNL     1      -0.368  12.250  23.169  0.00  0.00    +0.000 OA
BRANCH  22  34
ATOM     30  C   UNL     1       3.625  14.605  20.346  0.00  0.00    +0.000 C 
ATOM     31  N   UNL     1       2.690  15.318  19.509  0.00  0.00    +0.000 N 
ATOM     32  C   UNL     1       1.357  15.133  19.663  0.00  0.00    +0.000 A 
ATOM     33  N   UNL     1       0.755  14.089  20.191  0.00  0.00    +0.000 NA
ATOM     34  C   UNL     1      -0.643  14.244  20.175  0.00  0.00    +0.000 A 
ATOM     35  C   UNL     1      -1.054  15.439  19.615  0.00  0.00    +0.000 A 
ATOM     36  S   UNL     1       0.286  16.370  19.119  0.00  0.00    +0.000 S 
ATOM     37  H   UNL     1       2.976  16.260  19.269  0.00  0.00    +0.000 HD
ENDBRANCH  22  34
ENDBRANCH  21  28
BRANCH  21  38
ATOM     38  O   UNL     1      -0.167   9.623  23.842  0.00  0.00    +0.000 OA
ATOM     39  H   UNL     1       0.758   9.689  24.138  0.00  0.00    +0.000 HD
ENDBRANCH  21  38
ENDBRANCH   1  21
TORSDOF 9
ENDMDL
MODEL 3
REMARK VINA RESULT:      -7.4      2.899      4.066
REMARK  Name = 
REMARK  11 active torsions:
REMARK  status: ('A' for Active; 'I' for Inactive)
REMARK    1  A    between atoms: C_1  and  N_2
REMARK    2  A    between atoms: C_5  and  C_6
REMARK    3  A    between atoms: C_12  and  C_14
REMARK    4  A    between atoms: C_14  and  O_15
REMARK    5  A    between atoms: C_14  and  C_16
REMARK    6  A    between atoms: C_16  and  O_17
REMARK    7  A    between atoms: C_16  and  C_18
REMARK    8  A    between atoms: N_20  and  C_21
REMARK    9  A    between atoms: C_21  and  C_22
REMARK   10  A    between atoms: C_21  and  C_23
REMARK   11  A    between atoms: C_26  and  N_27
REMARK                            x       y       z     vdW  Elec       q    Type
REMARK                         _______ _______ _______ _____ _____    ______ ____
ROOT
ATOM      1  C   UNL     1       1.381   9.510  22.120  0.00  0.00    +0.000 C 
ENDROOT
BRANCH   1   2
ATOM      2  C   UNL     1       0.964   8.185  21.406  0.00  0.00    +0.000 C 
ATOM      3  O   UNL     1      -0.182   7.744  21.468  0.00  0.00    +0.000 OA
ATOM      4  N   UNL     1       1.989   7.456  20.824  0.00  0.00    +0.000 N 
ATOM      5  H   UNL     1       2.921   7.848  20.791  0.00  0.00    +0.000 HD
BRANCH   4   6
ATOM      6  C   UNL     1       1.775   6.121  20.260  0.00  0.00    +0.000 C 
ATOM      7  C   UNL     1       2.078   5.016  21.283  0.00  0.00    +0.000 C 
BRANCH   6   8
ATOM      8  C   UNL     1       2.573   5.866  18.985  0.00  0.00    +0.000 A 
ATOM      9  C   UNL     1       2.795   4.543  18.570  0.00  0.00    +0.000 A 
ATOM     10  C   UNL     1       3.709   4.243  17.551  0.00  0.00    +0.000 A 
ATOM     11  C   UNL     1       4.420   5.270  16.922  0.00  0.00    +0.000 A 
ATOM     12  C   UNL     1       4.134   6.603  17.262  0.00  0.00    +0.000 A 
ATOM     13  C   UNL     1       3.216   6.896  18.283  0.00  0.00    +0.000 A 
BRANCH  11  14
ATOM     14  N   UNL     1       5.459   4.978  15.989  0.00  0.00    +0.000 N 
ATOM     15  C   UNL     1       6.817   5.197  16.129  0.00  0.00    +0.000 A 
ATOM     16  C   UNL     1       7.411   4.876  14.931  0.00  0.00    +0.000 A 
ATOM     17  C   UNL     1       6.353   4.435  14.126  0.00  0.00    +0.000 A 
ATOM     18  N   UNL     1       5.178   4.475  14.756  0.00  0.00    +0.000 NA
ENDBRANCH  11  14
ENDBRANCH   6   8
ENDBRANCH   4   6
ENDBRANCH   1   2
BRANCH   1  19
ATOM     19  O   UNL     1       0.885   9.423  23.470  0.00  0.00    +0.000 OA
ATOM     20  H   UNL     1       0.953  10.322  23.846  0.00  0.00    +0.000 HD
ENDBRANCH   1  19
BRANCH   1  21
ATOM     21  C   UNL     1       0.804  10.766  21.409  0.00  0.00    +0.000 C 
BRANCH  21  28
ATOM     22  C   UNL     1      -2.189  13.246  21.888  0.00  0.00    +0.000 C 
ATOM     23  C   UNL     1      -2.413  14.007  20.549  0.00  0.00    +0.000 C 
ATOM     24  C   UNL     1      -1.037  14.401  20.069  0.00  0.00    +0.000 C 
ATOM     25  C   UNL     1      -0.026  15.062  20.962  0.00  0.00    +0.000 C 
ATOM     26  C   UNL     1      -0.053  13.559  20.831  0.00  0.00    +0.000 C 
ATOM     27  N   UNL     1      -0.787  12.714  21.753  0.00  0.00    +0.000 N 
ATOM     28  C   UNL     1      -0.474  11.383  22.080  0.00  0.00    +0.000 C 
ATOM     29  O   UNL     1      -1.194  10.725  22.829  0.00  0.00    +0.000 OA
BRANCH  22  34
ATOM     30  C   UNL     1      -5.501  16.747  24.314  0.00  0.00    +0.000 C 
ATOM     31  N   UNL     1      -4.396  16.251  25.098  0.00  0.00    +0.000 N 
ATOM     32  C   UNL     1      -3.427  15.503  24.516  0.00  0.00    +0.000 A 
ATOM     33  N   UNL     1      -3.526  14.796  23.410  0.00  0.00    +0.000 NA
ATOM     34  C   UNL     1      -2.317  14.141  23.115  0.00  0.00    +0.000 A 
ATOM     35  C   UNL     1      -1.321  14.386  24.042  0.00  0.00    +0.000 A 
ATOM     36  S   UNL     1      -1.878  15.432  25.269  0.00  0.00    +0.000 S 
ATOM     37  H   UNL     1      -4.083  16.880  25.828  0.00  0.00    +0.000 HD
ENDBRANCH  22  34
ENDBRANCH  21  28
BRANCH  21  38
ATOM     38  O   UNL     1       0.506  10.440  20.042  0.00  0.00    +0.000 OA
ATOM     39  H   UNL     1      -0.262  10.983  19.787  0.00  0.00    +0.000 HD
ENDBRANCH  21  38
ENDBRANCH   1  21
TORSDOF 9
ENDMDL
MODEL 4
REMARK VINA RESULT:      -7.4      3.198      4.943
REMARK  Name = 
REMARK  11 active torsions:
REMARK  status: ('A' for Active; 'I' for Inactive)
REMARK    1  A    between atoms: C_1  and  N_2
REMARK    2  A    between atoms: C_5  and  C_6
REMARK    3  A    between atoms: C_12  and  C_14
REMARK    4  A    between atoms: C_14  and  O_15
REMARK    5  A    between atoms: C_14  and  C_16
REMARK    6  A    between atoms: C_16  and  O_17
REMARK    7  A    between atoms: C_16  and  C_18
REMARK    8  A    between atoms: N_20  and  C_21
REMARK    9  A    between atoms: C_21  and  C_22
REMARK   10  A    between atoms: C_21  and  C_23
REMARK   11  A    between atoms: C_26  and  N_27
REMARK                            x       y       z     vdW  Elec       q    Type
REMARK                         _______ _______ _______ _____ _____    ______ ____
ROOT
ATOM      1  C   UNL     1      -0.925  11.250  22.986  0.00  0.00    +0.000 C 
ENDROOT
BRANCH   1   2
ATOM      2  C   UNL     1      -0.041  11.183  21.701  0.00  0.00    +0.000 C 
ATOM      3  O   UNL     1       0.926  11.925  21.535  0.00  0.00    +0.000 OA
ATOM      4  N   UNL     1      -0.493  10.348  20.691  0.00  0.00    +0.000 N 
ATOM      5  H   UNL     1      -1.292   9.751  20.860  0.00  0.00    +0.000 HD
BRANCH   4   6
ATOM      6  C   UNL     1       0.142  10.303  19.372  0.00  0.00    +0.000 C 
ATOM      7  C   UNL     1      -0.894  10.159  18.247  0.00  0.00    +0.000 C 
BRANCH   6   8
ATOM      8  C   UNL     1       1.192   9.205  19.240  0.00  0.00    +0.000 A 
ATOM      9  C   UNL     1       1.835   9.017  18.006  0.00  0.00    +0.000 A 
ATOM     10  C   UNL     1       2.625   7.885  17.762  0.00  0.00    +0.000 A 
ATOM     11  C   UNL     1       2.791   6.917  18.757  0.00  0.00    +0.000 A 
ATOM     12  C   UNL     1       2.233   7.143  20.026  0.00  0.00    +0.000 A 
ATOM     13  C   UNL     1       1.443   8.279  20.264  0.00  0.00    +0.000 A 
BRANCH  11  14
ATOM     14  N   UNL     1       3.467   5.691  18.482  0.00  0.00    +0.000 N 
ATOM     15  C   UNL     1       3.206   4.782  17.474  0.00  0.00    +0.000 A 
ATOM     16  C   UNL     1       4.026   3.697  17.676  0.00  0.00    +0.000 A 
ATOM     17  C   UNL     1       4.782   4.038  18.805  0.00  0.00    +0.000 A 
ATOM     18  N   UNL     1       4.467   5.241  19.288  0.00  0.00    +0.000 NA
ENDBRANCH  11  14
ENDBRANCH   6   8
ENDBRANCH   4   6
ENDBRANCH   1   2
BRANCH   1  19
ATOM     19  O   UNL     1      -1.172   9.888  23.387  0.00  0.00    +0.000 OA
ATOM     20  H   UNL     1      -0.379   9.378  23.129  0.00  0.00    +0.000 HD
ENDBRANCH   1  19
BRANCH   1  21
ATOM     21  C   UNL     1      -2.267  11.994  22.737  0.00  0.00    +0.000 C 
BRANCH  21  28
ATOM     22  C   UNL     1      -3.535  15.697  22.593  0.00  0.00    +0.000 C 
ATOM     23  C   UNL     1      -5.057  15.706  22.914  0.00  0.00    +0.000 C 
ATOM     24  C   UNL     1      -5.647  14.563  22.123  0.00  0.00    +0.000 C 
ATOM     25  C   UNL     1      -5.351  14.348  20.666  0.00  0.00    +0.000 C 
ATOM     26  C   UNL     1      -4.502  13.678  21.718  0.00  0.00    +0.000 C 
ATOM     27  N   UNL     1      -3.270  14.265  22.208  0.00  0.00    +0.000 N 
ATOM     28  C   UNL     1      -2.168  13.560  22.722  0.00  0.00    +0.000 C 
ATOM     29  O   UNL     1      -1.188  14.152  23.173  0.00  0.00    +0.000 OA
BRANCH  22  34
ATOM     30  C   UNL     1      -0.078  16.310  18.496  0.00  0.00    +0.000 C 
ATOM     31  N   UNL     1      -1.219  17.193  18.519  0.00  0.00    +0.000 N 
ATOM     32  C   UNL     1      -2.041  17.219  19.595  0.00  0.00    +0.000 A 
ATOM     33  N   UNL     1      -2.213  16.266  20.487  0.00  0.00    +0.000 NA
ATOM     34  C   UNL     1      -3.154  16.644  21.461  0.00  0.00    +0.000 A 
ATOM     35  C   UNL     1      -3.674  17.909  21.259  0.00  0.00    +0.000 A 
ATOM     36  S   UNL     1      -2.992  18.631  19.871  0.00  0.00    +0.000 S 
ATOM     37  H   UNL     1      -1.069  18.086  18.061  0.00  0.00    +0.000 HD
ENDBRANCH  22  34
ENDBRANCH  21  28
BRANCH  21  38
ATOM     38  O   UNL     1      -3.222  11.593  23.733  0.00  0.00    +0.000 OA
ATOM     39  H   UNL     1      -2.867  11.884  24.592  0.00  0.00    +0.000 HD
ENDBRANCH  21  38
ENDBRANCH   1  21
TORSDOF 9
ENDMDL
MODEL 5
REMARK VINA RESULT:      -7.4      1.713      2.192
REMARK  Name = 
REMARK  11 active torsions:
REMARK  status: ('A' for Active; 'I' for Inactive)
REMARK    1  A    between atoms: C_1  and  N_2
REMARK    2  A    between atoms: C_5  and  C_6
REMARK    3  A    between atoms: C_12  and  C_14
REMARK    4  A    between atoms: C_14  and  O_15
REMARK    5  A    between atoms: C_14  and  C_16
REMARK    6  A    between atoms: C_16  and  O_17
REMARK    7  A    between atoms: C_16  and  C_18
REMARK    8  A    between atoms: N_20  and  C_21
REMARK    9  A    between atoms: C_21  and  C_22
REMARK   10  A    between atoms: C_21  and  C_23
REMARK   11  A    between atoms: C_26  and  N_27
REMARK                            x       y       z     vdW  Elec       q    Type
REMARK                         _______ _______ _______ _____ _____    ______ ____
ROOT
ATOM      1  C   UNL     1       1.606   8.534  20.765  0.00  0.00    +0.000 C 
ENDROOT
BRANCH   1   2
ATOM      2  C   UNL     1       1.758   7.141  20.075  0.00  0.00    +0.000 C 
ATOM      3  O   UNL     1       1.667   7.004  18.856  0.00  0.00    +0.000 OA
ATOM      4  N   UNL     1       1.852   6.048  20.921  0.00  0.00    +0.000 N 
ATOM      5  H   UNL     1       1.925   6.196  21.919  0.00  0.00    +0.000 HD
BRANCH   4   6
ATOM      6  C   UNL     1       1.838   4.671  20.422  0.00  0.00    +0.000 C 
ATOM      7  C   UNL     1       1.963   3.650  21.563  0.00  0.00    +0.000 C 
BRANCH   6   8
ATOM      8  C   UNL     1       2.911   4.395  19.374  0.00  0.00    +0.000 A 
ATOM      9  C   UNL     1       4.204   4.910  19.563  0.00  0.00    +0.000 A 
ATOM     10  C   UNL     1       5.154   4.891  18.534  0.00  0.00    +0.000 A 
ATOM     11  C   UNL     1       4.827   4.346  17.288  0.00  0.00    +0.000 A 
ATOM     12  C   UNL     1       3.571   3.741  17.118  0.00  0.00    +0.000 A 
ATOM     13  C   UNL     1       2.624   3.763  18.154  0.00  0.00    +0.000 A 
BRANCH  11  14
ATOM     14  N   UNL     1       5.726   4.449  16.185  0.00  0.00    +0.000 N 
ATOM     15  C   UNL     1       7.002   4.982  16.172  0.00  0.00    +0.000 A 
ATOM     16  C   UNL     1       7.435   4.980  14.867  0.00  0.00    +0.000 A 
ATOM     17  C   UNL     1       6.381   4.396  14.151  0.00  0.00    +0.000 A 
ATOM     18  N   UNL     1       5.356   4.058  14.935  0.00  0.00    +0.000 NA
ENDBRANCH  11  14
ENDBRANCH   6   8
ENDBRANCH   4   6
ENDBRANCH   1   2
BRANCH   1  19
ATOM     19  O   UNL     1       2.131   8.391  22.100  0.00  0.00    +0.000 OA
ATOM     20  H   UNL     1       2.238   9.296  22.451  0.00  0.00    +0.000 HD
ENDBRANCH   1  19
BRANCH   1  21
ATOM     21  C   UNL     1       0.127   9.008  20.812  0.00  0.00    +0.000 C 
BRANCH  21  28
ATOM     22  C   UNL     1      -1.425  12.596  21.048  0.00  0.00    +0.000 C 
ATOM     23  C   UNL     1      -2.756  12.607  20.243  0.00  0.00    +0.000 C 
ATOM     24  C   UNL     1      -2.458  11.882  18.953  0.00  0.00    +0.000 C 
ATOM     25  C   UNL     1      -1.255  12.191  18.109  0.00  0.00    +0.000 C 
ATOM     26  C   UNL     1      -1.182  11.118  19.168  0.00  0.00    +0.000 C 
ATOM     27  N   UNL     1      -0.705  11.387  20.511  0.00  0.00    +0.000 N 
ATOM     28  C   UNL     1      -0.091  10.459  21.369  0.00  0.00    +0.000 C 
ATOM     29  O   UNL     1       0.225  10.766  22.518  0.00  0.00    +0.000 OA
BRANCH  22  34
ATOM     30  C   UNL     1      -1.573  17.530  18.870  0.00  0.00    +0.000 C 
ATOM     31  N   UNL     1      -0.488  17.257  19.781  0.00  0.00    +0.000 N 
ATOM     32  C   UNL     1      -0.282  15.998  20.239  0.00  0.00    +0.000 A 
ATOM     33  N   UNL     1      -1.164  15.024  20.312  0.00  0.00    +0.000 NA
ATOM     34  C   UNL     1      -0.592  13.858  20.850  0.00  0.00    +0.000 A 
ATOM     35  C   UNL     1       0.743  14.002  21.175  0.00  0.00    +0.000 A 
ATOM     36  S   UNL     1       1.291  15.576  20.806  0.00  0.00    +0.000 S 
ATOM     37  H   UNL     1       0.349  17.804  19.614  0.00  0.00    +0.000 HD
ENDBRANCH  22  34
ENDBRANCH  21  28
BRANCH  21  38
ATOM     38  O   UNL     1      -0.642   8.082  21.597  0.00  0.00    +0.000 OA
ATOM     39  H   UNL     1      -1.084   7.483  20.968  0.00  0.00    +0.000 HD
ENDBRANCH  21  38
ENDBRANCH   1  21
TORSDOF 9
ENDMDL
MODEL 6
REMARK VINA RESULT:      -7.3      2.849      9.075
REMARK  Name = 
REMARK  11 active torsions:
REMARK  status: ('A' for Active; 'I' for Inactive)
REMARK    1  A    between atoms: C_1  and  N_2
REMARK    2  A    between atoms: C_5  and  C_6
REMARK    3  A    between atoms: C_12  and  C_14
REMARK    4  A    between atoms: C_14  and  O_15
REMARK    5  A    between atoms: C_14  and  C_16
REMARK    6  A    between atoms: C_16  and  O_17
REMARK    7  A    between atoms: C_16  and  C_18
REMARK    8  A    between atoms: N_20  and  C_21
REMARK    9  A    between atoms: C_21  and  C_22
REMARK   10  A    between atoms: C_21  and  C_23
REMARK   11  A    between atoms: C_26  and  N_27
REMARK                            x       y       z     vdW  Elec       q    Type
REMARK                         _______ _______ _______ _____ _____    ______ ____
ROOT
ATOM      1  C   UNL     1       1.224   9.046  22.412  0.00  0.00    +0.000 C 
ENDROOT
BRANCH   1   2
ATOM      2  C   UNL     1       0.605  10.413  21.980  0.00  0.00    +0.000 C 
ATOM      3  O   UNL     1      -0.297  10.951  22.620  0.00  0.00    +0.000 OA
ATOM      4  N   UNL     1       1.022  10.913  20.757  0.00  0.00    +0.000 N 
ATOM      5  H   UNL     1       1.766  10.445  20.256  0.00  0.00    +0.000 HD
BRANCH   4   6
ATOM      6  C   UNL     1       0.413  12.098  20.150  0.00  0.00    +0.000 C 
ATOM      7  C   UNL     1      -0.428  11.738  18.915  0.00  0.00    +0.000 C 
BRANCH   6   8
ATOM      8  C   UNL     1       1.424  13.178  19.778  0.00  0.00    +0.000 A 
ATOM      9  C   UNL     1       2.064  13.117  18.529  0.00  0.00    +0.000 A 
ATOM     10  C   UNL     1       3.161  13.936  18.233  0.00  0.00    +0.000 A 
ATOM     11  C   UNL     1       3.640  14.841  19.186  0.00  0.00    +0.000 A 
ATOM     12  C   UNL     1       2.948  14.979  20.400  0.00  0.00    +0.000 A 
ATOM     13  C   UNL     1       1.848  14.156  20.691  0.00  0.00    +0.000 A 
BRANCH  11  14
ATOM     14  N   UNL     1       4.842  15.576  18.960  0.00  0.00    +0.000 N 
ATOM     15  C   UNL     1       6.120  15.083  18.778  0.00  0.00    +0.000 A 
ATOM     16  C   UNL     1       6.972  16.160  18.723  0.00  0.00    +0.000 A 
ATOM     17  C   UNL     1       6.132  17.275  18.842  0.00  0.00    +0.000 A 
ATOM     18  N   UNL     1       4.848  16.936  18.968  0.00  0.00    +0.000 NA
ENDBRANCH  11  14
ENDBRANCH   6   8
ENDBRANCH   4   6
ENDBRANCH   1   2
BRANCH   1  19
ATOM     19  O   UNL     1       2.654   9.195  22.319  0.00  0.00    +0.000 OA
ATOM     20  H   UNL     1       2.939   8.643  21.564  0.00  0.00    +0.000 HD
ENDBRANCH   1  19
BRANCH   1  21
ATOM     21  C   UNL     1       0.740   7.873  21.515  0.00  0.00    +0.000 C 
BRANCH  21  28
ATOM     22  C   UNL     1       2.321   5.787  18.601  0.00  0.00    +0.000 C 
ATOM     23  C   UNL     1       1.474   4.497  18.407  0.00  0.00    +0.000 C 
ATOM     24  C   UNL     1       1.210   3.971  19.798  0.00  0.00    +0.000 C 
ATOM     25  C   UNL     1       2.295   3.817  20.825  0.00  0.00    +0.000 C 
ATOM     26  C   UNL     1       1.498   5.096  20.751  0.00  0.00    +0.000 C 
ATOM     27  N   UNL     1       1.946   6.244  19.986  0.00  0.00    +0.000 N 
ATOM     28  C   UNL     1       1.632   7.588  20.254  0.00  0.00    +0.000 C 
ATOM     29  O   UNL     1       2.009   8.491  19.509  0.00  0.00    +0.000 OA
BRANCH  22  34
ATOM     30  C   UNL     1       6.122   3.803  15.325  0.00  0.00    +0.000 C 
ATOM     31  N   UNL     1       6.579   4.581  16.451  0.00  0.00    +0.000 N 
ATOM     32  C   UNL     1       5.706   4.972  17.411  0.00  0.00    +0.000 A 
ATOM     33  N   UNL     1       4.402   5.108  17.291  0.00  0.00    +0.000 NA
ATOM     34  C   UNL     1       3.822   5.541  18.496  0.00  0.00    +0.000 A 
ATOM     35  C   UNL     1       4.742   5.723  19.512  0.00  0.00    +0.000 A 
ATOM     36  S   UNL     1       6.318   5.349  18.978  0.00  0.00    +0.000 S 
ATOM     37  H   UNL     1       7.509   4.342  16.778  0.00  0.00    +0.000 HD
ENDBRANCH  22  34
ENDBRANCH  21  28
BRANCH  21  38
ATOM     38  O   UNL     1      -0.608   8.129  21.089  0.00  0.00    +0.000 OA
ATOM     39  H   UNL     1      -0.671   9.087  20.924  0.00  0.00    +0.000 HD
ENDBRANCH  21  38
ENDBRANCH   1  21
TORSDOF 9
ENDMDL
MODEL 7
REMARK VINA RESULT:      -7.2      3.861      6.507
REMARK  Name = 
REMARK  11 active torsions:
REMARK  status: ('A' for Active; 'I' for Inactive)
REMARK    1  A    between atoms: C_1  and  N_2
REMARK    2  A    between atoms: C_5  and  C_6
REMARK    3  A    between atoms: C_12  and  C_14
REMARK    4  A    between atoms: C_14  and  O_15
REMARK    5  A    between atoms: C_14  and  C_16
REMARK    6  A    between atoms: C_16  and  O_17
REMARK    7  A    between atoms: C_16  and  C_18
REMARK    8  A    between atoms: N_20  and  C_21
REMARK    9  A    between atoms: C_21  and  C_22
REMARK   10  A    between atoms: C_21  and  C_23
REMARK   11  A    between atoms: C_26  and  N_27
REMARK                            x       y       z     vdW  Elec       q    Type
REMARK                         _______ _______ _______ _____ _____    ______ ____
ROOT
ATOM      1  C   UNL     1      -0.395  12.172  22.157  0.00  0.00    +0.000 C 
ENDROOT
BRANCH   1   2
ATOM      2  C   UNL     1       0.399  11.660  20.913  0.00  0.00    +0.000 C 
ATOM      3  O   UNL     1       1.529  12.067  20.648  0.00  0.00    +0.000 OA
ATOM      4  N   UNL     1      -0.296  10.836  20.042  0.00  0.00    +0.000 N 
ATOM      5  H   UNL     1      -1.224  10.520  20.291  0.00  0.00    +0.000 HD
BRANCH   4   6
ATOM      6  C   UNL     1       0.263  10.409  18.758  0.00  0.00    +0.000 C 
ATOM      7  C   UNL     1      -0.837  10.010  17.762  0.00  0.00    +0.000 C 
BRANCH   6   8
ATOM      8  C   UNL     1       1.272   9.272  18.882  0.00  0.00    +0.000 A 
ATOM      9  C   UNL     1       2.080   8.950  17.780  0.00  0.00    +0.000 A 
ATOM     10  C   UNL     1       2.847   7.777  17.758  0.00  0.00    +0.000 A 
ATOM     11  C   UNL     1       2.823   6.902  18.848  0.00  0.00    +0.000 A 
ATOM     12  C   UNL     1       2.095   7.263  19.994  0.00  0.00    +0.000 A 
ATOM     13  C   UNL     1       1.329   8.440  20.010  0.00  0.00    +0.000 A 
BRANCH  11  14
ATOM     14  N   UNL     1       3.478   5.636  18.787  0.00  0.00    +0.000 N 
ATOM     15  C   UNL     1       4.168   5.084  17.724  0.00  0.00    +0.000 A 
ATOM     16  C   UNL     1       4.516   3.803  18.080  0.00  0.00    +0.000 A 
ATOM     17  C   UNL     1       4.035   3.663  19.388  0.00  0.00    +0.000 A 
ATOM     18  N   UNL     1       3.425   4.764  19.830  0.00  0.00    +0.000 NA
ENDBRANCH  11  14
ENDBRANCH   6   8
ENDBRANCH   4   6
ENDBRANCH   1   2
BRANCH   1  19
ATOM     19  O   UNL     1      -1.590  11.372  22.240  0.00  0.00    +0.000 OA
ATOM     20  H   UNL     1      -2.082  11.693  23.021  0.00  0.00    +0.000 HD
ENDBRANCH   1  19
BRANCH   1  21
ATOM     21  C   UNL     1      -0.757  13.679  22.041  0.00  0.00    +0.000 C 
BRANCH  21  28
ATOM     22  C   UNL     1      -4.298  15.252  22.618  0.00  0.00    +0.000 C 
ATOM     23  C   UNL     1      -4.147  16.447  23.604  0.00  0.00    +0.000 C 
ATOM     24  C   UNL     1      -3.234  15.956  24.702  0.00  0.00    +0.000 C 
ATOM     25  C   UNL     1      -3.436  14.639  25.395  0.00  0.00    +0.000 C 
ATOM     26  C   UNL     1      -2.547  14.727  24.179  0.00  0.00    +0.000 C 
ATOM     27  N   UNL     1      -3.037  14.459  22.841  0.00  0.00    +0.000 N 
ATOM     28  C   UNL     1      -2.272  13.980  21.763  0.00  0.00    +0.000 C 
ATOM     29  O   UNL     1      -2.766  13.842  20.644  0.00  0.00    +0.000 OA
BRANCH  22  34
ATOM     30  C   UNL     1      -7.164  11.115  20.674  0.00  0.00    +0.000 C 
ATOM     31  N   UNL     1      -7.456  11.527  22.026  0.00  0.00    +0.000 N 
ATOM     32  C   UNL     1      -6.904  12.657  22.530  0.00  0.00    +0.000 A 
ATOM     33  N   UNL     1      -5.803  13.253  22.123  0.00  0.00    +0.000 NA
ATOM     34  C   UNL     1      -5.532  14.401  22.890  0.00  0.00    +0.000 A 
ATOM     35  C   UNL     1      -6.470  14.632  23.879  0.00  0.00    +0.000 A 
ATOM     36  S   UNL     1      -7.687  13.437  23.853  0.00  0.00    +0.000 S 
ATOM     37  H   UNL     1      -8.402  11.329  22.331  0.00  0.00    +0.000 HD
ENDBRANCH  22  34
ENDBRANCH  21  28
BRANCH  21  38
ATOM     38  O   UNL     1       0.039  14.279  21.007  0.00  0.00    +0.000 OA
ATOM     39  H   UNL     1       0.823  14.659  21.444  0.00  0.00    +0.000 HD
ENDBRANCH  21  38
ENDBRANCH   1  21
TORSDOF 9
ENDMDL
MODEL 8
REMARK VINA RESULT:      -7.2      3.448      5.611
REMARK  Name = 
REMARK  11 active torsions:
REMARK  status: ('A' for Active; 'I' for Inactive)
REMARK    1  A    between atoms: C_1  and  N_2
REMARK    2  A    between atoms: C_5  and  C_6
REMARK    3  A    between atoms: C_12  and  C_14
REMARK    4  A    between atoms: C_14  and  O_15
REMARK    5  A    between atoms: C_14  and  C_16
REMARK    6  A    between atoms: C_16  and  O_17
REMARK    7  A    between atoms: C_16  and  C_18
REMARK    8  A    between atoms: N_20  and  C_21
REMARK    9  A    between atoms: C_21  and  C_22
REMARK   10  A    between atoms: C_21  and  C_23
REMARK   11  A    between atoms: C_26  and  N_27
REMARK                            x       y       z     vdW  Elec       q    Type
REMARK                         _______ _______ _______ _____ _____    ______ ____
ROOT
ATOM      1  C   UNL     1       0.879  11.774  18.409  0.00  0.00    +0.000 C 
ENDROOT
BRANCH   1   2
ATOM      2  C   UNL     1       0.399  10.447  19.077  0.00  0.00    +0.000 C 
ATOM      3  O   UNL     1      -0.738  10.008  18.912  0.00  0.00    +0.000 OA
ATOM      4  N   UNL     1       1.273   9.870  19.985  0.00  0.00    +0.000 N 
ATOM      5  H   UNL     1       2.200  10.257  20.096  0.00  0.00    +0.000 HD
BRANCH   4   6
ATOM      6  C   UNL     1       0.897   8.716  20.805  0.00  0.00    +0.000 C 
ATOM      7  C   UNL     1       1.119   8.985  22.301  0.00  0.00    +0.000 C 
BRANCH   6   8
ATOM      8  C   UNL     1       1.613   7.429  20.408  0.00  0.00    +0.000 A 
ATOM      9  C   UNL     1       2.319   7.385  19.195  0.00  0.00    +0.000 A 
ATOM     10  C   UNL     1       2.791   6.174  18.672  0.00  0.00    +0.000 A 
ATOM     11  C   UNL     1       2.567   4.977  19.359  0.00  0.00    +0.000 A 
ATOM     12  C   UNL     1       1.947   5.022  20.619  0.00  0.00    +0.000 A 
ATOM     13  C   UNL     1       1.477   6.239  21.138  0.00  0.00    +0.000 A 
BRANCH  11  14
ATOM     14  N   UNL     1       2.907   3.720  18.775  0.00  0.00    +0.000 N 
ATOM     15  C   UNL     1       3.046   2.498  19.404  0.00  0.00    +0.000 A 
ATOM     16  C   UNL     1       3.505   1.602  18.467  0.00  0.00    +0.000 A 
ATOM     17  C   UNL     1       3.584   2.348  17.284  0.00  0.00    +0.000 A 
ATOM     18  N   UNL     1       3.212   3.618  17.453  0.00  0.00    +0.000 NA
ENDBRANCH  11  14
ENDBRANCH   6   8
ENDBRANCH   4   6
ENDBRANCH   1   2
BRANCH   1  19
ATOM     19  O   UNL     1       2.232  11.547  17.968  0.00  0.00    +0.000 OA
ATOM     20  H   UNL     1       2.387  10.585  18.040  0.00  0.00    +0.000 HD
ENDBRANCH   1  19
BRANCH   1  21
ATOM     21  C   UNL     1       0.823  12.979  19.389  0.00  0.00    +0.000 C 
BRANCH  21  28
ATOM     22  C   UNL     1      -2.338  14.024  21.453  0.00  0.00    +0.000 C 
ATOM     23  C   UNL     1      -1.942  14.088  22.956  0.00  0.00    +0.000 C 
ATOM     24  C   UNL     1      -1.117  12.851  23.213  0.00  0.00    +0.000 C 
ATOM     25  C   UNL     1      -1.552  11.481  22.775  0.00  0.00    +0.000 C 
ATOM     26  C   UNL     1      -0.689  12.327  21.872  0.00  0.00    +0.000 C 
ATOM     27  N   UNL     1      -1.249  13.182  20.843  0.00  0.00    +0.000 N 
ATOM     28  C   UNL     1      -0.613  13.560  19.648  0.00  0.00    +0.000 C 
ATOM     29  O   UNL     1      -1.146  14.343  18.863  0.00  0.00    +0.000 OA
BRANCH  22  34
ATOM     30  C   UNL     1      -6.905  12.642  23.972  0.00  0.00    +0.000 C 
ATOM     31  N   UNL     1      -6.937  12.646  22.529  0.00  0.00    +0.000 N 
ATOM     32  C   UNL     1      -5.794  12.817  21.821  0.00  0.00    +0.000 A 
ATOM     33  N   UNL     1      -4.683  13.392  22.232  0.00  0.00    +0.000 NA
ATOM     34  C   UNL     1      -3.707  13.396  21.220  0.00  0.00    +0.000 A 
ATOM     35  C   UNL     1      -4.134  12.806  20.045  0.00  0.00    +0.000 A 
ATOM     36  S   UNL     1      -5.737  12.239  20.198  0.00  0.00    +0.000 S 
ATOM     37  H   UNL     1      -7.612  12.009  22.122  0.00  0.00    +0.000 HD
ENDBRANCH  22  34
ENDBRANCH  21  28
BRANCH  21  38
ATOM     38  O   UNL     1       1.673  14.028  18.899  0.00  0.00    +0.000 OA
ATOM     39  H   UNL     1       1.245  14.384  18.100  0.00  0.00    +0.000 HD
ENDBRANCH  21  38
ENDBRANCH   1  21
TORSDOF 9
ENDMDL
MODEL 9
REMARK VINA RESULT:      -7.2      1.647      2.215
REMARK  Name = 
REMARK  11 active torsions:
REMARK  status: ('A' for Active; 'I' for Inactive)
REMARK    1  A    between atoms: C_1  and  N_2
REMARK    2  A    between atoms: C_5  and  C_6
REMARK    3  A    between atoms: C_12  and  C_14
REMARK    4  A    between atoms: C_14  and  O_15
REMARK    5  A    between atoms: C_14  and  C_16
REMARK    6  A    between atoms: C_16  and  O_17
REMARK    7  A    between atoms: C_16  and  C_18
REMARK    8  A    between atoms: N_20  and  C_21
REMARK    9  A    between atoms: C_21  and  C_22
REMARK   10  A    between atoms: C_21  and  C_23
REMARK   11  A    between atoms: C_26  and  N_27
REMARK                            x       y       z     vdW  Elec       q    Type
REMARK                         _______ _______ _______ _____ _____    ______ ____
ROOT
ATOM      1  C   UNL     1       1.207   9.302  21.884  0.00  0.00    +0.000 C 
ENDROOT
BRANCH   1   2
ATOM      2  C   UNL     1       0.899   7.963  21.144  0.00  0.00    +0.000 C 
ATOM      3  O   UNL     1      -0.240   7.503  21.076  0.00  0.00    +0.000 OA
ATOM      4  N   UNL     1       1.997   7.245  20.697  0.00  0.00    +0.000 N 
ATOM      5  H   UNL     1       2.920   7.652  20.769  0.00  0.00    +0.000 HD
BRANCH   4   6
ATOM      6  C   UNL     1       1.872   5.900  20.129  0.00  0.00    +0.000 C 
ATOM      7  C   UNL     1       2.262   4.815  21.145  0.00  0.00    +0.000 C 
BRANCH   6   8
ATOM      8  C   UNL     1       2.673   5.706  18.846  0.00  0.00    +0.000 A 
ATOM      9  C   UNL     1       2.824   4.412  18.322  0.00  0.00    +0.000 A 
ATOM     10  C   UNL     1       3.735   4.146  17.291  0.00  0.00    +0.000 A 
ATOM     11  C   UNL     1       4.515   5.178  16.760  0.00  0.00    +0.000 A 
ATOM     12  C   UNL     1       4.303   6.492  17.209  0.00  0.00    +0.000 A 
ATOM     13  C   UNL     1       3.387   6.752  18.242  0.00  0.00    +0.000 A 
BRANCH  11  14
ATOM     14  N   UNL     1       5.550   4.904  15.816  0.00  0.00    +0.000 N 
ATOM     15  C   UNL     1       6.862   5.337  15.841  0.00  0.00    +0.000 A 
ATOM     16  C   UNL     1       7.452   4.931  14.667  0.00  0.00    +0.000 A 
ATOM     17  C   UNL     1       6.444   4.225  13.998  0.00  0.00    +0.000 A 
ATOM     18  N   UNL     1       5.302   4.187  14.686  0.00  0.00    +0.000 NA
ENDBRANCH  11  14
ENDBRANCH   6   8
ENDBRANCH   4   6
ENDBRANCH   1   2
BRANCH   1  19
ATOM     19  O   UNL     1       2.186   8.997  22.897  0.00  0.00    +0.000 OA
ATOM     20  H   UNL     1       1.928   9.503  23.691  0.00  0.00    +0.000 HD
ENDBRANCH   1  19
BRANCH   1  21
ATOM     21  C   UNL     1      -0.064   9.923  22.528  0.00  0.00    +0.000 C 
BRANCH  21  28
ATOM     22  C   UNL     1      -0.396  13.319  20.605  0.00  0.00    +0.000 C 
ATOM     23  C   UNL     1      -0.798  13.011  19.134  0.00  0.00    +0.000 C 
ATOM     24  C   UNL     1       0.080  11.860  18.704  0.00  0.00    +0.000 C 
ATOM     25  C   UNL     1       1.566  11.848  18.925  0.00  0.00    +0.000 C 
ATOM     26  C   UNL     1       0.642  11.250  19.957  0.00  0.00    +0.000 C 
ATOM     27  N   UNL     1       0.158  12.007  21.095  0.00  0.00    +0.000 N 
ATOM     28  C   UNL     1      -0.215  11.474  22.341  0.00  0.00    +0.000 C 
ATOM     29  O   UNL     1      -0.674  12.192  23.229  0.00  0.00    +0.000 OA
BRANCH  22  34
ATOM     30  C   UNL     1       3.133  16.210  17.724  0.00  0.00    +0.000 C 
ATOM     31  N   UNL     1       2.836  16.688  19.052  0.00  0.00    +0.000 N 
ATOM     32  C   UNL     1       2.094  15.935  19.899  0.00  0.00    +0.000 A 
ATOM     33  N   UNL     1       1.238  14.988  19.578  0.00  0.00    +0.000 NA
ATOM     34  C   UNL     1       0.645  14.427  20.723  0.00  0.00    +0.000 A 
ATOM     35  C   UNL     1       1.090  14.993  21.903  0.00  0.00    +0.000 A 
ATOM     36  S   UNL     1       2.246  16.209  21.595  0.00  0.00    +0.000 S 
ATOM     37  H   UNL     1       3.581  17.225  19.483  0.00  0.00    +0.000 HD
ENDBRANCH  22  34
ENDBRANCH  21  28
BRANCH  21  38
ATOM     38  O   UNL     1      -0.082   9.615  23.931  0.00  0.00    +0.000 OA
ATOM     39  H   UNL     1       0.583   8.916  24.072  0.00  0.00    +0.000 HD
ENDBRANCH  21  38
ENDBRANCH   1  21
TORSDOF 9
ENDMDL
