MODEL 1
REMARK VINA RESULT:      -7.3      0.000      0.000
REMARK  Name = 
REMARK  13 active torsions:
REMARK  status: ('A' for Active; 'I' for Inactive)
REMARK    1  A    between atoms: C_1  and  C_2
REMARK    2  A    between atoms: C_2  and  O_3
REMARK    3  A    between atoms: O_3  and  C_4
REMARK    4  A    between atoms: N_6  and  C_7
REMARK    5  A    between atoms: C_7  and  C_8
REMARK    6  A    between atoms: C_8  and  N_9
REMARK    7  A    between atoms: N_9  and  C_10
REMARK    8  A    between atoms: C_10  and  C_11
REMARK    9  A    between atoms: C_10  and  C_15
REMARK   10  A    between atoms: C_11  and  C_12
REMARK   11  A    between atoms: C_12  and  C_13
REMARK   12  A    between atoms: C_12  and  C_14
REMARK   13  A    between atoms: C_15  and  C_16
REMARK                            x       y       z     vdW  Elec       q    Type
REMARK                         _______ _______ _______ _____ _____    ______ ____
ROOT
ATOM      1  C   UNL     1       4.533   5.624  17.990  0.00  0.00    +0.000 C 
ENDROOT
BRANCH   1   2
ATOM      2  C   UNL     1       3.102   5.579  18.646  0.00  0.00    +0.000 C 
ATOM      3  C   UNL     1       2.108   4.580  17.896  0.00  0.00    +0.000 C 
ATOM      4  C   UNL     1       1.580   4.155  19.277  0.00  0.00    +0.000 C 
ATOM      5  C   UNL     1       2.949   4.551  19.839  0.00  0.00    +0.000 C 
BRANCH   2   6
ATOM      6  C   UNL     1       2.460   7.069  18.911  0.00  0.00    +0.000 A 
ATOM      7  C   UNL     1       2.213   7.978  17.858  0.00  0.00    +0.000 A 
ATOM      8  C   UNL     1       1.532   9.186  18.053  0.00  0.00    +0.000 A 
ATOM      9  C   UNL     1       1.081   9.536  19.322  0.00  0.00    +0.000 A 
ATOM     10 CL   UNL     1       0.187  11.005  19.487  0.00  0.00    +0.000 Cl
ATOM     11  C   UNL     1       1.347   8.691  20.399  0.00  0.00    +0.000 A 
ATOM     12 CL   UNL     1       0.835   9.052  22.010  0.00  0.00    +0.000 Cl
ATOM     13  C   UNL     1       2.031   7.486  20.189  0.00  0.00    +0.000 A 
ENDBRANCH   2   6
ENDBRANCH   1   2
BRANCH   1  14
ATOM     14  N   UNL     1       5.553   5.756  19.073  0.00  0.00    +0.000 NA
ATOM     15  H   UNL     1       5.883   6.724  19.084  0.00  0.00    +0.000 HD
BRANCH  14  16
ATOM     16  C   UNL     1       6.732   4.887  18.936  0.00  0.00    +0.000 C 
BRANCH  16  17
ATOM     17  C   UNL     1       8.051   5.667  19.143  0.00  0.00    +0.000 C 
BRANCH  17  20
ATOM     18  C   UNL     1       7.774   7.528  17.566  0.00  0.00    +0.000 C 
ATOM     19  O   UNL     1       7.620   6.809  16.591  0.00  0.00    +0.000 OA
ATOM     20  N   UNL     1       7.909   7.080  18.845  0.00  0.00    +0.000 N 
ATOM     21  H   UNL     1       8.161   7.778  19.532  0.00  0.00    +0.000 HD
BRANCH  18  22
ATOM     22  O   UNL     1       7.915   8.877  17.541  0.00  0.00    +0.000 OA
BRANCH  22  24
ATOM     23  C   UNL     1       9.131  10.824  18.238  0.00  0.00    +0.000 C 
ATOM     24  C   UNL     1       8.697   9.421  18.617  0.00  0.00    +0.000 C 
ENDBRANCH  22  24
ENDBRANCH  18  22
ENDBRANCH  17  20
ENDBRANCH  16  17
ENDBRANCH  14  16
ENDBRANCH   1  14
BRANCH   1  25
ATOM     25  C   UNL     1       4.831   4.393  17.090  0.00  0.00    +0.000 C 
BRANCH  25  26
ATOM     26  C   UNL     1       4.997   4.566  15.559  0.00  0.00    +0.000 C 
ATOM     27  C   UNL     1       5.078   6.024  15.091  0.00  0.00    +0.000 C 
ATOM     28  C   UNL     1       6.282   3.850  15.122  0.00  0.00    +0.000 C 
ENDBRANCH  25  26
ENDBRANCH   1  25
TORSDOF 10
ENDMDL
MODEL 2
REMARK VINA RESULT:      -7.3      3.054      5.574
REMARK  Name = 
REMARK  13 active torsions:
REMARK  status: ('A' for Active; 'I' for Inactive)
REMARK    1  A    between atoms: C_1  and  C_2
REMARK    2  A    between atoms: C_2  and  O_3
REMARK    3  A    between atoms: O_3  and  C_4
REMARK    4  A    between atoms: N_6  and  C_7
REMARK    5  A    between atoms: C_7  and  C_8
REMARK    6  A    between atoms: C_8  and  N_9
REMARK    7  A    between atoms: N_9  and  C_10
REMARK    8  A    between atoms: C_10  and  C_11
REMARK    9  A    between atoms: C_10  and  C_15
REMARK   10  A    between atoms: C_11  and  C_12
REMARK   11  A    between atoms: C_12  and  C_13
REMARK   12  A    between atoms: C_12  and  C_14
REMARK   13  A    between atoms: C_15  and  C_16
REMARK                            x       y       z     vdW  Elec       q    Type
REMARK                         _______ _______ _______ _____ _____    ______ ____
ROOT
ATOM      1  C   UNL     1       5.464   4.332  16.348  0.00  0.00    +0.000 C 
ENDROOT
BRANCH   1   2
ATOM      2  C   UNL     1       5.789   5.509  17.342  0.00  0.00    +0.000 C 
ATOM      3  C   UNL     1       6.988   5.166  18.338  0.00  0.00    +0.000 C 
ATOM      4  C   UNL     1       7.481   6.612  18.155  0.00  0.00    +0.000 C 
ATOM      5  C   UNL     1       6.799   6.591  16.784  0.00  0.00    +0.000 C 
BRANCH   2   6
ATOM      6  C   UNL     1       4.457   6.108  18.098  0.00  0.00    +0.000 A 
ATOM      7  C   UNL     1       4.005   5.600  19.336  0.00  0.00    +0.000 A 
ATOM      8  C   UNL     1       2.965   6.198  20.059  0.00  0.00    +0.000 A 
ATOM      9  C   UNL     1       2.327   7.329  19.558  0.00  0.00    +0.000 A 
ATOM     10 CL   UNL     1       1.099   8.061  20.526  0.00  0.00    +0.000 Cl
ATOM     11  C   UNL     1       2.708   7.834  18.315  0.00  0.00    +0.000 A 
ATOM     12 CL   UNL     1       1.963   9.226  17.611  0.00  0.00    +0.000 Cl
ATOM     13  C   UNL     1       3.750   7.224  17.602  0.00  0.00    +0.000 A 
ENDBRANCH   2   6
ENDBRANCH   1   2
BRANCH   1  14
ATOM     14  N   UNL     1       4.120   3.775  16.686  0.00  0.00    +0.000 NA
ATOM     15  H   UNL     1       3.605   4.481  17.215  0.00  0.00    +0.000 HD
BRANCH  14  16
ATOM     16  C   UNL     1       4.134   2.541  17.487  0.00  0.00    +0.000 C 
BRANCH  16  17
ATOM     17  C   UNL     1       2.792   1.776  17.390  0.00  0.00    +0.000 C 
BRANCH  17  20
ATOM     18  C   UNL     1       1.195   3.107  18.696  0.00  0.00    +0.000 C 
ATOM     19  O   UNL     1       1.033   3.949  17.825  0.00  0.00    +0.000 OA
ATOM     20  N   UNL     1       1.954   1.986  18.556  0.00  0.00    +0.000 N 
ATOM     21  H   UNL     1       2.103   1.447  19.399  0.00  0.00    +0.000 HD
BRANCH  18  22
ATOM     22  O   UNL     1       0.715   3.175  19.962  0.00  0.00    +0.000 OA
BRANCH  22  24
ATOM     23  C   UNL     1       1.264   2.354  22.149  0.00  0.00    +0.000 C 
ATOM     24  C   UNL     1       1.723   3.213  20.986  0.00  0.00    +0.000 C 
ENDBRANCH  22  24
ENDBRANCH  18  22
ENDBRANCH  17  20
ENDBRANCH  16  17
ENDBRANCH  14  16
ENDBRANCH   1  14
BRANCH   1  25
ATOM     25  C   UNL     1       5.534   4.755  14.855  0.00  0.00    +0.000 C 
BRANCH  25  26
ATOM     26  C   UNL     1       6.528   4.060  13.890  0.00  0.00    +0.000 C 
ATOM     27  C   UNL     1       5.877   3.449  12.644  0.00  0.00    +0.000 C 
ATOM     28  C   UNL     1       7.567   5.092  13.431  0.00  0.00    +0.000 C 
ENDBRANCH  25  26
ENDBRANCH   1  25
TORSDOF 10
ENDMDL
MODEL 3
REMARK VINA RESULT:      -7.2      3.156      5.273
REMARK  Name = 
REMARK  13 active torsions:
REMARK  status: ('A' for Active; 'I' for Inactive)
REMARK    1  A    between atoms: C_1  and  C_2
REMARK    2  A    between atoms: C_2  and  O_3
REMARK    3  A    between atoms: O_3  and  C_4
REMARK    4  A    between atoms: N_6  and  C_7
REMARK    5  A    between atoms: C_7  and  C_8
REMARK    6  A    between atoms: C_8  and  N_9
REMARK    7  A    between atoms: N_9  and  C_10
REMARK    8  A    between atoms: C_10  and  C_11
REMARK    9  A    between atoms: C_10  and  C_15
REMARK   10  A    between atoms: C_11  and  C_12
REMARK   11  A    between atoms: C_12  and  C_13
REMARK   12  A    between atoms: C_12  and  C_14
REMARK   13  A    between atoms: C_15  and  C_16
REMARK                            x       y       z     vdW  Elec       q    Type
REMARK                         _______ _______ _______ _____ _____    ______ ____
ROOT
ATOM      1  C   UNL     1       5.005   4.504  17.472  0.00  0.00    +0.000 C 
ENDROOT
BRANCH   1   2
ATOM      2  C   UNL     1       3.576   4.155  18.036  0.00  0.00    +0.000 C 
ATOM      3  C   UNL     1       2.667   3.378  16.979  0.00  0.00    +0.000 C 
ATOM      4  C   UNL     1       2.161   2.503  18.140  0.00  0.00    +0.000 C 
ATOM      5  C   UNL     1       3.491   2.796  18.840  0.00  0.00    +0.000 C 
BRANCH   2   6
ATOM      6  C   UNL     1       2.821   5.438  18.734  0.00  0.00    +0.000 A 
ATOM      7  C   UNL     1       2.415   5.424  20.087  0.00  0.00    +0.000 A 
ATOM      8  C   UNL     1       1.908   6.560  20.731  0.00  0.00    +0.000 A 
ATOM      9  C   UNL     1       1.776   7.757  20.033  0.00  0.00    +0.000 A 
ATOM     10 CL   UNL     1       1.210   9.140  20.899  0.00  0.00    +0.000 Cl
ATOM     11  C   UNL     1       2.119   7.802  18.682  0.00  0.00    +0.000 A 
ATOM     12 CL   UNL     1       1.979   9.242  17.737  0.00  0.00    +0.000 Cl
ATOM     13  C   UNL     1       2.624   6.657  18.051  0.00  0.00    +0.000 A 
ENDBRANCH   2   6
ENDBRANCH   1   2
BRANCH   1  14
ATOM     14  N   UNL     1       4.939   4.529  15.980  0.00  0.00    +0.000 NA
ATOM     15  H   UNL     1       4.056   4.104  15.691  0.00  0.00    +0.000 HD
BRANCH  14  16
ATOM     16  C   UNL     1       6.024   3.813  15.291  0.00  0.00    +0.000 C 
BRANCH  16  17
ATOM     17  C   UNL     1       6.200   4.300  13.833  0.00  0.00    +0.000 C 
BRANCH  17  20
ATOM     18  C   UNL     1       5.816   2.864  11.879  0.00  0.00    +0.000 C 
ATOM     19  O   UNL     1       6.998   2.600  11.717  0.00  0.00    +0.000 OA
ATOM     20  N   UNL     1       5.323   3.604  12.910  0.00  0.00    +0.000 N 
ATOM     21  H   UNL     1       4.345   3.853  12.845  0.00  0.00    +0.000 HD
BRANCH  18  22
ATOM     22  O   UNL     1       4.808   2.537  11.033  0.00  0.00    +0.000 OA
BRANCH  22  24
ATOM     23  C   UNL     1       3.132   3.773   9.841  0.00  0.00    +0.000 C 
ATOM     24  C   UNL     1       3.606   3.304  11.204  0.00  0.00    +0.000 C 
ENDBRANCH  22  24
ENDBRANCH  18  22
ENDBRANCH  17  20
ENDBRANCH  16  17
ENDBRANCH  14  16
ENDBRANCH   1  14
BRANCH   1  25
ATOM     25  C   UNL     1       5.573   5.838  18.029  0.00  0.00    +0.000 C 
BRANCH  25  26
ATOM     26  C   UNL     1       7.041   5.920  18.519  0.00  0.00    +0.000 C 
ATOM     27  C   UNL     1       7.895   4.697  18.166  0.00  0.00    +0.000 C 
ATOM     28  C   UNL     1       7.697   7.159  17.897  0.00  0.00    +0.000 C 
ENDBRANCH  25  26
ENDBRANCH   1  25
TORSDOF 10
ENDMDL
MODEL 4
REMARK VINA RESULT:      -7.1      3.217      5.630
REMARK  Name = 
REMARK  13 active torsions:
REMARK  status: ('A' for Active; 'I' for Inactive)
REMARK    1  A    between atoms: C_1  and  C_2
REMARK    2  A    between atoms: C_2  and  O_3
REMARK    3  A    between atoms: O_3  and  C_4
REMARK    4  A    between atoms: N_6  and  C_7
REMARK    5  A    between atoms: C_7  and  C_8
REMARK    6  A    between atoms: C_8  and  N_9
REMARK    7  A    between atoms: N_9  and  C_10
REMARK    8  A    between atoms: C_10  and  C_11
REMARK    9  A    between atoms: C_10  and  C_15
REMARK   10  A    between atoms: C_11  and  C_12
REMARK   11  A    between atoms: C_12  and  C_13
REMARK   12  A    between atoms: C_12  and  C_14
REMARK   13  A    between atoms: C_15  and  C_16
REMARK                            x       y       z     vdW  Elec       q    Type
REMARK                         _______ _______ _______ _____ _____    ______ ____
ROOT
ATOM      1  C   UNL     1       4.381   4.173  16.923  0.00  0.00    +0.000 C 
ENDROOT
BRANCH   1   2
ATOM      2  C   UNL     1       4.962   5.209  17.956  0.00  0.00    +0.000 C 
ATOM      3  C   UNL     1       5.567   4.511  19.258  0.00  0.00    +0.000 C 
ATOM      4  C   UNL     1       6.711   5.540  19.211  0.00  0.00    +0.000 C 
ATOM      5  C   UNL     1       6.465   5.631  17.702  0.00  0.00    +0.000 C 
BRANCH   2   6
ATOM      6  C   UNL     1       3.928   6.444  18.292  0.00  0.00    +0.000 A 
ATOM      7  C   UNL     1       3.697   7.498  17.381  0.00  0.00    +0.000 A 
ATOM      8  C   UNL     1       2.712   8.471  17.593  0.00  0.00    +0.000 A 
ATOM      9  C   UNL     1       1.926   8.430  18.740  0.00  0.00    +0.000 A 
ATOM     10 CL   UNL     1       0.682   9.616  18.912  0.00  0.00    +0.000 Cl
ATOM     11  C   UNL     1       2.154   7.434  19.690  0.00  0.00    +0.000 A 
ATOM     12 CL   UNL     1       1.233   7.314  21.148  0.00  0.00    +0.000 Cl
ATOM     13  C   UNL     1       3.144   6.468  19.465  0.00  0.00    +0.000 A 
ENDBRANCH   2   6
ENDBRANCH   1   2
BRANCH   1  14
ATOM     14  N   UNL     1       5.441   3.847  15.922  0.00  0.00    +0.000 NA
ATOM     15  H   UNL     1       6.330   4.216  16.266  0.00  0.00    +0.000 HD
BRANCH  14  16
ATOM     16  C   UNL     1       5.223   4.395  14.574  0.00  0.00    +0.000 C 
BRANCH  16  17
ATOM     17  C   UNL     1       6.436   4.143  13.648  0.00  0.00    +0.000 C 
BRANCH  17  20
ATOM     18  C   UNL     1       5.364   2.917  11.811  0.00  0.00    +0.000 C 
ATOM     19  O   UNL     1       4.733   3.881  11.404  0.00  0.00    +0.000 OA
ATOM     20  N   UNL     1       6.267   2.957  12.829  0.00  0.00    +0.000 N 
ATOM     21  H   UNL     1       6.614   2.061  13.144  0.00  0.00    +0.000 HD
BRANCH  18  22
ATOM     22  O   UNL     1       5.223   1.639  11.379  0.00  0.00    +0.000 OA
BRANCH  22  24
ATOM     23  C   UNL     1       6.226  -0.540  11.330  0.00  0.00    +0.000 C 
ATOM     24  C   UNL     1       6.459   0.946  11.137  0.00  0.00    +0.000 C 
ENDBRANCH  22  24
ENDBRANCH  18  22
ENDBRANCH  17  20
ENDBRANCH  16  17
ENDBRANCH  14  16
ENDBRANCH   1  14
BRANCH   1  25
ATOM     25  C   UNL     1       3.830   2.884  17.593  0.00  0.00    +0.000 C 
BRANCH  25  26
ATOM     26  C   UNL     1       2.302   2.656  17.713  0.00  0.00    +0.000 C 
ATOM     27  C   UNL     1       1.857   2.032  19.041  0.00  0.00    +0.000 C 
ATOM     28  C   UNL     1       1.591   4.007  17.555  0.00  0.00    +0.000 C 
ENDBRANCH  25  26
ENDBRANCH   1  25
TORSDOF 10
ENDMDL
MODEL 5
REMARK VINA RESULT:      -7.1      2.480      4.543
REMARK  Name = 
REMARK  13 active torsions:
REMARK  status: ('A' for Active; 'I' for Inactive)
REMARK    1  A    between atoms: C_1  and  C_2
REMARK    2  A    between atoms: C_2  and  O_3
REMARK    3  A    between atoms: O_3  and  C_4
REMARK    4  A    between atoms: N_6  and  C_7
REMARK    5  A    between atoms: C_7  and  C_8
REMARK    6  A    between atoms: C_8  and  N_9
REMARK    7  A    between atoms: N_9  and  C_10
REMARK    8  A    between atoms: C_10  and  C_11
REMARK    9  A    between atoms: C_10  and  C_15
REMARK   10  A    between atoms: C_11  and  C_12
REMARK   11  A    between atoms: C_12  and  C_13
REMARK   12  A    between atoms: C_12  and  C_14
REMARK   13  A    between atoms: C_15  and  C_16
REMARK                            x       y       z     vdW  Elec       q    Type
REMARK                         _______ _______ _______ _____ _____    ______ ____
ROOT
ATOM      1  C   UNL     1       4.750   4.425  18.528  0.00  0.00    +0.000 C 
ENDROOT
BRANCH   1   2
ATOM      2  C   UNL     1       3.194   4.605  18.684  0.00  0.00    +0.000 C 
ATOM      3  C   UNL     1       2.364   3.790  17.590  0.00  0.00    +0.000 C 
ATOM      4  C   UNL     1       1.354   3.439  18.697  0.00  0.00    +0.000 C 
ATOM      5  C   UNL     1       2.505   3.600  19.693  0.00  0.00    +0.000 C 
BRANCH   2   6
ATOM      6  C   UNL     1       2.730   6.177  18.824  0.00  0.00    +0.000 A 
ATOM      7  C   UNL     1       2.662   7.042  17.710  0.00  0.00    +0.000 A 
ATOM      8  C   UNL     1       2.128   8.333  17.793  0.00  0.00    +0.000 A 
ATOM      9  C   UNL     1       1.651   8.815  19.009  0.00  0.00    +0.000 A 
ATOM     10 CL   UNL     1       0.942  10.389  19.034  0.00  0.00    +0.000 Cl
ATOM     11  C   UNL     1       1.745   8.012  20.145  0.00  0.00    +0.000 A 
ATOM     12 CL   UNL     1       1.188   8.532  21.697  0.00  0.00    +0.000 Cl
ATOM     13  C   UNL     1       2.283   6.721  20.047  0.00  0.00    +0.000 A 
ENDBRANCH   2   6
ENDBRANCH   1   2
BRANCH   1  14
ATOM     14  N   UNL     1       5.021   3.642  17.286  0.00  0.00    +0.000 NA
ATOM     15  H   UNL     1       5.869   3.090  17.434  0.00  0.00    +0.000 HD
BRANCH  14  16
ATOM     16  C   UNL     1       5.219   4.443  16.068  0.00  0.00    +0.000 C 
BRANCH  16  17
ATOM     17  C   UNL     1       6.388   3.905  15.209  0.00  0.00    +0.000 C 
BRANCH  17  20
ATOM     18  C   UNL     1       6.395   3.829  12.755  0.00  0.00    +0.000 C 
ATOM     19  O   UNL     1       7.307   4.633  12.634  0.00  0.00    +0.000 OA
ATOM     20  N   UNL     1       5.935   3.354  13.945  0.00  0.00    +0.000 N 
ATOM     21  H   UNL     1       5.092   2.797  13.900  0.00  0.00    +0.000 HD
BRANCH  18  22
ATOM     22  O   UNL     1       5.640   3.330  11.745  0.00  0.00    +0.000 OA
BRANCH  22  24
ATOM     23  C   UNL     1       7.127   1.611  10.978  0.00  0.00    +0.000 C 
ATOM     24  C   UNL     1       5.755   1.911  11.551  0.00  0.00    +0.000 C 
ENDBRANCH  22  24
ENDBRANCH  18  22
ENDBRANCH  17  20
ENDBRANCH  16  17
ENDBRANCH  14  16
ENDBRANCH   1  14
BRANCH   1  25
ATOM     25  C   UNL     1       5.523   5.773  18.518  0.00  0.00    +0.000 C 
BRANCH  25  26
ATOM     26  C   UNL     1       7.054   5.795  18.280  0.00  0.00    +0.000 C 
ATOM     27  C   UNL     1       7.567   7.056  17.575  0.00  0.00    +0.000 C 
ATOM     28  C   UNL     1       7.762   5.683  19.638  0.00  0.00    +0.000 C 
ENDBRANCH  25  26
ENDBRANCH   1  25
TORSDOF 10
ENDMDL
MODEL 6
REMARK VINA RESULT:      -7.0      1.658      2.866
REMARK  Name = 
REMARK  13 active torsions:
REMARK  status: ('A' for Active; 'I' for Inactive)
REMARK    1  A    between atoms: C_1  and  C_2
REMARK    2  A    between atoms: C_2  and  O_3
REMARK    3  A    between atoms: O_3  and  C_4
REMARK    4  A    between atoms: N_6  and  C_7
REMARK    5  A    between atoms: C_7  and  C_8
REMARK    6  A    between atoms: C_8  and  N_9
REMARK    7  A    between atoms: N_9  and  C_10
REMARK    8  A    between atoms: C_10  and  C_11
REMARK    9  A    between atoms: C_10  and  C_15
REMARK   10  A    between atoms: C_11  and  C_12
REMARK   11  A    between atoms: C_12  and  C_13
REMARK   12  A    between atoms: C_12  and  C_14
REMARK   13  A    between atoms: C_15  and  C_16
REMARK                            x       y       z     vdW  Elec       q    Type
REMARK                         _______ _______ _______ _____ _____    ______ ____
ROOT
ATOM      1  C   UNL     1       3.999   5.030  18.656  0.00  0.00    +0.000 C 
ENDROOT
BRANCH   1   2
ATOM      2  C   UNL     1       2.691   5.405  19.447  0.00  0.00    +0.000 C 
ATOM      3  C   UNL     1       1.487   4.394  19.169  0.00  0.00    +0.000 C 
ATOM      4  C   UNL     1       1.134   4.488  20.664  0.00  0.00    +0.000 C 
ATOM      5  C   UNL     1       2.609   4.817  20.913  0.00  0.00    +0.000 C 
BRANCH   2   6
ATOM      6  C   UNL     1       2.268   6.987  19.295  0.00  0.00    +0.000 A 
ATOM      7  C   UNL     1       2.309   7.659  18.053  0.00  0.00    +0.000 A 
ATOM      8  C   UNL     1       1.812   8.957  17.885  0.00  0.00    +0.000 A 
ATOM      9  C   UNL     1       1.263   9.640  18.966  0.00  0.00    +0.000 A 
ATOM     10 CL   UNL     1       0.604  11.211  18.682  0.00  0.00    +0.000 Cl
ATOM     11  C   UNL     1       1.248   9.033  20.222  0.00  0.00    +0.000 A 
ATOM     12 CL   UNL     1       0.596   9.810  21.621  0.00  0.00    +0.000 Cl
ATOM     13  C   UNL     1       1.750   7.733  20.375  0.00  0.00    +0.000 A 
ENDBRANCH   2   6
ENDBRANCH   1   2
BRANCH   1  14
ATOM     14  N   UNL     1       5.100   5.942  19.088  0.00  0.00    +0.000 NA
ATOM     15  H   UNL     1       5.375   6.514  18.287  0.00  0.00    +0.000 HD
BRANCH  14  16
ATOM     16  C   UNL     1       6.310   5.273  19.592  0.00  0.00    +0.000 C 
BRANCH  16  17
ATOM     17  C   UNL     1       7.594   5.838  18.941  0.00  0.00    +0.000 C 
BRANCH  17  20
ATOM     18  C   UNL     1       7.174   6.322  16.571  0.00  0.00    +0.000 C 
ATOM     19  O   UNL     1       6.726   7.440  16.777  0.00  0.00    +0.000 OA
ATOM     20  N   UNL     1       7.689   5.506  17.531  0.00  0.00    +0.000 N 
ATOM     21  H   UNL     1       7.900   4.561  17.240  0.00  0.00    +0.000 HD
BRANCH  18  22
ATOM     22  O   UNL     1       7.167   5.672  15.380  0.00  0.00    +0.000 OA
BRANCH  22  24
ATOM     23  C   UNL     1       6.423   3.890  13.958  0.00  0.00    +0.000 C 
ATOM     24  C   UNL     1       6.238   4.579  15.296  0.00  0.00    +0.000 C 
ENDBRANCH  22  24
ENDBRANCH  18  22
ENDBRANCH  17  20
ENDBRANCH  16  17
ENDBRANCH  14  16
ENDBRANCH   1  14
BRANCH   1  25
ATOM     25  C   UNL     1       4.409   3.541  18.823  0.00  0.00    +0.000 C 
BRANCH  25  26
ATOM     26  C   UNL     1       3.969   2.485  17.778  0.00  0.00    +0.000 C 
ATOM     27  C   UNL     1       3.190   1.301  18.364  0.00  0.00    +0.000 C 
ATOM     28  C   UNL     1       3.081   3.173  16.732  0.00  0.00    +0.000 C 
ENDBRANCH  25  26
ENDBRANCH   1  25
TORSDOF 10
ENDMDL
MODEL 7
REMARK VINA RESULT:      -7.0      0.761      1.415
REMARK  Name = 
REMARK  13 active torsions:
REMARK  status: ('A' for Active; 'I' for Inactive)
REMARK    1  A    between atoms: C_1  and  C_2
REMARK    2  A    between atoms: C_2  and  O_3
REMARK    3  A    between atoms: O_3  and  C_4
REMARK    4  A    between atoms: N_6  and  C_7
REMARK    5  A    between atoms: C_7  and  C_8
REMARK    6  A    between atoms: C_8  and  N_9
REMARK    7  A    between atoms: N_9  and  C_10
REMARK    8  A    between atoms: C_10  and  C_11
REMARK    9  A    between atoms: C_10  and  C_15
REMARK   10  A    between atoms: C_11  and  C_12
REMARK   11  A    between atoms: C_12  and  C_13
REMARK   12  A    between atoms: C_12  and  C_14
REMARK   13  A    between atoms: C_15  and  C_16
REMARK                            x       y       z     vdW  Elec       q    Type
REMARK                         _______ _______ _______ _____ _____    ______ ____
ROOT
ATOM      1  C   UNL     1       4.620   5.407  18.124  0.00  0.00    +0.000 C 
ENDROOT
BRANCH   1   2
ATOM      2  C   UNL     1       3.180   5.102  18.683  0.00  0.00    +0.000 C 
ATOM      3  C   UNL     1       2.305   4.212  17.688  0.00  0.00    +0.000 C 
ATOM      4  C   UNL     1       1.775   3.454  18.918  0.00  0.00    +0.000 C 
ATOM      5  C   UNL     1       3.084   3.830  19.618  0.00  0.00    +0.000 C 
BRANCH   2   6
ATOM      6  C   UNL     1       2.396   6.441  19.229  0.00  0.00    +0.000 A 
ATOM      7  C   UNL     1       1.840   6.509  20.526  0.00  0.00    +0.000 A 
ATOM      8  C   UNL     1       1.304   7.691  21.052  0.00  0.00    +0.000 A 
ATOM      9  C   UNL     1       1.294   8.854  20.287  0.00  0.00    +0.000 A 
ATOM     10 CL   UNL     1       0.682  10.296  21.015  0.00  0.00    +0.000 Cl
ATOM     11  C   UNL     1       1.787   8.819  18.983  0.00  0.00    +0.000 A 
ATOM     12 CL   UNL     1       1.804  10.211  17.960  0.00  0.00    +0.000 Cl
ATOM     13  C   UNL     1       2.320   7.628  18.469  0.00  0.00    +0.000 A 
ENDBRANCH   2   6
ENDBRANCH   1   2
BRANCH   1  14
ATOM     14  N   UNL     1       5.546   5.622  19.276  0.00  0.00    +0.000 NA
ATOM     15  H   UNL     1       5.863   6.594  19.254  0.00  0.00    +0.000 HD
BRANCH  14  16
ATOM     16  C   UNL     1       6.742   4.765  19.290  0.00  0.00    +0.000 C 
BRANCH  16  17
ATOM     17  C   UNL     1       8.033   5.573  19.019  0.00  0.00    +0.000 C 
BRANCH  17  20
ATOM     18  C   UNL     1       7.750   7.590  17.649  0.00  0.00    +0.000 C 
ATOM     19  O   UNL     1       7.797   6.993  16.584  0.00  0.00    +0.000 OA
ATOM     20  N   UNL     1       7.774   6.993  18.872  0.00  0.00    +0.000 N 
ATOM     21  H   UNL     1       7.862   7.616  19.664  0.00  0.00    +0.000 HD
BRANCH  18  22
ATOM     22  O   UNL     1       7.743   8.937  17.802  0.00  0.00    +0.000 OA
BRANCH  22  24
ATOM     23  C   UNL     1       9.175  10.828  18.168  0.00  0.00    +0.000 C 
ATOM     24  C   UNL     1       8.774   9.451  18.662  0.00  0.00    +0.000 C 
ENDBRANCH  22  24
ENDBRANCH  18  22
ENDBRANCH  17  20
ENDBRANCH  16  17
ENDBRANCH  14  16
ENDBRANCH   1  14
BRANCH   1  25
ATOM     25  C   UNL     1       5.155   4.298  17.177  0.00  0.00    +0.000 C 
BRANCH  25  26
ATOM     26  C   UNL     1       5.121   4.497  15.641  0.00  0.00    +0.000 C 
ATOM     27  C   UNL     1       5.126   5.963  15.192  0.00  0.00    +0.000 C 
ATOM     28  C   UNL     1       6.347   3.804  15.030  0.00  0.00    +0.000 C 
ENDBRANCH  25  26
ENDBRANCH   1  25
TORSDOF 10
ENDMDL
MODEL 8
REMARK VINA RESULT:      -7.0      2.790      4.948
REMARK  Name = 
REMARK  13 active torsions:
REMARK  status: ('A' for Active; 'I' for Inactive)
REMARK    1  A    between atoms: C_1  and  C_2
REMARK    2  A    between atoms: C_2  and  O_3
REMARK    3  A    between atoms: O_3  and  C_4
REMARK    4  A    between atoms: N_6  and  C_7
REMARK    5  A    between atoms: C_7  and  C_8
REMARK    6  A    between atoms: C_8  and  N_9
REMARK    7  A    between atoms: N_9  and  C_10
REMARK    8  A    between atoms: C_10  and  C_11
REMARK    9  A    between atoms: C_10  and  C_15
REMARK   10  A    between atoms: C_11  and  C_12
REMARK   11  A    between atoms: C_12  and  C_13
REMARK   12  A    between atoms: C_12  and  C_14
REMARK   13  A    between atoms: C_15  and  C_16
REMARK                            x       y       z     vdW  Elec       q    Type
REMARK                         _______ _______ _______ _____ _____    ______ ____
ROOT
ATOM      1  C   UNL     1       5.044   4.290  17.626  0.00  0.00    +0.000 C 
ENDROOT
BRANCH   1   2
ATOM      2  C   UNL     1       3.651   3.961  18.281  0.00  0.00    +0.000 C 
ATOM      3  C   UNL     1       2.720   3.070  17.338  0.00  0.00    +0.000 C 
ATOM      4  C   UNL     1       2.287   2.292  18.594  0.00  0.00    +0.000 C 
ATOM      5  C   UNL     1       3.636   2.678  19.206  0.00  0.00    +0.000 C 
BRANCH   2   6
ATOM      6  C   UNL     1       2.890   5.284  18.894  0.00  0.00    +0.000 A 
ATOM      7  C   UNL     1       2.452   5.342  20.236  0.00  0.00    +0.000 A 
ATOM      8  C   UNL     1       1.940   6.513  20.808  0.00  0.00    +0.000 A 
ATOM      9  C   UNL     1       1.836   7.674  20.048  0.00  0.00    +0.000 A 
ATOM     10 CL   UNL     1       1.261   9.104  20.827  0.00  0.00    +0.000 Cl
ATOM     11  C   UNL     1       2.211   7.647  18.705  0.00  0.00    +0.000 A 
ATOM     12 CL   UNL     1       2.106   9.038  17.684  0.00  0.00    +0.000 Cl
ATOM     13  C   UNL     1       2.721   6.467  18.145  0.00  0.00    +0.000 A 
ENDBRANCH   2   6
ENDBRANCH   1   2
BRANCH   1  14
ATOM     14  N   UNL     1       4.898   4.251  16.140  0.00  0.00    +0.000 NA
ATOM     15  H   UNL     1       5.320   3.385  15.799  0.00  0.00    +0.000 HD
BRANCH  14  16
ATOM     16  C   UNL     1       5.527   5.368  15.417  0.00  0.00    +0.000 C 
BRANCH  16  17
ATOM     17  C   UNL     1       6.661   4.882  14.483  0.00  0.00    +0.000 C 
BRANCH  17  20
ATOM     18  C   UNL     1       6.557   3.435  12.502  0.00  0.00    +0.000 C 
ATOM     19  O   UNL     1       7.156   4.217  11.778  0.00  0.00    +0.000 OA
ATOM     20  N   UNL     1       6.339   3.626  13.832  0.00  0.00    +0.000 N 
ATOM     21  H   UNL     1       5.718   2.962  14.276  0.00  0.00    +0.000 HD
BRANCH  18  22
ATOM     22  O   UNL     1       5.946   2.293  12.101  0.00  0.00    +0.000 OA
BRANCH  22  24
ATOM     23  C   UNL     1       3.923   3.354  11.368  0.00  0.00    +0.000 C 
ATOM     24  C   UNL     1       5.070   2.444  10.972  0.00  0.00    +0.000 C 
ENDBRANCH  22  24
ENDBRANCH  18  22
ENDBRANCH  17  20
ENDBRANCH  16  17
ENDBRANCH  14  16
ENDBRANCH   1  14
BRANCH   1  25
ATOM     25  C   UNL     1       5.634   5.649  18.094  0.00  0.00    +0.000 C 
BRANCH  25  26
ATOM     26  C   UNL     1       7.168   5.857  18.156  0.00  0.00    +0.000 C 
ATOM     27  C   UNL     1       7.639   7.241  17.691  0.00  0.00    +0.000 C 
ATOM     28  C   UNL     1       7.631   5.654  19.605  0.00  0.00    +0.000 C 
ENDBRANCH  25  26
ENDBRANCH   1  25
TORSDOF 10
ENDMDL
MODEL 9
REMARK VINA RESULT:      -7.0      4.613      7.132
REMARK  Name = 
REMARK  13 active torsions:
REMARK  status: ('A' for Active; 'I' for Inactive)
REMARK    1  A    between atoms: C_1  and  C_2
REMARK    2  A    between atoms: C_2  and  O_3
REMARK    3  A    between atoms: O_3  and  C_4
REMARK    4  A    between atoms: N_6  and  C_7
REMARK    5  A    between atoms: C_7  and  C_8
REMARK    6  A    between atoms: C_8  and  N_9
REMARK    7  A    between atoms: N_9  and  C_10
REMARK    8  A    between atoms: C_10  and  C_11
REMARK    9  A    between atoms: C_10  and  C_15
REMARK   10  A    between atoms: C_11  and  C_12
REMARK   11  A    between atoms: C_12  and  C_13
REMARK   12  A    between atoms: C_12  and  C_14
REMARK   13  A    between atoms: C_15  and  C_16
REMARK                            x       y       z     vdW  Elec       q    Type
REMARK                         _______ _______ _______ _____ _____    ______ ____
ROOT
ATOM      1  C   UNL     1       1.560   5.966  19.652  0.00  0.00    +0.000 C 
ENDROOT
BRANCH   1   2
ATOM      2  C   UNL     1       2.237   4.554  19.823  0.00  0.00    +0.000 C 
ATOM      3  C   UNL     1       2.334   4.095  21.349  0.00  0.00    +0.000 C 
ATOM      4  C   UNL     1       1.968   2.673  20.887  0.00  0.00    +0.000 C 
ATOM      5  C   UNL     1       1.250   3.324  19.702  0.00  0.00    +0.000 C 
BRANCH   2   6
ATOM      6  C   UNL     1       3.654   4.407  19.001  0.00  0.00    +0.000 A 
ATOM      7  C   UNL     1       3.721   3.810  17.723  0.00  0.00    +0.000 A 
ATOM      8  C   UNL     1       4.891   3.813  16.953  0.00  0.00    +0.000 A 
ATOM      9  C   UNL     1       6.049   4.409  17.446  0.00  0.00    +0.000 A 
ATOM     10 CL   UNL     1       7.440   4.442  16.423  0.00  0.00    +0.000 Cl
ATOM     11  C   UNL     1       6.040   4.967  18.724  0.00  0.00    +0.000 A 
ATOM     12 CL   UNL     1       7.433   5.717  19.418  0.00  0.00    +0.000 Cl
ATOM     13  C   UNL     1       4.861   4.955  19.483  0.00  0.00    +0.000 A 
ENDBRANCH   2   6
ENDBRANCH   1   2
BRANCH   1  14
ATOM     14  N   UNL     1       1.999   6.848  20.775  0.00  0.00    +0.000 NA
ATOM     15  H   UNL     1       2.322   6.253  21.541  0.00  0.00    +0.000 HD
BRANCH  14  16
ATOM     16  C   UNL     1       0.963   7.742  21.314  0.00  0.00    +0.000 C 
BRANCH  16  17
ATOM     17  C   UNL     1       1.520   9.154  21.615  0.00  0.00    +0.000 C 
BRANCH  17  20
ATOM     18  C   UNL     1      -0.282  10.504  22.594  0.00  0.00    +0.000 C 
ATOM     19  O   UNL     1      -0.112  10.086  23.729  0.00  0.00    +0.000 OA
ATOM     20  N   UNL     1       0.498  10.180  21.526  0.00  0.00    +0.000 N 
ATOM     21  H   UNL     1       0.163  10.494  20.625  0.00  0.00    +0.000 HD
BRANCH  18  22
ATOM     22  O   UNL     1      -1.307  11.292  22.185  0.00  0.00    +0.000 OA
BRANCH  22  24
ATOM     23  C   UNL     1      -3.169  12.352  23.263  0.00  0.00    +0.000 C 
ATOM     24  C   UNL     1      -1.661  12.341  23.100  0.00  0.00    +0.000 C 
ENDBRANCH  22  24
ENDBRANCH  18  22
ENDBRANCH  17  20
ENDBRANCH  16  17
ENDBRANCH  14  16
ENDBRANCH   1  14
BRANCH   1  25
ATOM     25  C   UNL     1       1.858   6.624  18.277  0.00  0.00    +0.000 C 
BRANCH  25  26
ATOM     26  C   UNL     1       2.831   7.826  18.178  0.00  0.00    +0.000 C 
ATOM     27  C   UNL     1       3.971   7.636  17.171  0.00  0.00    +0.000 C 
ATOM     28  C   UNL     1       2.032   9.071  17.769  0.00  0.00    +0.000 C 
ENDBRANCH  25  26
ENDBRANCH   1  25
TORSDOF 10
ENDMDL
