MODEL 1
REMARK VINA RESULT:     -10.0      0.000      0.000
REMARK  Name = 
REMARK  9 active torsions:
REMARK  status: ('A' for Active; 'I' for Inactive)
REMARK    1  A    between atoms: C_1  and  C_2
REMARK    2  A    between atoms: C_9  and  S_10
REMARK    3  A    between atoms: S_10  and  N_13
REMARK    4  A    between atoms: N_13  and  C_14
REMARK    5  A    between atoms: C_14  and  C_15
REMARK    6  A    between atoms: C_14  and  C_22
REMARK    7  A    between atoms: C_15  and  C_16
REMARK    8  A    between atoms: N_24  and  C_25
REMARK    9  A    between atoms: C_29  and  C_30
REMARK                            x       y       z     vdW  Elec       q    Type
REMARK                         _______ _______ _______ _____ _____    ______ ____
ROOT
ATOM      1  C   UNL     1       5.326   4.434  19.137  0.00  0.00    +0.000 C 
ENDROOT
BRANCH   1   2
ATOM      2  C   UNL     1       6.003   4.771  17.764  0.00  0.00    +0.000 C 
ATOM      3  O   UNL     1       6.948   5.567  17.762  0.00  0.00    +0.000 OA
ATOM      4  N   UNL     1       5.516   4.119  16.641  0.00  0.00    +0.000 N 
ATOM      5  H   UNL     1       4.604   3.686  16.704  0.00  0.00    +0.000 HD
BRANCH   4   6
ATOM      6  C   UNL     1       6.012   4.232  15.319  0.00  0.00    +0.000 A 
ATOM      7  C   UNL     1       7.185   4.913  14.998  0.00  0.00    +0.000 A 
ATOM      8  C   UNL     1       7.622   4.996  13.674  0.00  0.00    +0.000 A 
ATOM      9  C   UNL     1       6.889   4.398  12.653  0.00  0.00    +0.000 A 
ATOM     10  C   UNL     1       5.713   3.701  12.947  0.00  0.00    +0.000 A 
ATOM     11  C   UNL     1       4.905   3.083  11.843  0.00  0.00    +0.000 C 
ATOM     12  C   UNL     1       5.287   3.614  14.285  0.00  0.00    +0.000 A 
ENDBRANCH   4   6
ENDBRANCH   1   2
BRANCH   1  13
ATOM     13  N   UNL     1       4.334   5.526  19.353  0.00  0.00    +0.000 NA
ATOM     14  H   UNL     1       3.878   5.514  20.273  0.00  0.00    +0.000 HD
BRANCH  13  15
ATOM     15  S   UNL     1       3.461   6.259  18.136  0.00  0.00    +0.000 S 
ATOM     16  O   UNL     1       2.661   5.261  17.466  0.00  0.00    +0.000 OA
ATOM     17  O   UNL     1       4.389   7.097  17.410  0.00  0.00    +0.000 OA
BRANCH  15  26
ATOM     18  C   UNL     1      -1.171  11.486  22.649  0.00  0.00    +0.000 C 
ATOM     19  C   UNL     1      -0.375  10.237  22.352  0.00  0.00    +0.000 C 
ATOM     20  O   UNL     1      -0.243   9.374  23.218  0.00  0.00    +0.000 OA
ATOM     21  N   UNL     1       0.148  10.172  21.074  0.00  0.00    +0.000 N 
ATOM     22  C   UNL     1       0.123  11.262  20.084  0.00  0.00    +0.000 C 
ATOM     23  C   UNL     1       0.722  10.725  18.783  0.00  0.00    +0.000 C 
ATOM     24  C   UNL     1       1.250   9.396  19.218  0.00  0.00    +0.000 A 
ATOM     25  C   UNL     1       1.992   8.517  18.458  0.00  0.00    +0.000 A 
ATOM     26  C   UNL     1       2.389   7.321  19.058  0.00  0.00    +0.000 A 
ATOM     27  C   UNL     1       2.002   6.990  20.367  0.00  0.00    +0.000 A 
ATOM     28  C   UNL     1       1.238   7.891  21.117  0.00  0.00    +0.000 A 
ATOM     29  C   UNL     1       0.879   9.100  20.532  0.00  0.00    +0.000 A 
ENDBRANCH  15  26
ENDBRANCH  13  15
ENDBRANCH   1  13
BRANCH   1  30
ATOM     30  C   UNL     1       4.728   3.028  19.266  0.00  0.00    +0.000 C 
BRANCH  30  31
ATOM     31  C   UNL     1       3.279   2.946  19.689  0.00  0.00    +0.000 A 
ATOM     32  C   UNL     1       2.327   2.523  18.751  0.00  0.00    +0.000 A 
ATOM     33  C   UNL     1       0.966   2.607  19.041  0.00  0.00    +0.000 A 
ATOM     34  C   UNL     1       0.541   3.097  20.274  0.00  0.00    +0.000 A 
ATOM     35  C   UNL     1       1.477   3.439  21.243  0.00  0.00    +0.000 A 
ATOM     36  C   UNL     1       2.834   3.340  20.960  0.00  0.00    +0.000 A 
ENDBRANCH  30  31
ENDBRANCH   1  30
TORSDOF 7
ENDMDL
MODEL 2
REMARK VINA RESULT:      -9.6      4.868      5.967
REMARK  Name = 
REMARK  9 active torsions:
REMARK  status: ('A' for Active; 'I' for Inactive)
REMARK    1  A    between atoms: C_1  and  C_2
REMARK    2  A    between atoms: C_9  and  S_10
REMARK    3  A    between atoms: S_10  and  N_13
REMARK    4  A    between atoms: N_13  and  C_14
REMARK    5  A    between atoms: C_14  and  C_15
REMARK    6  A    between atoms: C_14  and  C_22
REMARK    7  A    between atoms: C_15  and  C_16
REMARK    8  A    between atoms: N_24  and  C_25
REMARK    9  A    between atoms: C_29  and  C_30
REMARK                            x       y       z     vdW  Elec       q    Type
REMARK                         _______ _______ _______ _____ _____    ______ ____
ROOT
ATOM      1  C   UNL     1       4.938   6.502  17.501  0.00  0.00    +0.000 C 
ENDROOT
BRANCH   1   2
ATOM      2  C   UNL     1       5.200   6.252  15.977  0.00  0.00    +0.000 C 
ATOM      3  O   UNL     1       4.922   7.158  15.182  0.00  0.00    +0.000 OA
ATOM      4  N   UNL     1       5.768   5.037  15.622  0.00  0.00    +0.000 N 
ATOM      5  H   UNL     1       5.731   4.284  16.296  0.00  0.00    +0.000 HD
BRANCH   4   6
ATOM      6  C   UNL     1       6.137   4.628  14.318  0.00  0.00    +0.000 A 
ATOM      7  C   UNL     1       7.378   4.913  13.749  0.00  0.00    +0.000 A 
ATOM      8  C   UNL     1       7.683   4.487  12.455  0.00  0.00    +0.000 A 
ATOM      9  C   UNL     1       6.750   3.771  11.711  0.00  0.00    +0.000 A 
ATOM     10  C   UNL     1       5.501   3.464  12.259  0.00  0.00    +0.000 A 
ATOM     11  C   UNL     1       4.482   2.719  11.447  0.00  0.00    +0.000 C 
ATOM     12  C   UNL     1       5.206   3.887  13.567  0.00  0.00    +0.000 A 
ENDBRANCH   4   6
ENDBRANCH   1   2
BRANCH   1  13
ATOM     13  N   UNL     1       5.934   7.540  17.895  0.00  0.00    +0.000 NA
ATOM     14  H   UNL     1       5.608   8.508  17.790  0.00  0.00    +0.000 HD
BRANCH  13  15
ATOM     15  S   UNL     1       7.587   7.334  17.821  0.00  0.00    +0.000 S 
ATOM     16  O   UNL     1       7.964   7.057  16.455  0.00  0.00    +0.000 OA
ATOM     17  O   UNL     1       7.940   6.439  18.900  0.00  0.00    +0.000 OA
BRANCH  15  26
ATOM     18  C   UNL     1      10.673  14.868  19.514  0.00  0.00    +0.000 C 
ATOM     19  C   UNL     1      10.511  13.372  19.642  0.00  0.00    +0.000 C 
ATOM     20  O   UNL     1      11.189  12.750  20.458  0.00  0.00    +0.000 OA
ATOM     21  N   UNL     1       9.565  12.816  18.801  0.00  0.00    +0.000 N 
ATOM     22  C   UNL     1       8.858  13.527  17.722  0.00  0.00    +0.000 C 
ATOM     23  C   UNL     1       7.840  12.560  17.115  0.00  0.00    +0.000 C 
ATOM     24  C   UNL     1       8.211  11.273  17.778  0.00  0.00    +0.000 A 
ATOM     25  C   UNL     1       7.677  10.029  17.517  0.00  0.00    +0.000 A 
ATOM     26  C   UNL     1       8.165   8.949  18.253  0.00  0.00    +0.000 A 
ATOM     27  C   UNL     1       9.125   9.121  19.265  0.00  0.00    +0.000 A 
ATOM     28  C   UNL     1       9.645  10.394  19.522  0.00  0.00    +0.000 A 
ATOM     29  C   UNL     1       9.187  11.462  18.760  0.00  0.00    +0.000 A 
ENDBRANCH  15  26
ENDBRANCH  13  15
ENDBRANCH   1  13
BRANCH   1  30
ATOM     30  C   UNL     1       3.497   6.857  17.888  0.00  0.00    +0.000 C 
BRANCH  30  31
ATOM     31  C   UNL     1       2.655   5.739  18.460  0.00  0.00    +0.000 A 
ATOM     32  C   UNL     1       2.257   5.818  19.802  0.00  0.00    +0.000 A 
ATOM     33  C   UNL     1       1.640   4.730  20.418  0.00  0.00    +0.000 A 
ATOM     34  C   UNL     1       1.397   3.562  19.699  0.00  0.00    +0.000 A 
ATOM     35  C   UNL     1       1.710   3.504  18.346  0.00  0.00    +0.000 A 
ATOM     36  C   UNL     1       2.312   4.593  17.727  0.00  0.00    +0.000 A 
ENDBRANCH  30  31
ENDBRANCH   1  30
TORSDOF 7
ENDMDL
MODEL 3
REMARK VINA RESULT:      -9.6      2.460      4.341
REMARK  Name = 
REMARK  9 active torsions:
REMARK  status: ('A' for Active; 'I' for Inactive)
REMARK    1  A    between atoms: C_1  and  C_2
REMARK    2  A    between atoms: C_9  and  S_10
REMARK    3  A    between atoms: S_10  and  N_13
REMARK    4  A    between atoms: N_13  and  C_14
REMARK    5  A    between atoms: C_14  and  C_15
REMARK    6  A    between atoms: C_14  and  C_22
REMARK    7  A    between atoms: C_15  and  C_16
REMARK    8  A    between atoms: N_24  and  C_25
REMARK    9  A    between atoms: C_29  and  C_30
REMARK                            x       y       z     vdW  Elec       q    Type
REMARK                         _______ _______ _______ _____ _____    ______ ____
ROOT
ATOM      1  C   UNL     1       6.268   4.950  18.150  0.00  0.00    +0.000 C 
ENDROOT
BRANCH   1   2
ATOM      2  C   UNL     1       6.898   4.619  16.755  0.00  0.00    +0.000 C 
ATOM      3  O   UNL     1       8.020   4.101  16.731  0.00  0.00    +0.000 OA
ATOM      4  N   UNL     1       6.132   4.896  15.632  0.00  0.00    +0.000 N 
ATOM      5  H   UNL     1       5.351   5.530  15.738  0.00  0.00    +0.000 HD
BRANCH   4   6
ATOM      6  C   UNL     1       6.481   4.628  14.286  0.00  0.00    +0.000 A 
ATOM      7  C   UNL     1       7.508   5.291  13.616  0.00  0.00    +0.000 A 
ATOM      8  C   UNL     1       7.802   4.987  12.285  0.00  0.00    +0.000 A 
ATOM      9  C   UNL     1       7.072   4.016  11.606  0.00  0.00    +0.000 A 
ATOM     10  C   UNL     1       6.042   3.329  12.257  0.00  0.00    +0.000 A 
ATOM     11  C   UNL     1       5.233   2.304  11.517  0.00  0.00    +0.000 C 
ATOM     12  C   UNL     1       5.760   3.635  13.600  0.00  0.00    +0.000 A 
ENDBRANCH   4   6
ENDBRANCH   1   2
BRANCH   1  13
ATOM     13  N   UNL     1       5.852   3.630  18.705  0.00  0.00    +0.000 NA
ATOM     14  H   UNL     1       6.565   2.894  18.640  0.00  0.00    +0.000 HD
BRANCH  13  15
ATOM     15  S   UNL     1       4.276   3.088  18.764  0.00  0.00    +0.000 S 
ATOM     16  O   UNL     1       4.120   2.220  19.907  0.00  0.00    +0.000 OA
ATOM     17  O   UNL     1       3.941   2.649  17.428  0.00  0.00    +0.000 OA
BRANCH  15  26
ATOM     18  C   UNL     1       0.562  10.351  20.382  0.00  0.00    +0.000 C 
ATOM     19  C   UNL     1       1.045   8.946  20.655  0.00  0.00    +0.000 C 
ATOM     20  O   UNL     1       0.830   8.426  21.748  0.00  0.00    +0.000 OA
ATOM     21  N   UNL     1       1.704   8.343  19.600  0.00  0.00    +0.000 N 
ATOM     22  C   UNL     1       2.096   9.008  18.345  0.00  0.00    +0.000 C 
ATOM     23  C   UNL     1       2.710   7.949  17.428  0.00  0.00    +0.000 C 
ATOM     24  C   UNL     1       2.815   6.776  18.347  0.00  0.00    +0.000 A 
ATOM     25  C   UNL     1       3.405   5.562  18.066  0.00  0.00    +0.000 A 
ATOM     26  C   UNL     1       3.395   4.592  19.070  0.00  0.00    +0.000 A 
ATOM     27  C   UNL     1       2.761   4.814  20.303  0.00  0.00    +0.000 A 
ATOM     28  C   UNL     1       2.157   6.050  20.563  0.00  0.00    +0.000 A 
ATOM     29  C   UNL     1       2.203   7.029  19.577  0.00  0.00    +0.000 A 
ENDBRANCH  15  26
ENDBRANCH  13  15
ENDBRANCH   1  13
BRANCH   1  30
ATOM     30  C   UNL     1       7.143   5.769  19.108  0.00  0.00    +0.000 C 
BRANCH  30  31
ATOM     31  C   UNL     1       7.617   7.114  18.607  0.00  0.00    +0.000 A 
ATOM     32  C   UNL     1       8.688   7.736  19.264  0.00  0.00    +0.000 A 
ATOM     33  C   UNL     1       9.037   9.050  18.954  0.00  0.00    +0.000 A 
ATOM     34  C   UNL     1       8.335   9.750  17.975  0.00  0.00    +0.000 A 
ATOM     35  C   UNL     1       7.327   9.114  17.258  0.00  0.00    +0.000 A 
ATOM     36  C   UNL     1       6.989   7.799  17.556  0.00  0.00    +0.000 A 
ENDBRANCH  30  31
ENDBRANCH   1  30
TORSDOF 7
ENDMDL
MODEL 4
REMARK VINA RESULT:      -9.5      1.082      1.799
REMARK  Name = 
REMARK  9 active torsions:
REMARK  status: ('A' for Active; 'I' for Inactive)
REMARK    1  A    between atoms: C_1  and  C_2
REMARK    2  A    between atoms: C_9  and  S_10
REMARK    3  A    between atoms: S_10  and  N_13
REMARK    4  A    between atoms: N_13  and  C_14
REMARK    5  A    between atoms: C_14  and  C_15
REMARK    6  A    between atoms: C_14  and  C_22
REMARK    7  A    between atoms: C_15  and  C_16
REMARK    8  A    between atoms: N_24  and  C_25
REMARK    9  A    between atoms: C_29  and  C_30
REMARK                            x       y       z     vdW  Elec       q    Type
REMARK                         _______ _______ _______ _____ _____    ______ ____
ROOT
ATOM      1  C   UNL     1       5.353   4.304  18.705  0.00  0.00    +0.000 C 
ENDROOT
BRANCH   1   2
ATOM      2  C   UNL     1       6.189   4.479  17.391  0.00  0.00    +0.000 C 
ATOM      3  O   UNL     1       7.378   4.800  17.497  0.00  0.00    +0.000 OA
ATOM      4  N   UNL     1       5.543   4.223  16.190  0.00  0.00    +0.000 N 
ATOM      5  H   UNL     1       4.532   4.209  16.192  0.00  0.00    +0.000 HD
BRANCH   4   6
ATOM      6  C   UNL     1       6.119   4.266  14.897  0.00  0.00    +0.000 A 
ATOM      7  C   UNL     1       7.213   5.068  14.574  0.00  0.00    +0.000 A 
ATOM      8  C   UNL     1       7.734   5.072  13.278  0.00  0.00    +0.000 A 
ATOM      9  C   UNL     1       7.167   4.275  12.288  0.00  0.00    +0.000 A 
ATOM     10  C   UNL     1       6.075   3.454  12.587  0.00  0.00    +0.000 A 
ATOM     11  C   UNL     1       5.443   2.617  11.514  0.00  0.00    +0.000 C 
ATOM     12  C   UNL     1       5.564   3.448  13.897  0.00  0.00    +0.000 A 
ENDBRANCH   4   6
ENDBRANCH   1   2
BRANCH   1  13
ATOM     13  N   UNL     1       4.553   5.558  18.819  0.00  0.00    +0.000 NA
ATOM     14  H   UNL     1       4.156   5.729  19.750  0.00  0.00    +0.000 HD
BRANCH  13  15
ATOM     15  S   UNL     1       3.732   6.269  17.554  0.00  0.00    +0.000 S 
ATOM     16  O   UNL     1       2.845   5.295  16.964  0.00  0.00    +0.000 OA
ATOM     17  O   UNL     1       4.719   6.970  16.764  0.00  0.00    +0.000 OA
BRANCH  15  26
ATOM     18  C   UNL     1      -1.243  11.744  21.351  0.00  0.00    +0.000 C 
ATOM     19  C   UNL     1      -0.408  11.169  20.232  0.00  0.00    +0.000 C 
ATOM     20  O   UNL     1      -0.316  11.771  19.164  0.00  0.00    +0.000 OA
ATOM     21  N   UNL     1       0.213   9.970  20.528  0.00  0.00    +0.000 N 
ATOM     22  C   UNL     1      -0.009   9.170  21.745  0.00  0.00    +0.000 C 
ATOM     23  C   UNL     1       0.950   7.979  21.702  0.00  0.00    +0.000 C 
ATOM     24  C   UNL     1       1.506   8.087  20.319  0.00  0.00    +0.000 A 
ATOM     25  C   UNL     1       2.355   7.193  19.702  0.00  0.00    +0.000 A 
ATOM     26  C   UNL     1       2.761   7.483  18.399  0.00  0.00    +0.000 A 
ATOM     27  C   UNL     1       2.371   8.667  17.751  0.00  0.00    +0.000 A 
ATOM     28  C   UNL     1       1.518   9.567  18.401  0.00  0.00    +0.000 A 
ATOM     29  C   UNL     1       1.082   9.257  19.683  0.00  0.00    +0.000 A 
ENDBRANCH  15  26
ENDBRANCH  13  15
ENDBRANCH   1  13
BRANCH   1  30
ATOM     30  C   UNL     1       4.509   3.028  18.802  0.00  0.00    +0.000 C 
BRANCH  30  31
ATOM     31  C   UNL     1       3.258   3.107  19.647  0.00  0.00    +0.000 A 
ATOM     32  C   UNL     1       3.380   2.997  21.039  0.00  0.00    +0.000 A 
ATOM     33  C   UNL     1       2.243   2.881  21.838  0.00  0.00    +0.000 A 
ATOM     34  C   UNL     1       0.976   2.894  21.261  0.00  0.00    +0.000 A 
ATOM     35  C   UNL     1       0.841   3.089  19.891  0.00  0.00    +0.000 A 
ATOM     36  C   UNL     1       1.973   3.219  19.095  0.00  0.00    +0.000 A 
ENDBRANCH  30  31
ENDBRANCH   1  30
TORSDOF 7
ENDMDL
MODEL 5
REMARK VINA RESULT:      -9.5      0.487      1.246
REMARK  Name = 
REMARK  9 active torsions:
REMARK  status: ('A' for Active; 'I' for Inactive)
REMARK    1  A    between atoms: C_1  and  C_2
REMARK    2  A    between atoms: C_9  and  S_10
REMARK    3  A    between atoms: S_10  and  N_13
REMARK    4  A    between atoms: N_13  and  C_14
REMARK    5  A    between atoms: C_14  and  C_15
REMARK    6  A    between atoms: C_14  and  C_22
REMARK    7  A    between atoms: C_15  and  C_16
REMARK    8  A    between atoms: N_24  and  C_25
REMARK    9  A    between atoms: C_29  and  C_30
REMARK                            x       y       z     vdW  Elec       q    Type
REMARK                         _______ _______ _______ _____ _____    ______ ____
ROOT
ATOM      1  C   UNL     1       5.436   4.234  18.759  0.00  0.00    +0.000 C 
ENDROOT
BRANCH   1   2
ATOM      2  C   UNL     1       6.102   4.512  17.368  0.00  0.00    +0.000 C 
ATOM      3  O   UNL     1       7.159   5.152  17.347  0.00  0.00    +0.000 OA
ATOM      4  N   UNL     1       5.474   3.984  16.249  0.00  0.00    +0.000 N 
ATOM      5  H   UNL     1       4.510   3.696  16.341  0.00  0.00    +0.000 HD
BRANCH   4   6
ATOM      6  C   UNL     1       5.929   4.067  14.911  0.00  0.00    +0.000 A 
ATOM      7  C   UNL     1       5.336   3.373  13.857  0.00  0.00    +0.000 A 
ATOM      8  C   UNL     1       5.834   3.490  12.557  0.00  0.00    +0.000 A 
ATOM      9  C   UNL     1       6.933   4.303  12.295  0.00  0.00    +0.000 A 
ATOM     10  C   UNL     1       7.542   5.017  13.331  0.00  0.00    +0.000 A 
ATOM     11  C   UNL     1       8.746   5.869  13.055  0.00  0.00    +0.000 C 
ATOM     12  C   UNL     1       7.027   4.901  14.635  0.00  0.00    +0.000 A 
ENDBRANCH   4   6
ENDBRANCH   1   2
BRANCH   1  13
ATOM     13  N   UNL     1       4.543   5.405  18.996  0.00  0.00    +0.000 NA
ATOM     14  H   UNL     1       4.174   5.475  19.953  0.00  0.00    +0.000 HD
BRANCH  13  15
ATOM     15  S   UNL     1       3.612   6.132  17.820  0.00  0.00    +0.000 S 
ATOM     16  O   UNL     1       2.802   5.127  17.174  0.00  0.00    +0.000 OA
ATOM     17  O   UNL     1       4.498   6.990  17.065  0.00  0.00    +0.000 OA
BRANCH  15  26
ATOM     18  C   UNL     1      -0.924  11.253  22.549  0.00  0.00    +0.000 C 
ATOM     19  C   UNL     1      -0.117  10.020  22.212  0.00  0.00    +0.000 C 
ATOM     20  O   UNL     1       0.066   9.156  23.068  0.00  0.00    +0.000 OA
ATOM     21  N   UNL     1       0.353   9.970  20.913  0.00  0.00    +0.000 N 
ATOM     22  C   UNL     1       0.266  11.064  19.930  0.00  0.00    +0.000 C 
ATOM     23  C   UNL     1       0.820  10.543  18.603  0.00  0.00    +0.000 C 
ATOM     24  C   UNL     1       1.390   9.223  19.009  0.00  0.00    +0.000 A 
ATOM     25  C   UNL     1       2.116   8.361  18.215  0.00  0.00    +0.000 A 
ATOM     26  C   UNL     1       2.559   7.171  18.792  0.00  0.00    +0.000 A 
ATOM     27  C   UNL     1       2.234   6.826  20.114  0.00  0.00    +0.000 A 
ATOM     28  C   UNL     1       1.485   7.710  20.899  0.00  0.00    +0.000 A 
ATOM     29  C   UNL     1       1.080   8.915  20.336  0.00  0.00    +0.000 A 
ENDBRANCH  15  26
ENDBRANCH  13  15
ENDBRANCH   1  13
BRANCH   1  30
ATOM     30  C   UNL     1       4.728   2.882  18.910  0.00  0.00    +0.000 C 
BRANCH  30  31
ATOM     31  C   UNL     1       3.400   2.892  19.633  0.00  0.00    +0.000 A 
ATOM     32  C   UNL     1       2.229   2.686  18.892  0.00  0.00    +0.000 A 
ATOM     33  C   UNL     1       0.980   2.867  19.483  0.00  0.00    +0.000 A 
ATOM     34  C   UNL     1       0.885   3.237  20.822  0.00  0.00    +0.000 A 
ATOM     35  C   UNL     1       2.038   3.361  21.590  0.00  0.00    +0.000 A 
ATOM     36  C   UNL     1       3.283   3.165  21.005  0.00  0.00    +0.000 A 
ENDBRANCH  30  31
ENDBRANCH   1  30
TORSDOF 7
ENDMDL
MODEL 6
REMARK VINA RESULT:      -9.4      2.586      4.638
REMARK  Name = 
REMARK  9 active torsions:
REMARK  status: ('A' for Active; 'I' for Inactive)
REMARK    1  A    between atoms: C_1  and  C_2
REMARK    2  A    between atoms: C_9  and  S_10
REMARK    3  A    between atoms: S_10  and  N_13
REMARK    4  A    between atoms: N_13  and  C_14
REMARK    5  A    between atoms: C_14  and  C_15
REMARK    6  A    between atoms: C_14  and  C_22
REMARK    7  A    between atoms: C_15  and  C_16
REMARK    8  A    between atoms: N_24  and  C_25
REMARK    9  A    between atoms: C_29  and  C_30
REMARK                            x       y       z     vdW  Elec       q    Type
REMARK                         _______ _______ _______ _____ _____    ______ ____
ROOT
ATOM      1  C   UNL     1       6.545   5.275  17.988  0.00  0.00    +0.000 C 
ENDROOT
BRANCH   1   2
ATOM      2  C   UNL     1       7.020   4.788  16.577  0.00  0.00    +0.000 C 
ATOM      3  O   UNL     1       8.094   4.180  16.502  0.00  0.00    +0.000 OA
ATOM      4  N   UNL     1       6.179   5.040  15.503  0.00  0.00    +0.000 N 
ATOM      5  H   UNL     1       5.460   5.742  15.621  0.00  0.00    +0.000 HD
BRANCH   4   6
ATOM      6  C   UNL     1       6.384   4.643  14.159  0.00  0.00    +0.000 A 
ATOM      7  C   UNL     1       7.550   4.925  13.448  0.00  0.00    +0.000 A 
ATOM      8  C   UNL     1       7.692   4.511  12.122  0.00  0.00    +0.000 A 
ATOM      9  C   UNL     1       6.670   3.810  11.489  0.00  0.00    +0.000 A 
ATOM     10  C   UNL     1       5.494   3.506  12.181  0.00  0.00    +0.000 A 
ATOM     11  C   UNL     1       4.378   2.777  11.491  0.00  0.00    +0.000 C 
ATOM     12  C   UNL     1       5.363   3.917  13.520  0.00  0.00    +0.000 A 
ENDBRANCH   4   6
ENDBRANCH   1   2
BRANCH   1  13
ATOM     13  N   UNL     1       5.928   4.073  18.619  0.00  0.00    +0.000 NA
ATOM     14  H   UNL     1       6.546   3.254  18.677  0.00  0.00    +0.000 HD
BRANCH  13  15
ATOM     15  S   UNL     1       4.296   3.731  18.596  0.00  0.00    +0.000 S 
ATOM     16  O   UNL     1       3.960   2.964  19.771  0.00  0.00    +0.000 OA
ATOM     17  O   UNL     1       3.995   3.249  17.266  0.00  0.00    +0.000 OA
BRANCH  15  26
ATOM     18  C   UNL     1       0.570  11.147  19.116  0.00  0.00    +0.000 C 
ATOM     19  C   UNL     1       1.397  10.048  18.491  0.00  0.00    +0.000 C 
ATOM     20  O   UNL     1       1.880  10.206  17.371  0.00  0.00    +0.000 OA
ATOM     21  N   UNL     1       1.551   8.919  19.275  0.00  0.00    +0.000 N 
ATOM     22  C   UNL     1       0.856   8.663  20.549  0.00  0.00    +0.000 C 
ATOM     23  C   UNL     1       1.394   7.349  21.117  0.00  0.00    +0.000 C 
ATOM     24  C   UNL     1       2.223   6.843  19.981  0.00  0.00    +0.000 A 
ATOM     25  C   UNL     1       2.865   5.626  19.909  0.00  0.00    +0.000 A 
ATOM     26  C   UNL     1       3.592   5.347  18.752  0.00  0.00    +0.000 A 
ATOM     27  C   UNL     1       3.720   6.288  17.716  0.00  0.00    +0.000 A 
ATOM     28  C   UNL     1       3.070   7.523  17.815  0.00  0.00    +0.000 A 
ATOM     29  C   UNL     1       2.312   7.783  18.951  0.00  0.00    +0.000 A 
ENDBRANCH  15  26
ENDBRANCH  13  15
ENDBRANCH   1  13
BRANCH   1  30
ATOM     30  C   UNL     1       7.610   5.948  18.863  0.00  0.00    +0.000 C 
BRANCH  30  31
ATOM     31  C   UNL     1       7.972   7.373  18.510  0.00  0.00    +0.000 A 
ATOM     32  C   UNL     1       8.888   8.054  19.324  0.00  0.00    +0.000 A 
ATOM     33  C   UNL     1       9.111   9.418  19.144  0.00  0.00    +0.000 A 
ATOM     34  C   UNL     1       8.438  10.113  18.141  0.00  0.00    +0.000 A 
ATOM     35  C   UNL     1       7.592   9.430  17.274  0.00  0.00    +0.000 A 
ATOM     36  C   UNL     1       7.381   8.066  17.443  0.00  0.00    +0.000 A 
ENDBRANCH  30  31
ENDBRANCH   1  30
TORSDOF 7
ENDMDL
MODEL 7
REMARK VINA RESULT:      -9.3      2.682      4.428
REMARK  Name = 
REMARK  9 active torsions:
REMARK  status: ('A' for Active; 'I' for Inactive)
REMARK    1  A    between atoms: C_1  and  C_2
REMARK    2  A    between atoms: C_9  and  S_10
REMARK    3  A    between atoms: S_10  and  N_13
REMARK    4  A    between atoms: N_13  and  C_14
REMARK    5  A    between atoms: C_14  and  C_15
REMARK    6  A    between atoms: C_14  and  C_22
REMARK    7  A    between atoms: C_15  and  C_16
REMARK    8  A    between atoms: N_24  and  C_25
REMARK    9  A    between atoms: C_29  and  C_30
REMARK                            x       y       z     vdW  Elec       q    Type
REMARK                         _______ _______ _______ _____ _____    ______ ____
ROOT
ATOM      1  C   UNL     1       6.832   5.667  18.141  0.00  0.00    +0.000 C 
ENDROOT
BRANCH   1   2
ATOM      2  C   UNL     1       7.227   5.029  16.766  0.00  0.00    +0.000 C 
ATOM      3  O   UNL     1       8.083   4.137  16.762  0.00  0.00    +0.000 OA
ATOM      4  N   UNL     1       6.556   5.485  15.640  0.00  0.00    +0.000 N 
ATOM      5  H   UNL     1       6.064   6.365  15.708  0.00  0.00    +0.000 HD
BRANCH   4   6
ATOM      6  C   UNL     1       6.715   5.011  14.315  0.00  0.00    +0.000 A 
ATOM      7  C   UNL     1       7.809   5.333  13.513  0.00  0.00    +0.000 A 
ATOM      8  C   UNL     1       7.907   4.839  12.210  0.00  0.00    +0.000 A 
ATOM      9  C   UNL     1       6.911   4.018  11.692  0.00  0.00    +0.000 A 
ATOM     10  C   UNL     1       5.806   3.672  12.476  0.00  0.00    +0.000 A 
ATOM     11  C   UNL     1       4.716   2.811  11.908  0.00  0.00    +0.000 C 
ATOM     12  C   UNL     1       5.721   4.165  13.791  0.00  0.00    +0.000 A 
ENDBRANCH   4   6
ENDBRANCH   1   2
BRANCH   1  13
ATOM     13  N   UNL     1       6.179   4.563  18.902  0.00  0.00    +0.000 NA
ATOM     14  H   UNL     1       6.831   3.923  19.372  0.00  0.00    +0.000 HD
BRANCH  13  15
ATOM     15  S   UNL     1       4.692   3.911  18.524  0.00  0.00    +0.000 S 
ATOM     16  O   UNL     1       4.418   2.814  19.421  0.00  0.00    +0.000 OA
ATOM     17  O   UNL     1       4.670   3.739  17.089  0.00  0.00    +0.000 OA
BRANCH  15  26
ATOM     18  C   UNL     1      -0.018  10.446  20.587  0.00  0.00    +0.000 C 
ATOM     19  C   UNL     1       0.650   9.104  20.765  0.00  0.00    +0.000 C 
ATOM     20  O   UNL     1       0.491   8.474  21.810  0.00  0.00    +0.000 OA
ATOM     21  N   UNL     1       1.404   8.682  19.685  0.00  0.00    +0.000 N 
ATOM     22  C   UNL     1       1.720   9.491  18.496  0.00  0.00    +0.000 C 
ATOM     23  C   UNL     1       2.491   8.603  17.518  0.00  0.00    +0.000 C 
ATOM     24  C   UNL     1       2.742   7.385  18.348  0.00  0.00    +0.000 A 
ATOM     25  C   UNL     1       3.499   6.289  17.992  0.00  0.00    +0.000 A 
ATOM     26  C   UNL     1       3.607   5.251  18.919  0.00  0.00    +0.000 A 
ATOM     27  C   UNL     1       2.927   5.287  20.148  0.00  0.00    +0.000 A 
ATOM     28  C   UNL     1       2.154   6.404  20.483  0.00  0.00    +0.000 A 
ATOM     29  C   UNL     1       2.080   7.455  19.577  0.00  0.00    +0.000 A 
ENDBRANCH  15  26
ENDBRANCH  13  15
ENDBRANCH   1  13
BRANCH   1  30
ATOM     30  C   UNL     1       7.963   6.358  18.913  0.00  0.00    +0.000 C 
BRANCH  30  31
ATOM     31  C   UNL     1       8.133   7.842  18.680  0.00  0.00    +0.000 A 
ATOM     32  C   UNL     1       7.480   8.429  17.587  0.00  0.00    +0.000 A 
ATOM     33  C   UNL     1       7.753   9.749  17.229  0.00  0.00    +0.000 A 
ATOM     34  C   UNL     1       8.663  10.502  17.968  0.00  0.00    +0.000 A 
ATOM     35  C   UNL     1       9.251   9.957  19.104  0.00  0.00    +0.000 A 
ATOM     36  C   UNL     1       8.968   8.646  19.470  0.00  0.00    +0.000 A 
ENDBRANCH  30  31
ENDBRANCH   1  30
TORSDOF 7
ENDMDL
MODEL 8
REMARK VINA RESULT:      -9.3      1.056      1.109
REMARK  Name = 
REMARK  9 active torsions:
REMARK  status: ('A' for Active; 'I' for Inactive)
REMARK    1  A    between atoms: C_1  and  C_2
REMARK    2  A    between atoms: C_9  and  S_10
REMARK    3  A    between atoms: S_10  and  N_13
REMARK    4  A    between atoms: N_13  and  C_14
REMARK    5  A    between atoms: C_14  and  C_15
REMARK    6  A    between atoms: C_14  and  C_22
REMARK    7  A    between atoms: C_15  and  C_16
REMARK    8  A    between atoms: N_24  and  C_25
REMARK    9  A    between atoms: C_29  and  C_30
REMARK                            x       y       z     vdW  Elec       q    Type
REMARK                         _______ _______ _______ _____ _____    ______ ____
ROOT
ATOM      1  C   UNL     1       4.877   4.247  17.932  0.00  0.00    +0.000 C 
ENDROOT
BRANCH   1   2
ATOM      2  C   UNL     1       5.879   4.277  16.728  0.00  0.00    +0.000 C 
ATOM      3  O   UNL     1       7.089   4.258  16.978  0.00  0.00    +0.000 OA
ATOM      4  N   UNL     1       5.335   4.284  15.451  0.00  0.00    +0.000 N 
ATOM      5  H   UNL     1       4.363   4.542  15.354  0.00  0.00    +0.000 HD
BRANCH   4   6
ATOM      6  C   UNL     1       6.052   4.255  14.230  0.00  0.00    +0.000 A 
ATOM      7  C   UNL     1       7.034   5.187  13.897  0.00  0.00    +0.000 A 
ATOM      8  C   UNL     1       7.703   5.110  12.674  0.00  0.00    +0.000 A 
ATOM      9  C   UNL     1       7.397   4.100  11.766  0.00  0.00    +0.000 A 
ATOM     10  C   UNL     1       6.423   3.147  12.078  0.00  0.00    +0.000 A 
ATOM     11  C   UNL     1       6.071   2.075  11.088  0.00  0.00    +0.000 C 
ATOM     12  C   UNL     1       5.762   3.226  13.317  0.00  0.00    +0.000 A 
ENDBRANCH   4   6
ENDBRANCH   1   2
BRANCH   1  13
ATOM     13  N   UNL     1       3.852   5.279  17.601  0.00  0.00    +0.000 NA
ATOM     14  H   UNL     1       3.023   4.919  17.112  0.00  0.00    +0.000 HD
BRANCH  13  15
ATOM     15  S   UNL     1       4.190   6.890  17.334  0.00  0.00    +0.000 S 
ATOM     16  O   UNL     1       3.923   7.203  15.951  0.00  0.00    +0.000 OA
ATOM     17  O   UNL     1       5.481   7.144  17.932  0.00  0.00    +0.000 OA
BRANCH  15  26
ATOM     18  C   UNL     1      -1.177  10.846  22.304  0.00  0.00    +0.000 C 
ATOM     19  C   UNL     1      -0.240   9.745  21.867  0.00  0.00    +0.000 C 
ATOM     20  O   UNL     1      -0.059   8.770  22.595  0.00  0.00    +0.000 OA
ATOM     21  N   UNL     1       0.347   9.938  20.630  0.00  0.00    +0.000 N 
ATOM     22  C   UNL     1       0.253  11.166  19.822  0.00  0.00    +0.000 C 
ATOM     23  C   UNL     1       0.966  10.906  18.494  0.00  0.00    +0.000 C 
ATOM     24  C   UNL     1       1.611   9.582  18.750  0.00  0.00    +0.000 A 
ATOM     25  C   UNL     1       2.477   8.914  17.911  0.00  0.00    +0.000 A 
ATOM     26  C   UNL     1       2.968   7.681  18.341  0.00  0.00    +0.000 A 
ATOM     27  C   UNL     1       2.558   7.106  19.555  0.00  0.00    +0.000 A 
ATOM     28  C   UNL     1       1.668   7.797  20.386  0.00  0.00    +0.000 A 
ATOM     29  C   UNL     1       1.211   9.044  19.975  0.00  0.00    +0.000 A 
ENDBRANCH  15  26
ENDBRANCH  13  15
ENDBRANCH   1  13
BRANCH   1  30
ATOM     30  C   UNL     1       4.279   2.878  18.278  0.00  0.00    +0.000 C 
BRANCH  30  31
ATOM     31  C   UNL     1       3.126   2.872  19.257  0.00  0.00    +0.000 A 
ATOM     32  C   UNL     1       1.822   2.748  18.758  0.00  0.00    +0.000 A 
ATOM     33  C   UNL     1       0.726   2.921  19.602  0.00  0.00    +0.000 A 
ATOM     34  C   UNL     1       0.919   3.199  20.954  0.00  0.00    +0.000 A 
ATOM     35  C   UNL     1       2.207   3.239  21.476  0.00  0.00    +0.000 A 
ATOM     36  C   UNL     1       3.300   3.052  20.637  0.00  0.00    +0.000 A 
ENDBRANCH  30  31
ENDBRANCH   1  30
TORSDOF 7
ENDMDL
MODEL 9
REMARK VINA RESULT:      -9.2      3.262      6.865
REMARK  Name = 
REMARK  9 active torsions:
REMARK  status: ('A' for Active; 'I' for Inactive)
REMARK    1  A    between atoms: C_1  and  C_2
REMARK    2  A    between atoms: C_9  and  S_10
REMARK    3  A    between atoms: S_10  and  N_13
REMARK    4  A    between atoms: N_13  and  C_14
REMARK    5  A    between atoms: C_14  and  C_15
REMARK    6  A    between atoms: C_14  and  C_22
REMARK    7  A    between atoms: C_15  and  C_16
REMARK    8  A    between atoms: N_24  and  C_25
REMARK    9  A    between atoms: C_29  and  C_30
REMARK                            x       y       z     vdW  Elec       q    Type
REMARK                         _______ _______ _______ _____ _____    ______ ____
ROOT
ATOM      1  C   UNL     1       0.600   9.194  19.918  0.00  0.00    +0.000 C 
ENDROOT
BRANCH   1   2
ATOM      2  C   UNL     1       1.625   8.028  19.709  0.00  0.00    +0.000 C 
ATOM      3  O   UNL     1       1.992   7.391  20.703  0.00  0.00    +0.000 OA
ATOM      4  N   UNL     1       2.025   7.761  18.408  0.00  0.00    +0.000 N 
ATOM      5  H   UNL     1       1.866   8.474  17.709  0.00  0.00    +0.000 HD
BRANCH   4   6
ATOM      6  C   UNL     1       2.894   6.724  17.989  0.00  0.00    +0.000 A 
ATOM      7  C   UNL     1       2.510   5.386  17.919  0.00  0.00    +0.000 A 
ATOM      8  C   UNL     1       3.415   4.406  17.504  0.00  0.00    +0.000 A 
ATOM      9  C   UNL     1       4.717   4.753  17.154  0.00  0.00    +0.000 A 
ATOM     10  C   UNL     1       5.126   6.089  17.207  0.00  0.00    +0.000 A 
ATOM     11  C   UNL     1       6.539   6.460  16.860  0.00  0.00    +0.000 C 
ATOM     12  C   UNL     1       4.205   7.070  17.616  0.00  0.00    +0.000 A 
ENDBRANCH   4   6
ENDBRANCH   1   2
BRANCH   1  13
ATOM     13  N   UNL     1       0.983   9.811  21.221  0.00  0.00    +0.000 NA
ATOM     14  H   UNL     1       1.994   9.940  21.353  0.00  0.00    +0.000 HD
BRANCH  13  15
ATOM     15  S   UNL     1       0.095   9.672  22.625  0.00  0.00    +0.000 S 
ATOM     16  O   UNL     1       0.998   9.628  23.750  0.00  0.00    +0.000 OA
ATOM     17  O   UNL     1      -0.878   8.627  22.395  0.00  0.00    +0.000 OA
BRANCH  15  26
ATOM     18  C   UNL     1      -4.223  16.773  22.336  0.00  0.00    +0.000 C 
ATOM     19  C   UNL     1      -3.082  15.827  22.043  0.00  0.00    +0.000 C 
ATOM     20  O   UNL     1      -2.144  16.198  21.340  0.00  0.00    +0.000 OA
ATOM     21  N   UNL     1      -3.197  14.579  22.627  0.00  0.00    +0.000 N 
ATOM     22  C   UNL     1      -4.382  14.077  23.344  0.00  0.00    +0.000 C 
ATOM     23  C   UNL     1      -4.038  12.696  23.904  0.00  0.00    +0.000 C 
ATOM     24  C   UNL     1      -2.718  12.426  23.258  0.00  0.00    +0.000 A 
ATOM     25  C   UNL     1      -1.989  11.259  23.332  0.00  0.00    +0.000 A 
ATOM     26  C   UNL     1      -0.772  11.214  22.652  0.00  0.00    +0.000 A 
ATOM     27  C   UNL     1      -0.271  12.330  21.962  0.00  0.00    +0.000 A 
ATOM     28  C   UNL     1      -1.021  13.510  21.910  0.00  0.00    +0.000 A 
ATOM     29  C   UNL     1      -2.253  13.540  22.554  0.00  0.00    +0.000 A 
ENDBRANCH  15  26
ENDBRANCH  13  15
ENDBRANCH   1  13
BRANCH   1  30
ATOM     30  C   UNL     1       0.488  10.206  18.770  0.00  0.00    +0.000 C 
BRANCH  30  31
ATOM     31  C   UNL     1      -0.904  10.493  18.256  0.00  0.00    +0.000 A 
ATOM     32  C   UNL     1      -1.668  11.478  18.897  0.00  0.00    +0.000 A 
ATOM     33  C   UNL     1      -3.014  11.647  18.575  0.00  0.00    +0.000 A 
ATOM     34  C   UNL     1      -3.607  10.849  17.599  0.00  0.00    +0.000 A 
ATOM     35  C   UNL     1      -2.838   9.927  16.897  0.00  0.00    +0.000 A 
ATOM     36  C   UNL     1      -1.492   9.769  17.208  0.00  0.00    +0.000 A 
ENDBRANCH  30  31
ENDBRANCH   1  30
TORSDOF 7
ENDMDL
