MODEL 1
REMARK VINA RESULT:      -8.2      0.000      0.000
REMARK  Name = 
REMARK  11 active torsions:
REMARK  status: ('A' for Active; 'I' for Inactive)
REMARK    1  A    between atoms: C_2  and  C_3
REMARK    2  A    between atoms: C_2  and  C_11
REMARK    3  A    between atoms: C_7  and  O_8
REMARK    4  A    between atoms: O_8  and  C_9
REMARK    5  A    between atoms: C_17  and  C_18
REMARK    6  A    between atoms: C_18  and  C_19
REMARK    7  A    between atoms: C_19  and  C_20
REMARK    8  A    between atoms: C_20  and  C_21
REMARK    9  A    between atoms: C_21  and  C_22
REMARK   10  A    between atoms: C_22  and  C_23
REMARK   11  A    between atoms: C_24  and  C_25
REMARK                            x       y       z     vdW  Elec       q    Type
REMARK                         _______ _______ _______ _____ _____    ______ ____
ROOT
ATOM      1  C   UNL     1       2.866   4.673  18.180  0.00  0.00    +0.000 C 
ATOM      2  C   UNL     1       1.538   4.112  19.084  0.00  0.00    +0.000 C 
ATOM      3  C   UNL     1       1.591   2.628  19.273  0.00  0.00    +0.000 C 
ATOM      4  C   UNL     1       1.987   2.207  17.905  0.00  0.00    +0.000 C 
ATOM      5  C   UNL     1       2.285   3.542  17.159  0.00  0.00    +0.000 C 
ATOM      6  C   UNL     1       3.253   3.178  16.048  0.00  0.00    +0.000 C 
ATOM      7  C   UNL     1       4.533   3.737  16.516  0.00  0.00    +0.000 C 
ATOM      8  C   UNL     1       4.377   4.482  17.645  0.00  0.00    +0.000 C 
ENDROOT
BRANCH   8   9
ATOM      9  C   UNL     1       5.469   5.495  17.927  0.00  0.00    +0.000 A 
ATOM     10  C   UNL     1       6.517   5.196  18.826  0.00  0.00    +0.000 A 
ATOM     11  C   UNL     1       7.618   6.042  18.992  0.00  0.00    +0.000 A 
ATOM     12  C   UNL     1       7.756   7.156  18.178  0.00  0.00    +0.000 A 
ATOM     13  C   UNL     1       6.739   7.479  17.287  0.00  0.00    +0.000 A 
ATOM     14  C   UNL     1       5.573   6.704  17.234  0.00  0.00    +0.000 A 
ENDBRANCH   8   9
BRANCH   1  16
ATOM     15  C   UNL     1       3.742   5.451  20.406  0.00  0.00    +0.000 C 
ATOM     16  C   UNL     1       2.969   5.750  19.314  0.00  0.00    +0.000 C 
BRANCH  16  17
ATOM     17  C   UNL     1       2.409   7.141  19.190  0.00  0.00    +0.000 A 
ATOM     18  C   UNL     1       2.423   7.784  17.916  0.00  0.00    +0.000 A 
ATOM     19  C   UNL     1       1.830   9.016  17.692  0.00  0.00    +0.000 A 
ATOM     20  C   UNL     1       1.230   9.677  18.743  0.00  0.00    +0.000 A 
ATOM     21  C   UNL     1       1.213   9.105  20.026  0.00  0.00    +0.000 A 
ATOM     22  C   UNL     1       1.791   7.836  20.236  0.00  0.00    +0.000 A 
BRANCH  21  23
ATOM     23  O   UNL     1       0.603   9.912  20.940  0.00  0.00    +0.000 OA
ATOM     24  C   UNL     1       0.162   9.360  22.163  0.00  0.00    +0.000 C 
ENDBRANCH  21  23
ENDBRANCH  16  17
ENDBRANCH   1  16
BRANCH   7  25
ATOM     25  C   UNL     1       5.730   3.602  15.578  0.00  0.00    +0.000 C 
BRANCH  25  26
ATOM     26  C   UNL     1       5.697   4.434  14.285  0.00  0.00    +0.000 C 
BRANCH  26  27
ATOM     27  C   UNL     1       6.597   3.882  13.165  0.00  0.00    +0.000 C 
BRANCH  27  28
ATOM     28  C   UNL     1       5.843   3.092  12.092  0.00  0.00    +0.000 C 
BRANCH  28  29
ATOM     29  C   UNL     1       4.341   3.399  12.116  0.00  0.00    +0.000 C 
ATOM     30  C   UNL     1       3.731   3.333  10.723  0.00  0.00    +0.000 C 
ENDBRANCH  28  29
ENDBRANCH  27  28
ENDBRANCH  26  27
ENDBRANCH  25  26
ENDBRANCH   7  25
TORSDOF 9
ENDMDL
MODEL 2
REMARK VINA RESULT:      -7.5      1.004      1.705
REMARK  Name = 
REMARK  11 active torsions:
REMARK  status: ('A' for Active; 'I' for Inactive)
REMARK    1  A    between atoms: C_2  and  C_3
REMARK    2  A    between atoms: C_2  and  C_11
REMARK    3  A    between atoms: C_7  and  O_8
REMARK    4  A    between atoms: O_8  and  C_9
REMARK    5  A    between atoms: C_17  and  C_18
REMARK    6  A    between atoms: C_18  and  C_19
REMARK    7  A    between atoms: C_19  and  C_20
REMARK    8  A    between atoms: C_20  and  C_21
REMARK    9  A    between atoms: C_21  and  C_22
REMARK   10  A    between atoms: C_22  and  C_23
REMARK   11  A    between atoms: C_24  and  C_25
REMARK                            x       y       z     vdW  Elec       q    Type
REMARK                         _______ _______ _______ _____ _____    ______ ____
ROOT
ATOM      1  C   UNL     1       2.887   4.545  18.284  0.00  0.00    +0.000 C 
ATOM      2  C   UNL     1       1.600   3.941  19.218  0.00  0.00    +0.000 C 
ATOM      3  C   UNL     1       1.681   2.454  19.368  0.00  0.00    +0.000 C 
ATOM      4  C   UNL     1       2.036   2.072  17.977  0.00  0.00    +0.000 C 
ATOM      5  C   UNL     1       2.288   3.430  17.255  0.00  0.00    +0.000 C 
ATOM      6  C   UNL     1       3.222   3.109  16.103  0.00  0.00    +0.000 C 
ATOM      7  C   UNL     1       4.510   3.676  16.542  0.00  0.00    +0.000 C 
ATOM      8  C   UNL     1       4.382   4.391  17.694  0.00  0.00    +0.000 C 
ENDROOT
BRANCH   8   9
ATOM      9  C   UNL     1       5.467   5.414  17.964  0.00  0.00    +0.000 A 
ATOM     10  C   UNL     1       6.540   5.116  18.834  0.00  0.00    +0.000 A 
ATOM     11  C   UNL     1       7.635   5.973  18.986  0.00  0.00    +0.000 A 
ATOM     12  C   UNL     1       7.740   7.098  18.183  0.00  0.00    +0.000 A 
ATOM     13  C   UNL     1       6.699   7.420  17.320  0.00  0.00    +0.000 A 
ATOM     14  C   UNL     1       5.541   6.632  17.284  0.00  0.00    +0.000 A 
ENDBRANCH   8   9
BRANCH   1  16
ATOM     15  C   UNL     1       3.882   5.313  20.464  0.00  0.00    +0.000 C 
ATOM     16  C   UNL     1       3.014   5.595  19.441  0.00  0.00    +0.000 C 
BRANCH  16  17
ATOM     17  C   UNL     1       2.368   6.954  19.402  0.00  0.00    +0.000 A 
ATOM     18  C   UNL     1       1.616   7.398  20.530  0.00  0.00    +0.000 A 
ATOM     19  C   UNL     1       1.084   8.674  20.620  0.00  0.00    +0.000 A 
ATOM     20  C   UNL     1       1.249   9.551  19.568  0.00  0.00    +0.000 A 
ATOM     21  C   UNL     1       1.956   9.156  18.419  0.00  0.00    +0.000 A 
ATOM     22  C   UNL     1       2.521   7.866  18.352  0.00  0.00    +0.000 A 
BRANCH  21  23
ATOM     23  O   UNL     1       1.993  10.141  17.476  0.00  0.00    +0.000 OA
ATOM     24  C   UNL     1       2.225  11.474  17.880  0.00  0.00    +0.000 C 
ENDBRANCH  21  23
ENDBRANCH  16  17
ENDBRANCH   1  16
BRANCH   7  25
ATOM     25  C   UNL     1       5.675   3.583  15.560  0.00  0.00    +0.000 C 
BRANCH  25  26
ATOM     26  C   UNL     1       5.566   4.413  14.270  0.00  0.00    +0.000 C 
BRANCH  26  27
ATOM     27  C   UNL     1       6.508   3.945  13.146  0.00  0.00    +0.000 C 
BRANCH  27  28
ATOM     28  C   UNL     1       5.826   3.082  12.080  0.00  0.00    +0.000 C 
BRANCH  28  29
ATOM     29  C   UNL     1       6.828   2.162  11.373  0.00  0.00    +0.000 C 
ATOM     30  C   UNL     1       6.218   0.805  11.053  0.00  0.00    +0.000 C 
ENDBRANCH  28  29
ENDBRANCH  27  28
ENDBRANCH  26  27
ENDBRANCH  25  26
ENDBRANCH   7  25
TORSDOF 9
ENDMDL
MODEL 3
REMARK VINA RESULT:      -7.3      0.533      1.020
REMARK  Name = 
REMARK  11 active torsions:
REMARK  status: ('A' for Active; 'I' for Inactive)
REMARK    1  A    between atoms: C_2  and  C_3
REMARK    2  A    between atoms: C_2  and  C_11
REMARK    3  A    between atoms: C_7  and  O_8
REMARK    4  A    between atoms: O_8  and  C_9
REMARK    5  A    between atoms: C_17  and  C_18
REMARK    6  A    between atoms: C_18  and  C_19
REMARK    7  A    between atoms: C_19  and  C_20
REMARK    8  A    between atoms: C_20  and  C_21
REMARK    9  A    between atoms: C_21  and  C_22
REMARK   10  A    between atoms: C_22  and  C_23
REMARK   11  A    between atoms: C_24  and  C_25
REMARK                            x       y       z     vdW  Elec       q    Type
REMARK                         _______ _______ _______ _____ _____    ______ ____
ROOT
ATOM      1  C   UNL     1       3.132   4.704  18.001  0.00  0.00    +0.000 C 
ATOM      2  C   UNL     1       1.853   4.240  19.023  0.00  0.00    +0.000 C 
ATOM      3  C   UNL     1       1.866   2.766  19.283  0.00  0.00    +0.000 C 
ATOM      4  C   UNL     1       2.147   2.264  17.913  0.00  0.00    +0.000 C 
ATOM      5  C   UNL     1       2.438   3.549  17.082  0.00  0.00    +0.000 C 
ATOM      6  C   UNL     1       3.310   3.094  15.925  0.00  0.00    +0.000 C 
ATOM      7  C   UNL     1       4.640   3.624  16.274  0.00  0.00    +0.000 C 
ATOM      8  C   UNL     1       4.593   4.427  17.372  0.00  0.00    +0.000 C 
ENDROOT
BRANCH   8   9
ATOM      9  C   UNL     1       5.738   5.409  17.525  0.00  0.00    +0.000 A 
ATOM     10  C   UNL     1       5.669   6.695  16.944  0.00  0.00    +0.000 A 
ATOM     11  C   UNL     1       6.633   7.676  17.193  0.00  0.00    +0.000 A 
ATOM     12  C   UNL     1       7.634   7.434  18.122  0.00  0.00    +0.000 A 
ATOM     13  C   UNL     1       7.730   6.176  18.707  0.00  0.00    +0.000 A 
ATOM     14  C   UNL     1       6.845   5.155  18.338  0.00  0.00    +0.000 A 
ENDBRANCH   8   9
BRANCH   1  16
ATOM     15  C   UNL     1       4.337   5.630  20.005  0.00  0.00    +0.000 C 
ATOM     16  C   UNL     1       3.356   5.828  19.069  0.00  0.00    +0.000 C 
BRANCH  16  17
ATOM     17  C   UNL     1       2.675   7.170  19.016  0.00  0.00    +0.000 A 
ATOM     18  C   UNL     1       2.699   7.913  17.798  0.00  0.00    +0.000 A 
ATOM     19  C   UNL     1       2.006   9.101  17.632  0.00  0.00    +0.000 A 
ATOM     20  C   UNL     1       1.288   9.617  18.690  0.00  0.00    +0.000 A 
ATOM     21  C   UNL     1       1.253   8.943  19.922  0.00  0.00    +0.000 A 
ATOM     22  C   UNL     1       1.936   7.718  20.070  0.00  0.00    +0.000 A 
BRANCH  21  23
ATOM     23  O   UNL     1       0.519   9.614  20.854  0.00  0.00    +0.000 OA
ATOM     24  C   UNL     1       0.767  10.988  21.069  0.00  0.00    +0.000 C 
ENDBRANCH  21  23
ENDBRANCH  16  17
ENDBRANCH   1  16
BRANCH   7  25
ATOM     25  C   UNL     1       5.760   3.396  15.261  0.00  0.00    +0.000 C 
BRANCH  25  26
ATOM     26  C   UNL     1       5.690   4.202  13.954  0.00  0.00    +0.000 C 
BRANCH  26  27
ATOM     27  C   UNL     1       6.425   3.541  12.774  0.00  0.00    +0.000 C 
BRANCH  27  28
ATOM     28  C   UNL     1       5.496   2.866  11.761  0.00  0.00    +0.000 C 
BRANCH  28  29
ATOM     29  C   UNL     1       4.177   3.632  11.607  0.00  0.00    +0.000 C 
ATOM     30  C   UNL     1       3.339   3.086  10.460  0.00  0.00    +0.000 C 
ENDBRANCH  28  29
ENDBRANCH  27  28
ENDBRANCH  26  27
ENDBRANCH  25  26
ENDBRANCH   7  25
TORSDOF 9
ENDMDL
MODEL 4
REMARK VINA RESULT:      -6.7      1.061      1.875
REMARK  Name = 
REMARK  11 active torsions:
REMARK  status: ('A' for Active; 'I' for Inactive)
REMARK    1  A    between atoms: C_2  and  C_3
REMARK    2  A    between atoms: C_2  and  C_11
REMARK    3  A    between atoms: C_7  and  O_8
REMARK    4  A    between atoms: O_8  and  C_9
REMARK    5  A    between atoms: C_17  and  C_18
REMARK    6  A    between atoms: C_18  and  C_19
REMARK    7  A    between atoms: C_19  and  C_20
REMARK    8  A    between atoms: C_20  and  C_21
REMARK    9  A    between atoms: C_21  and  C_22
REMARK   10  A    between atoms: C_22  and  C_23
REMARK   11  A    between atoms: C_24  and  C_25
REMARK                            x       y       z     vdW  Elec       q    Type
REMARK                         _______ _______ _______ _____ _____    ______ ____
ROOT
ATOM      1  C   UNL     1       2.853   4.700  18.258  0.00  0.00    +0.000 C 
ATOM      2  C   UNL     1       1.515   4.120  19.135  0.00  0.00    +0.000 C 
ATOM      3  C   UNL     1       1.547   2.629  19.262  0.00  0.00    +0.000 C 
ATOM      4  C   UNL     1       1.940   2.260  17.878  0.00  0.00    +0.000 C 
ATOM      5  C   UNL     1       2.258   3.621  17.189  0.00  0.00    +0.000 C 
ATOM      6  C   UNL     1       3.222   3.290  16.065  0.00  0.00    +0.000 C 
ATOM      7  C   UNL     1       4.510   3.811  16.558  0.00  0.00    +0.000 C 
ATOM      8  C   UNL     1       4.363   4.510  17.717  0.00  0.00    +0.000 C 
ENDROOT
BRANCH   8   9
ATOM      9  C   UNL     1       5.468   5.494  18.043  0.00  0.00    +0.000 A 
ATOM     10  C   UNL     1       6.471   5.169  18.983  0.00  0.00    +0.000 A 
ATOM     11  C   UNL     1       7.587   5.985  19.193  0.00  0.00    +0.000 A 
ATOM     12  C   UNL     1       7.786   7.095  18.386  0.00  0.00    +0.000 A 
ATOM     13  C   UNL     1       6.814   7.443  17.455  0.00  0.00    +0.000 A 
ATOM     14  C   UNL     1       5.631   6.699  17.355  0.00  0.00    +0.000 A 
ENDBRANCH   8   9
BRANCH   1  16
ATOM     15  C   UNL     1       3.805   5.409  20.476  0.00  0.00    +0.000 C 
ATOM     16  C   UNL     1       2.969   5.726  19.437  0.00  0.00    +0.000 C 
BRANCH  16  17
ATOM     17  C   UNL     1       2.352   7.098  19.406  0.00  0.00    +0.000 A 
ATOM     18  C   UNL     1       1.611   7.552  20.539  0.00  0.00    +0.000 A 
ATOM     19  C   UNL     1       1.106   8.838  20.636  0.00  0.00    +0.000 A 
ATOM     20  C   UNL     1       1.286   9.716  19.588  0.00  0.00    +0.000 A 
ATOM     21  C   UNL     1       1.982   9.313  18.436  0.00  0.00    +0.000 A 
ATOM     22  C   UNL     1       2.521   8.012  18.360  0.00  0.00    +0.000 A 
BRANCH  21  23
ATOM     23  O   UNL     1       2.037  10.302  17.498  0.00  0.00    +0.000 OA
ATOM     24  C   UNL     1       2.390  11.610  17.894  0.00  0.00    +0.000 C 
ENDBRANCH  21  23
ENDBRANCH  16  17
ENDBRANCH   1  16
BRANCH   7  25
ATOM     25  C   UNL     1       5.706   3.698  15.616  0.00  0.00    +0.000 C 
BRANCH  25  26
ATOM     26  C   UNL     1       5.610   4.448  14.278  0.00  0.00    +0.000 C 
BRANCH  26  27
ATOM     27  C   UNL     1       5.415   3.527  13.060  0.00  0.00    +0.000 C 
BRANCH  27  28
ATOM     28  C   UNL     1       6.520   3.645  12.006  0.00  0.00    +0.000 C 
BRANCH  28  29
ATOM     29  C   UNL     1       7.664   4.547  12.486  0.00  0.00    +0.000 C 
ATOM     30  C   UNL     1       7.726   5.846  11.696  0.00  0.00    +0.000 C 
ENDBRANCH  28  29
ENDBRANCH  27  28
ENDBRANCH  26  27
ENDBRANCH  25  26
ENDBRANCH   7  25
TORSDOF 9
ENDMDL
MODEL 5
REMARK VINA RESULT:      -6.5      1.378      4.214
REMARK  Name = 
REMARK  11 active torsions:
REMARK  status: ('A' for Active; 'I' for Inactive)
REMARK    1  A    between atoms: C_2  and  C_3
REMARK    2  A    between atoms: C_2  and  C_11
REMARK    3  A    between atoms: C_7  and  O_8
REMARK    4  A    between atoms: O_8  and  C_9
REMARK    5  A    between atoms: C_17  and  C_18
REMARK    6  A    between atoms: C_18  and  C_19
REMARK    7  A    between atoms: C_19  and  C_20
REMARK    8  A    between atoms: C_20  and  C_21
REMARK    9  A    between atoms: C_21  and  C_22
REMARK   10  A    between atoms: C_22  and  C_23
REMARK   11  A    between atoms: C_24  and  C_25
REMARK                            x       y       z     vdW  Elec       q    Type
REMARK                         _______ _______ _______ _____ _____    ______ ____
ROOT
ATOM      1  C   UNL     1       6.181   5.016  17.712  0.00  0.00    +0.000 C 
ATOM      2  C   UNL     1       7.021   6.258  18.516  0.00  0.00    +0.000 C 
ATOM      3  C   UNL     1       7.028   7.523  17.716  0.00  0.00    +0.000 C 
ATOM      4  C   UNL     1       7.315   6.974  16.366  0.00  0.00    +0.000 C 
ATOM      5  C   UNL     1       7.254   5.428  16.555  0.00  0.00    +0.000 C 
ATOM      6  C   UNL     1       6.912   4.867  15.187  0.00  0.00    +0.000 C 
ATOM      7  C   UNL     1       5.511   4.437  15.337  0.00  0.00    +0.000 C 
ATOM      8  C   UNL     1       5.084   4.543  16.625  0.00  0.00    +0.000 C 
ENDROOT
BRANCH   8   9
ATOM      9  C   UNL     1       3.891   3.687  17.001  0.00  0.00    +0.000 A 
ATOM     10  C   UNL     1       4.072   2.402  17.560  0.00  0.00    +0.000 A 
ATOM     11  C   UNL     1       3.004   1.651  18.060  0.00  0.00    +0.000 A 
ATOM     12  C   UNL     1       1.738   2.214  18.118  0.00  0.00    +0.000 A 
ATOM     13  C   UNL     1       1.528   3.475  17.572  0.00  0.00    +0.000 A 
ATOM     14  C   UNL     1       2.577   4.157  16.942  0.00  0.00    +0.000 A 
ENDBRANCH   8   9
BRANCH   1  16
ATOM     15  C   UNL     1       6.213   4.191  20.088  0.00  0.00    +0.000 C 
ATOM     16  C   UNL     1       5.489   4.811  19.103  0.00  0.00    +0.000 C 
BRANCH  16  17
ATOM     17  C   UNL     1       4.153   5.405  19.460  0.00  0.00    +0.000 A 
ATOM     18  C   UNL     1       3.313   4.717  20.386  0.00  0.00    +0.000 A 
ATOM     19  C   UNL     1       2.120   5.247  20.852  0.00  0.00    +0.000 A 
ATOM     20  C   UNL     1       1.697   6.473  20.382  0.00  0.00    +0.000 A 
ATOM     21  C   UNL     1       2.469   7.180  19.446  0.00  0.00    +0.000 A 
ATOM     22  C   UNL     1       3.698   6.647  19.004  0.00  0.00    +0.000 A 
BRANCH  21  23
ATOM     23  O   UNL     1       1.881   8.354  19.078  0.00  0.00    +0.000 OA
ATOM     24  C   UNL     1       2.154   8.891  17.800  0.00  0.00    +0.000 C 
ENDBRANCH  21  23
ENDBRANCH  16  17
ENDBRANCH   1  16
BRANCH   7  25
ATOM     25  C   UNL     1       4.868   3.749  14.135  0.00  0.00    +0.000 C 
BRANCH  25  26
ATOM     26  C   UNL     1       5.798   3.373  12.970  0.00  0.00    +0.000 C 
BRANCH  26  27
ATOM     27  C   UNL     1       5.054   2.929  11.697  0.00  0.00    +0.000 C 
BRANCH  27  28
ATOM     28  C   UNL     1       4.235   4.041  11.034  0.00  0.00    +0.000 C 
BRANCH  28  29
ATOM     29  C   UNL     1       3.141   3.470  10.124  0.00  0.00    +0.000 C 
ATOM     30  C   UNL     1       2.540   4.541   9.226  0.00  0.00    +0.000 C 
ENDBRANCH  28  29
ENDBRANCH  27  28
ENDBRANCH  26  27
ENDBRANCH  25  26
ENDBRANCH   7  25
TORSDOF 9
ENDMDL
MODEL 6
REMARK VINA RESULT:      -6.4      8.806     10.735
REMARK  Name = 
REMARK  11 active torsions:
REMARK  status: ('A' for Active; 'I' for Inactive)
REMARK    1  A    between atoms: C_2  and  C_3
REMARK    2  A    between atoms: C_2  and  C_11
REMARK    3  A    between atoms: C_7  and  O_8
REMARK    4  A    between atoms: O_8  and  C_9
REMARK    5  A    between atoms: C_17  and  C_18
REMARK    6  A    between atoms: C_18  and  C_19
REMARK    7  A    between atoms: C_19  and  C_20
REMARK    8  A    between atoms: C_20  and  C_21
REMARK    9  A    between atoms: C_21  and  C_22
REMARK   10  A    between atoms: C_22  and  C_23
REMARK   11  A    between atoms: C_24  and  C_25
REMARK                            x       y       z     vdW  Elec       q    Type
REMARK                         _______ _______ _______ _____ _____    ______ ____
ROOT
ATOM      1  C   UNL     1       8.033  13.508  22.121  0.00  0.00    +0.000 C 
ATOM      2  C   UNL     1       6.902  13.258  23.367  0.00  0.00    +0.000 C 
ATOM      3  C   UNL     1       7.490  12.465  24.491  0.00  0.00    +0.000 C 
ATOM      4  C   UNL     1       8.220  11.425  23.721  0.00  0.00    +0.000 C 
ATOM      5  C   UNL     1       8.092  11.882  22.236  0.00  0.00    +0.000 C 
ATOM      6  C   UNL     1       9.281  11.269  21.520  0.00  0.00    +0.000 C 
ATOM      7  C   UNL     1      10.163  12.425  21.275  0.00  0.00    +0.000 C 
ATOM      8  C   UNL     1       9.564  13.599  21.617  0.00  0.00    +0.000 C 
ENDROOT
BRANCH   8   9
ATOM      9  C   UNL     1      10.127  14.845  20.963  0.00  0.00    +0.000 A 
ATOM     10  C   UNL     1       9.768  15.192  19.641  0.00  0.00    +0.000 A 
ATOM     11  C   UNL     1      10.143  16.409  19.064  0.00  0.00    +0.000 A 
ATOM     12  C   UNL     1      10.793  17.362  19.834  0.00  0.00    +0.000 A 
ATOM     13  C   UNL     1      11.164  17.047  21.136  0.00  0.00    +0.000 A 
ATOM     14  C   UNL     1      10.911  15.771  21.655  0.00  0.00    +0.000 A 
ENDBRANCH   8   9
BRANCH   1  16
ATOM     15  C   UNL     1       7.938  15.736  23.284  0.00  0.00    +0.000 C 
ATOM     16  C   UNL     1       7.543  14.994  22.202  0.00  0.00    +0.000 C 
BRANCH  16  17
ATOM     17  C   UNL     1       6.814  15.689  21.083  0.00  0.00    +0.000 A 
ATOM     18  C   UNL     1       6.882  17.111  20.988  0.00  0.00    +0.000 A 
ATOM     19  C   UNL     1       6.334  17.818  19.929  0.00  0.00    +0.000 A 
ATOM     20  C   UNL     1       5.659  17.135  18.939  0.00  0.00    +0.000 A 
ATOM     21  C   UNL     1       5.535  15.737  18.997  0.00  0.00    +0.000 A 
ATOM     22  C   UNL     1       6.126  15.024  20.061  0.00  0.00    +0.000 A 
BRANCH  21  23
ATOM     23  O   UNL     1       4.815  15.241  17.951  0.00  0.00    +0.000 OA
ATOM     24  C   UNL     1       3.632  14.516  18.210  0.00  0.00    +0.000 C 
ENDBRANCH  21  23
ENDBRANCH  16  17
ENDBRANCH   1  16
BRANCH   7  25
ATOM     25  C   UNL     1      11.446  12.159  20.493  0.00  0.00    +0.000 C 
BRANCH  25  26
ATOM     26  C   UNL     1      11.297  11.484  19.119  0.00  0.00    +0.000 C 
BRANCH  26  27
ATOM     27  C   UNL     1      11.540  12.431  17.930  0.00  0.00    +0.000 C 
BRANCH  27  28
ATOM     28  C   UNL     1      10.293  12.700  17.082  0.00  0.00    +0.000 C 
BRANCH  28  29
ATOM     29  C   UNL     1       9.024  12.173  17.762  0.00  0.00    +0.000 C 
ATOM     30  C   UNL     1       7.802  13.002  17.394  0.00  0.00    +0.000 C 
ENDBRANCH  28  29
ENDBRANCH  27  28
ENDBRANCH  26  27
ENDBRANCH  25  26
ENDBRANCH   7  25
TORSDOF 9
ENDMDL
MODEL 7
REMARK VINA RESULT:      -6.4      1.093      1.850
REMARK  Name = 
REMARK  11 active torsions:
REMARK  status: ('A' for Active; 'I' for Inactive)
REMARK    1  A    between atoms: C_2  and  C_3
REMARK    2  A    between atoms: C_2  and  C_11
REMARK    3  A    between atoms: C_7  and  O_8
REMARK    4  A    between atoms: O_8  and  C_9
REMARK    5  A    between atoms: C_17  and  C_18
REMARK    6  A    between atoms: C_18  and  C_19
REMARK    7  A    between atoms: C_19  and  C_20
REMARK    8  A    between atoms: C_20  and  C_21
REMARK    9  A    between atoms: C_21  and  C_22
REMARK   10  A    between atoms: C_22  and  C_23
REMARK   11  A    between atoms: C_24  and  C_25
REMARK                            x       y       z     vdW  Elec       q    Type
REMARK                         _______ _______ _______ _____ _____    ______ ____
ROOT
ATOM      1  C   UNL     1       3.549   4.483  17.804  0.00  0.00    +0.000 C 
ATOM      2  C   UNL     1       2.314   3.805  18.759  0.00  0.00    +0.000 C 
ATOM      3  C   UNL     1       2.450   2.318  18.855  0.00  0.00    +0.000 C 
ATOM      4  C   UNL     1       2.769   1.994  17.441  0.00  0.00    +0.000 C 
ATOM      5  C   UNL     1       2.952   3.383  16.758  0.00  0.00    +0.000 C 
ATOM      6  C   UNL     1       3.856   3.131  15.565  0.00  0.00    +0.000 C 
ATOM      7  C   UNL     1       5.139   3.728  15.980  0.00  0.00    +0.000 C 
ATOM      8  C   UNL     1       5.027   4.399  17.159  0.00  0.00    +0.000 C 
ENDROOT
BRANCH   8   9
ATOM      9  C   UNL     1       6.087   5.448  17.428  0.00  0.00    +0.000 A 
ATOM     10  C   UNL     1       5.942   6.764  16.933  0.00  0.00    +0.000 A 
ATOM     11  C   UNL     1       6.818   7.793  17.291  0.00  0.00    +0.000 A 
ATOM     12  C   UNL     1       7.798   7.560  18.244  0.00  0.00    +0.000 A 
ATOM     13  C   UNL     1       7.968   6.275  18.746  0.00  0.00    +0.000 A 
ATOM     14  C   UNL     1       7.178   5.220  18.271  0.00  0.00    +0.000 A 
ENDBRANCH   8   9
BRANCH   1  16
ATOM     15  C   UNL     1       4.693   5.294  19.892  0.00  0.00    +0.000 C 
ATOM     16  C   UNL     1       3.680   5.497  18.991  0.00  0.00    +0.000 C 
BRANCH  16  17
ATOM     17  C   UNL     1       2.870   6.762  19.095  0.00  0.00    +0.000 A 
ATOM     18  C   UNL     1       2.120   7.010  20.283  0.00  0.00    +0.000 A 
ATOM     19  C   UNL     1       1.439   8.196  20.505  0.00  0.00    +0.000 A 
ATOM     20  C   UNL     1       1.447   9.171  19.529  0.00  0.00    +0.000 A 
ATOM     21  C   UNL     1       2.144   8.968  18.327  0.00  0.00    +0.000 A 
ATOM     22  C   UNL     1       2.862   7.771  18.126  0.00  0.00    +0.000 A 
BRANCH  21  23
ATOM     23  O   UNL     1       2.017  10.025  17.475  0.00  0.00    +0.000 OA
ATOM     24  C   UNL     1       2.078  11.338  17.991  0.00  0.00    +0.000 C 
ENDBRANCH  21  23
ENDBRANCH  16  17
ENDBRANCH   1  16
BRANCH   7  25
ATOM     25  C   UNL     1       6.273   3.706  14.958  0.00  0.00    +0.000 C 
BRANCH  25  26
ATOM     26  C   UNL     1       6.197   4.731  13.814  0.00  0.00    +0.000 C 
BRANCH  26  27
ATOM     27  C   UNL     1       6.590   4.161  12.439  0.00  0.00    +0.000 C 
BRANCH  27  28
ATOM     28  C   UNL     1       6.424   2.643  12.323  0.00  0.00    +0.000 C 
BRANCH  28  29
ATOM     29  C   UNL     1       5.201   2.272  11.476  0.00  0.00    +0.000 C 
ATOM     30  C   UNL     1       4.224   3.432  11.358  0.00  0.00    +0.000 C 
ENDBRANCH  28  29
ENDBRANCH  27  28
ENDBRANCH  26  27
ENDBRANCH  25  26
ENDBRANCH   7  25
TORSDOF 9
ENDMDL
MODEL 8
REMARK VINA RESULT:      -6.3      4.972     11.379
REMARK  Name = 
REMARK  11 active torsions:
REMARK  status: ('A' for Active; 'I' for Inactive)
REMARK    1  A    between atoms: C_2  and  C_3
REMARK    2  A    between atoms: C_2  and  C_11
REMARK    3  A    between atoms: C_7  and  O_8
REMARK    4  A    between atoms: O_8  and  C_9
REMARK    5  A    between atoms: C_17  and  C_18
REMARK    6  A    between atoms: C_18  and  C_19
REMARK    7  A    between atoms: C_19  and  C_20
REMARK    8  A    between atoms: C_20  and  C_21
REMARK    9  A    between atoms: C_21  and  C_22
REMARK   10  A    between atoms: C_22  and  C_23
REMARK   11  A    between atoms: C_24  and  C_25
REMARK                            x       y       z     vdW  Elec       q    Type
REMARK                         _______ _______ _______ _____ _____    ______ ____
ROOT
ATOM      1  C   UNL     1      -2.306  11.160  18.637  0.00  0.00    +0.000 C 
ATOM      2  C   UNL     1      -1.922  10.471  17.129  0.00  0.00    +0.000 C 
ATOM      3  C   UNL     1      -2.664  11.141  16.016  0.00  0.00    +0.000 C 
ATOM      4  C   UNL     1      -4.011  11.254  16.633  0.00  0.00    +0.000 C 
ATOM      5  C   UNL     1      -3.802  10.788  18.105  0.00  0.00    +0.000 C 
ATOM      6  C   UNL     1      -4.909  11.455  18.901  0.00  0.00    +0.000 C 
ATOM      7  C   UNL     1      -4.199  12.500  19.660  0.00  0.00    +0.000 C 
ATOM      8  C   UNL     1      -2.849  12.404  19.511  0.00  0.00    +0.000 C 
ENDROOT
BRANCH   8   9
ATOM      9  C   UNL     1      -2.015  13.055  20.596  0.00  0.00    +0.000 A 
ATOM     10  C   UNL     1      -1.608  14.404  20.484  0.00  0.00    +0.000 A 
ATOM     11  C   UNL     1      -0.973  15.079  21.530  0.00  0.00    +0.000 A 
ATOM     12  C   UNL     1      -0.829  14.456  22.761  0.00  0.00    +0.000 A 
ATOM     13  C   UNL     1      -1.215  13.128  22.901  0.00  0.00    +0.000 A 
ATOM     14  C   UNL     1      -1.716  12.417  21.802  0.00  0.00    +0.000 A 
ENDBRANCH   8   9
BRANCH   1  16
ATOM     15  C   UNL     1      -0.068  12.298  18.481  0.00  0.00    +0.000 C 
ATOM     16  C   UNL     1      -0.753  11.166  18.842  0.00  0.00    +0.000 C 
BRANCH  16  17
ATOM     17  C   UNL     1      -0.007  10.076  19.563  0.00  0.00    +0.000 A 
ATOM     18  C   UNL     1      -0.416   9.709  20.881  0.00  0.00    +0.000 A 
ATOM     19  C   UNL     1       0.143   8.645  21.569  0.00  0.00    +0.000 A 
ATOM     20  C   UNL     1       1.164   7.924  20.985  0.00  0.00    +0.000 A 
ATOM     21  C   UNL     1       1.627   8.260  19.702  0.00  0.00    +0.000 A 
ATOM     22  C   UNL     1       1.028   9.324  18.996  0.00  0.00    +0.000 A 
BRANCH  21  23
ATOM     23  O   UNL     1       2.654   7.457  19.300  0.00  0.00    +0.000 OA
ATOM     24  C   UNL     1       3.079   7.504  17.954  0.00  0.00    +0.000 C 
ENDBRANCH  21  23
ENDBRANCH  16  17
ENDBRANCH   1  16
BRANCH   7  25
ATOM     25  C   UNL     1      -5.031  13.329  20.635  0.00  0.00    +0.000 C 
BRANCH  25  26
ATOM     26  C   UNL     1      -5.482  12.634  21.931  0.00  0.00    +0.000 C 
BRANCH  26  27
ATOM     27  C   UNL     1      -4.948  13.299  23.213  0.00  0.00    +0.000 C 
BRANCH  27  28
ATOM     28  C   UNL     1      -4.552  14.768  23.035  0.00  0.00    +0.000 C 
BRANCH  28  29
ATOM     29  C   UNL     1      -5.366  15.686  23.955  0.00  0.00    +0.000 C 
ATOM     30  C   UNL     1      -6.822  15.771  23.520  0.00  0.00    +0.000 C 
ENDBRANCH  28  29
ENDBRANCH  27  28
ENDBRANCH  26  27
ENDBRANCH  25  26
ENDBRANCH   7  25
TORSDOF 9
ENDMDL
MODEL 9
REMARK VINA RESULT:      -6.3      0.868      1.642
REMARK  Name = 
REMARK  11 active torsions:
REMARK  status: ('A' for Active; 'I' for Inactive)
REMARK    1  A    between atoms: C_2  and  C_3
REMARK    2  A    between atoms: C_2  and  C_11
REMARK    3  A    between atoms: C_7  and  O_8
REMARK    4  A    between atoms: O_8  and  C_9
REMARK    5  A    between atoms: C_17  and  C_18
REMARK    6  A    between atoms: C_18  and  C_19
REMARK    7  A    between atoms: C_19  and  C_20
REMARK    8  A    between atoms: C_20  and  C_21
REMARK    9  A    between atoms: C_21  and  C_22
REMARK   10  A    between atoms: C_22  and  C_23
REMARK   11  A    between atoms: C_24  and  C_25
REMARK                            x       y       z     vdW  Elec       q    Type
REMARK                         _______ _______ _______ _____ _____    ______ ____
ROOT
ATOM      1  C   UNL     1       3.146   4.659  17.947  0.00  0.00    +0.000 C 
ATOM      2  C   UNL     1       1.948   4.109  19.022  0.00  0.00    +0.000 C 
ATOM      3  C   UNL     1       2.028   2.629  19.223  0.00  0.00    +0.000 C 
ATOM      4  C   UNL     1       2.245   2.189  17.820  0.00  0.00    +0.000 C 
ATOM      5  C   UNL     1       2.440   3.514  17.024  0.00  0.00    +0.000 C 
ATOM      6  C   UNL     1       3.257   3.135  15.802  0.00  0.00    +0.000 C 
ATOM      7  C   UNL     1       4.586   3.702  16.094  0.00  0.00    +0.000 C 
ATOM      8  C   UNL     1       4.576   4.461  17.223  0.00  0.00    +0.000 C 
ENDROOT
BRANCH   8   9
ATOM      9  C   UNL     1       5.693   5.479  17.348  0.00  0.00    +0.000 A 
ATOM     10  C   UNL     1       5.567   6.764  16.773  0.00  0.00    +0.000 A 
ATOM     11  C   UNL     1       6.505   7.775  16.999  0.00  0.00    +0.000 A 
ATOM     12  C   UNL     1       7.537   7.563  17.901  0.00  0.00    +0.000 A 
ATOM     13  C   UNL     1       7.690   6.308  18.479  0.00  0.00    +0.000 A 
ATOM     14  C   UNL     1       6.828   5.260  18.131  0.00  0.00    +0.000 A 
ENDBRANCH   8   9
BRANCH   1  16
ATOM     15  C   UNL     1       4.406   5.533  19.942  0.00  0.00    +0.000 C 
ATOM     16  C   UNL     1       3.393   5.751  19.044  0.00  0.00    +0.000 C 
BRANCH  16  17
ATOM     17  C   UNL     1       2.698   7.086  19.057  0.00  0.00    +0.000 A 
ATOM     18  C   UNL     1       2.698   7.879  17.870  0.00  0.00    +0.000 A 
ATOM     19  C   UNL     1       1.990   9.066  17.763  0.00  0.00    +0.000 A 
ATOM     20  C   UNL     1       1.282   9.530  18.852  0.00  0.00    +0.000 A 
ATOM     21  C   UNL     1       1.272   8.805  20.055  0.00  0.00    +0.000 A 
ATOM     22  C   UNL     1       1.968   7.581  20.143  0.00  0.00    +0.000 A 
BRANCH  21  23
ATOM     23  O   UNL     1       0.544   9.429  21.025  0.00  0.00    +0.000 OA
ATOM     24  C   UNL     1      -0.000  10.706  20.764  0.00  0.00    +0.000 C 
ENDBRANCH  21  23
ENDBRANCH  16  17
ENDBRANCH   1  16
BRANCH   7  25
ATOM     25  C   UNL     1       5.651   3.555  15.010  0.00  0.00    +0.000 C 
BRANCH  25  26
ATOM     26  C   UNL     1       5.280   4.041  13.599  0.00  0.00    +0.000 C 
BRANCH  26  27
ATOM     27  C   UNL     1       5.892   3.196  12.467  0.00  0.00    +0.000 C 
BRANCH  27  28
ATOM     28  C   UNL     1       7.310   3.616  12.073  0.00  0.00    +0.000 C 
BRANCH  28  29
ATOM     29  C   UNL     1       7.411   5.131  11.856  0.00  0.00    +0.000 C 
ATOM     30  C   UNL     1       8.431   5.767  12.789  0.00  0.00    +0.000 C 
ENDBRANCH  28  29
ENDBRANCH  27  28
ENDBRANCH  26  27
ENDBRANCH  25  26
ENDBRANCH   7  25
TORSDOF 9
ENDMDL
