MODEL 1
REMARK VINA RESULT:      -6.9      0.000      0.000
REMARK  Name = 
REMARK  8 active torsions:
REMARK  status: ('A' for Active; 'I' for Inactive)
REMARK    1  A    between atoms: C_1  and  C_2
REMARK    2  A    between atoms: C_2  and  C_3
REMARK    3  A    between atoms: C_2  and  C_4
REMARK    4  A    between atoms: C_4  and  C_5
REMARK    5  A    between atoms: C_5  and  C_6
REMARK    6  A    between atoms: C_5  and  C_10
REMARK    7  A    between atoms: N_8  and  O_9
REMARK    8  A    between atoms: N_15  and  C_16
REMARK                            x       y       z     vdW  Elec       q    Type
REMARK                         _______ _______ _______ _____ _____    ______ ____
ROOT
ATOM      1  C   UNL     1       4.883   4.588  16.664  0.00  0.00    +0.000 C 
ATOM      2  O   UNL     1       4.678   3.371  16.723  0.00  0.00    +0.000 OA
ATOM      3  N   UNL     1       3.949   5.502  17.126  0.00  0.00    +0.000 N 
ATOM      4  C   UNL     1       2.749   5.026  17.833  0.00  0.00    +0.000 C 
ATOM      5  C   UNL     1       2.664   5.636  19.247  0.00  0.00    +0.000 C 
ATOM      6  N   UNL     1       2.827   7.103  19.215  0.00  0.00    +0.000 N 
ATOM      7  C   UNL     1       3.977   7.612  18.449  0.00  0.00    +0.000 C 
ATOM      8  C   UNL     1       4.013   6.970  17.047  0.00  0.00    +0.000 C 
ENDROOT
BRANCH   6   9
ATOM      9  C   UNL     1       1.832   7.970  19.630  0.00  0.00    +0.000 A 
ATOM     10  C   UNL     1       1.361   8.981  18.778  0.00  0.00    +0.000 A 
ATOM     11  C   UNL     1       0.359   9.871  19.173  0.00  0.00    +0.000 A 
ATOM     12  C   UNL     1      -0.207   9.770  20.441  0.00  0.00    +0.000 A 
ATOM     13  C   UNL     1       0.248   8.778  21.309  0.00  0.00    +0.000 A 
ATOM     14  C   UNL     1       1.252   7.895  20.904  0.00  0.00    +0.000 A 
ENDBRANCH   6   9
BRANCH   1  15
ATOM     15  C   UNL     1       6.232   5.092  16.161  0.00  0.00    +0.000 C 
BRANCH  15  16
ATOM     16  C   UNL     1       6.511   4.675  14.724  0.00  0.00    +0.000 C 
ATOM     17  O   UNL     1       7.124   5.401  13.938  0.00  0.00    +0.000 OA
ATOM     18  N   UNL     1       6.115   3.405  14.369  0.00  0.00    +0.000 N 
ATOM     19  H   UNL     1       5.230   3.059  14.747  0.00  0.00    +0.000 HD
BRANCH  18  20
ATOM     20  O   UNL     1       6.371   3.068  13.016  0.00  0.00    +0.000 OA
ATOM     21  H   UNL     1       6.963   3.795  12.723  0.00  0.00    +0.000 HD
ENDBRANCH  18  20
ENDBRANCH  15  16
BRANCH  15  22
ATOM     22  C   UNL     1       7.349   4.600  17.113  0.00  0.00    +0.000 C 
BRANCH  22  24
ATOM     23  C   UNL     1       7.622   7.057  17.740  0.00  0.00    +0.000 C 
ATOM     24  C   UNL     1       7.760   5.609  18.210  0.00  0.00    +0.000 C 
ATOM     25  C   UNL     1       6.924   5.431  19.485  0.00  0.00    +0.000 C 
ENDBRANCH  22  24
ENDBRANCH  15  22
ENDBRANCH   1  15
TORSDOF 6
ENDMDL
MODEL 2
REMARK VINA RESULT:      -6.8      1.746      2.971
REMARK  Name = 
REMARK  8 active torsions:
REMARK  status: ('A' for Active; 'I' for Inactive)
REMARK    1  A    between atoms: C_1  and  C_2
REMARK    2  A    between atoms: C_2  and  C_3
REMARK    3  A    between atoms: C_2  and  C_4
REMARK    4  A    between atoms: C_4  and  C_5
REMARK    5  A    between atoms: C_5  and  C_6
REMARK    6  A    between atoms: C_5  and  C_10
REMARK    7  A    between atoms: N_8  and  O_9
REMARK    8  A    between atoms: N_15  and  C_16
REMARK                            x       y       z     vdW  Elec       q    Type
REMARK                         _______ _______ _______ _____ _____    ______ ____
ROOT
ATOM      1  C   UNL     1       4.572   3.651  16.943  0.00  0.00    +0.000 C 
ATOM      2  O   UNL     1       4.271   2.513  17.317  0.00  0.00    +0.000 OA
ATOM      3  N   UNL     1       3.768   4.743  17.229  0.00  0.00    +0.000 N 
ATOM      4  C   UNL     1       2.605   4.581  18.117  0.00  0.00    +0.000 C 
ATOM      5  C   UNL     1       2.708   5.518  19.337  0.00  0.00    +0.000 C 
ATOM      6  N   UNL     1       2.991   6.909  18.930  0.00  0.00    +0.000 N 
ATOM      7  C   UNL     1       4.101   7.094  17.980  0.00  0.00    +0.000 C 
ATOM      8  C   UNL     1       3.948   6.134  16.783  0.00  0.00    +0.000 C 
ENDROOT
BRANCH   6   9
ATOM      9  C   UNL     1       2.118   7.950  19.187  0.00  0.00    +0.000 A 
ATOM     10  C   UNL     1       1.771   8.861  18.177  0.00  0.00    +0.000 A 
ATOM     11  C   UNL     1       0.894   9.923  18.411  0.00  0.00    +0.000 A 
ATOM     12  C   UNL     1       0.331  10.101  19.671  0.00  0.00    +0.000 A 
ATOM     13  C   UNL     1       0.665   9.214  20.694  0.00  0.00    +0.000 A 
ATOM     14  C   UNL     1       1.545   8.157  20.449  0.00  0.00    +0.000 A 
ENDBRANCH   6   9
BRANCH   1  15
ATOM     15  C   UNL     1       5.904   3.874  16.234  0.00  0.00    +0.000 C 
BRANCH  15  16
ATOM     16  C   UNL     1       6.884   4.680  17.075  0.00  0.00    +0.000 C 
ATOM     17  O   UNL     1       7.488   5.655  16.622  0.00  0.00    +0.000 OA
ATOM     18  N   UNL     1       6.999   4.314  18.397  0.00  0.00    +0.000 N 
ATOM     19  H   UNL     1       6.970   3.316  18.619  0.00  0.00    +0.000 HD
BRANCH  18  20
ATOM     20  O   UNL     1       7.941   5.074  19.136  0.00  0.00    +0.000 OA
ATOM     21  H   UNL     1       8.793   4.645  18.900  0.00  0.00    +0.000 HD
ENDBRANCH  18  20
ENDBRANCH  15  16
BRANCH  15  22
ATOM     22  C   UNL     1       5.647   4.556  14.868  0.00  0.00    +0.000 C 
BRANCH  22  24
ATOM     23  C   UNL     1       5.526   3.487  12.556  0.00  0.00    +0.000 C 
ATOM     24  C   UNL     1       6.443   3.960  13.683  0.00  0.00    +0.000 C 
ATOM     25  C   UNL     1       7.441   4.973  13.105  0.00  0.00    +0.000 C 
ENDBRANCH  22  24
ENDBRANCH  15  22
ENDBRANCH   1  15
TORSDOF 6
ENDMDL
MODEL 3
REMARK VINA RESULT:      -6.7      3.216      7.483
REMARK  Name = 
REMARK  8 active torsions:
REMARK  status: ('A' for Active; 'I' for Inactive)
REMARK    1  A    between atoms: C_1  and  C_2
REMARK    2  A    between atoms: C_2  and  C_3
REMARK    3  A    between atoms: C_2  and  C_4
REMARK    4  A    between atoms: C_4  and  C_5
REMARK    5  A    between atoms: C_5  and  C_6
REMARK    6  A    between atoms: C_5  and  C_10
REMARK    7  A    between atoms: N_8  and  O_9
REMARK    8  A    between atoms: N_15  and  C_16
REMARK                            x       y       z     vdW  Elec       q    Type
REMARK                         _______ _______ _______ _____ _____    ______ ____
ROOT
ATOM      1  C   UNL     1       4.493   5.077  19.172  0.00  0.00    +0.000 C 
ATOM      2  O   UNL     1       5.239   5.312  20.128  0.00  0.00    +0.000 OA
ATOM      3  N   UNL     1       4.937   5.196  17.864  0.00  0.00    +0.000 N 
ATOM      4  C   UNL     1       6.358   5.467  17.596  0.00  0.00    +0.000 C 
ATOM      5  C   UNL     1       6.975   4.359  16.719  0.00  0.00    +0.000 C 
ATOM      6  N   UNL     1       6.154   4.098  15.518  0.00  0.00    +0.000 N 
ATOM      7  C   UNL     1       4.713   3.901  15.748  0.00  0.00    +0.000 C 
ATOM      8  C   UNL     1       4.150   5.034  16.630  0.00  0.00    +0.000 C 
ENDROOT
BRANCH   6   9
ATOM      9  C   UNL     1       6.631   4.297  14.236  0.00  0.00    +0.000 A 
ATOM     10  C   UNL     1       7.575   5.301  13.969  0.00  0.00    +0.000 A 
ATOM     11  C   UNL     1       8.070   5.524  12.682  0.00  0.00    +0.000 A 
ATOM     12  C   UNL     1       7.633   4.741  11.617  0.00  0.00    +0.000 A 
ATOM     13  C   UNL     1       6.690   3.741  11.855  0.00  0.00    +0.000 A 
ATOM     14  C   UNL     1       6.200   3.528  13.146  0.00  0.00    +0.000 A 
ENDBRANCH   6   9
BRANCH   1  15
ATOM     15  C   UNL     1       3.086   4.553  19.435  0.00  0.00    +0.000 C 
BRANCH  15  16
ATOM     16  C   UNL     1       2.228   5.548  20.204  0.00  0.00    +0.000 C 
ATOM     17  O   UNL     1       1.260   5.193  20.882  0.00  0.00    +0.000 OA
ATOM     18  N   UNL     1       2.639   6.861  20.172  0.00  0.00    +0.000 N 
ATOM     19  H   UNL     1       3.019   7.220  19.293  0.00  0.00    +0.000 HD
BRANCH  18  20
ATOM     20  O   UNL     1       1.797   7.756  20.880  0.00  0.00    +0.000 OA
ATOM     21  H   UNL     1       2.059   8.630  20.514  0.00  0.00    +0.000 HD
ENDBRANCH  18  20
ENDBRANCH  15  16
BRANCH  15  22
ATOM     22  C   UNL     1       3.175   3.199  20.181  0.00  0.00    +0.000 C 
BRANCH  22  24
ATOM     23  C   UNL     1       1.191   2.293  18.861  0.00  0.00    +0.000 C 
ATOM     24  C   UNL     1       2.583   1.994  19.414  0.00  0.00    +0.000 C 
ATOM     25  C   UNL     1       3.487   1.565  18.250  0.00  0.00    +0.000 C 
ENDBRANCH  22  24
ENDBRANCH  15  22
ENDBRANCH   1  15
TORSDOF 6
ENDMDL
MODEL 4
REMARK VINA RESULT:      -6.7      3.237      7.492
REMARK  Name = 
REMARK  8 active torsions:
REMARK  status: ('A' for Active; 'I' for Inactive)
REMARK    1  A    between atoms: C_1  and  C_2
REMARK    2  A    between atoms: C_2  and  C_3
REMARK    3  A    between atoms: C_2  and  C_4
REMARK    4  A    between atoms: C_4  and  C_5
REMARK    5  A    between atoms: C_5  and  C_6
REMARK    6  A    between atoms: C_5  and  C_10
REMARK    7  A    between atoms: N_8  and  O_9
REMARK    8  A    between atoms: N_15  and  C_16
REMARK                            x       y       z     vdW  Elec       q    Type
REMARK                         _______ _______ _______ _____ _____    ______ ____
ROOT
ATOM      1  C   UNL     1       4.533   5.136  19.143  0.00  0.00    +0.000 C 
ATOM      2  O   UNL     1       5.292   5.424  20.074  0.00  0.00    +0.000 OA
ATOM      3  N   UNL     1       4.943   5.228  17.822  0.00  0.00    +0.000 N 
ATOM      4  C   UNL     1       6.348   5.533  17.512  0.00  0.00    +0.000 C 
ATOM      5  C   UNL     1       6.978   4.417  16.654  0.00  0.00    +0.000 C 
ATOM      6  N   UNL     1       6.139   4.094  15.482  0.00  0.00    +0.000 N 
ATOM      7  C   UNL     1       4.710   3.861  15.753  0.00  0.00    +0.000 C 
ATOM      8  C   UNL     1       4.133   5.004  16.612  0.00  0.00    +0.000 C 
ENDROOT
BRANCH   6   9
ATOM      9  C   UNL     1       6.579   4.268  14.183  0.00  0.00    +0.000 A 
ATOM     10  C   UNL     1       6.096   3.453  13.147  0.00  0.00    +0.000 A 
ATOM     11  C   UNL     1       6.527   3.606  11.827  0.00  0.00    +0.000 A 
ATOM     12  C   UNL     1       7.457   4.590  11.503  0.00  0.00    +0.000 A 
ATOM     13  C   UNL     1       7.957   5.408  12.516  0.00  0.00    +0.000 A 
ATOM     14  C   UNL     1       7.521   5.245  13.833  0.00  0.00    +0.000 A 
ENDBRANCH   6   9
BRANCH   1  15
ATOM     15  C   UNL     1       3.148   4.579  19.456  0.00  0.00    +0.000 C 
BRANCH  15  16
ATOM     16  C   UNL     1       2.334   5.507  20.346  0.00  0.00    +0.000 C 
ATOM     17  O   UNL     1       1.551   5.078  21.197  0.00  0.00    +0.000 OA
ATOM     18  N   UNL     1       2.579   6.854  20.210  0.00  0.00    +0.000 N 
ATOM     19  H   UNL     1       2.753   7.214  19.269  0.00  0.00    +0.000 HD
BRANCH  18  20
ATOM     20  O   UNL     1       1.781   7.682  21.040  0.00  0.00    +0.000 OA
ATOM     21  H   UNL     1       1.441   8.353  20.408  0.00  0.00    +0.000 HD
ENDBRANCH  18  20
ENDBRANCH  15  16
BRANCH  15  22
ATOM     22  C   UNL     1       3.295   3.176  20.096  0.00  0.00    +0.000 C 
BRANCH  22  24
ATOM     23  C   UNL     1       1.427   2.485  18.503  0.00  0.00    +0.000 C 
ATOM     24  C   UNL     1       2.654   2.023  19.289  0.00  0.00    +0.000 C 
ATOM     25  C   UNL     1       3.653   1.398  18.305  0.00  0.00    +0.000 C 
ENDBRANCH  22  24
ENDBRANCH  15  22
ENDBRANCH   1  15
TORSDOF 6
ENDMDL
MODEL 5
REMARK VINA RESULT:      -6.6      2.146      3.182
REMARK  Name = 
REMARK  8 active torsions:
REMARK  status: ('A' for Active; 'I' for Inactive)
REMARK    1  A    between atoms: C_1  and  C_2
REMARK    2  A    between atoms: C_2  and  C_3
REMARK    3  A    between atoms: C_2  and  C_4
REMARK    4  A    between atoms: C_4  and  C_5
REMARK    5  A    between atoms: C_5  and  C_6
REMARK    6  A    between atoms: C_5  and  C_10
REMARK    7  A    between atoms: N_8  and  O_9
REMARK    8  A    between atoms: N_15  and  C_16
REMARK                            x       y       z     vdW  Elec       q    Type
REMARK                         _______ _______ _______ _____ _____    ______ ____
ROOT
ATOM      1  C   UNL     1       3.343   5.296  19.615  0.00  0.00    +0.000 C 
ATOM      2  O   UNL     1       3.394   4.648  20.665  0.00  0.00    +0.000 OA
ATOM      3  N   UNL     1       2.364   6.255  19.404  0.00  0.00    +0.000 N 
ATOM      4  C   UNL     1       1.451   6.620  20.499  0.00  0.00    +0.000 C 
ATOM      5  C   UNL     1       1.542   8.127  20.814  0.00  0.00    +0.000 C 
ATOM      6  N   UNL     1       1.406   8.945  19.592  0.00  0.00    +0.000 N 
ATOM      7  C   UNL     1       2.253   8.554  18.452  0.00  0.00    +0.000 C 
ATOM      8  C   UNL     1       2.123   7.040  18.183  0.00  0.00    +0.000 C 
ENDROOT
BRANCH   6   9
ATOM      9  C   UNL     1       0.369   9.841  19.409  0.00  0.00    +0.000 A 
ATOM     10  C   UNL     1      -0.284   9.940  18.171  0.00  0.00    +0.000 A 
ATOM     11  C   UNL     1      -1.333  10.839  17.960  0.00  0.00    +0.000 A 
ATOM     12  C   UNL     1      -1.764  11.667  18.992  0.00  0.00    +0.000 A 
ATOM     13  C   UNL     1      -1.126  11.593  20.231  0.00  0.00    +0.000 A 
ATOM     14  C   UNL     1      -0.077  10.692  20.430  0.00  0.00    +0.000 A 
ENDBRANCH   6   9
BRANCH   1  15
ATOM     15  C   UNL     1       4.434   5.105  18.567  0.00  0.00    +0.000 C 
BRANCH  15  16
ATOM     16  C   UNL     1       4.289   3.795  17.806  0.00  0.00    +0.000 C 
ATOM     17  O   UNL     1       4.221   3.755  16.575  0.00  0.00    +0.000 OA
ATOM     18  N   UNL     1       4.321   2.644  18.561  0.00  0.00    +0.000 N 
ATOM     19  H   UNL     1       3.857   2.659  19.472  0.00  0.00    +0.000 HD
BRANCH  18  20
ATOM     20  O   UNL     1       4.156   1.449  17.815  0.00  0.00    +0.000 OA
ATOM     21  H   UNL     1       5.052   1.049  17.852  0.00  0.00    +0.000 HD
ENDBRANCH  18  20
ENDBRANCH  15  16
BRANCH  15  22
ATOM     22  C   UNL     1       5.821   5.204  19.250  0.00  0.00    +0.000 C 
BRANCH  22  24
ATOM     23  C   UNL     1       7.699   4.639  17.619  0.00  0.00    +0.000 C 
ATOM     24  C   UNL     1       6.951   5.754  18.349  0.00  0.00    +0.000 C 
ATOM     25  C   UNL     1       6.411   6.742  17.305  0.00  0.00    +0.000 C 
ENDBRANCH  22  24
ENDBRANCH  15  22
ENDBRANCH   1  15
TORSDOF 6
ENDMDL
MODEL 6
REMARK VINA RESULT:      -6.6      2.510      3.710
REMARK  Name = 
REMARK  8 active torsions:
REMARK  status: ('A' for Active; 'I' for Inactive)
REMARK    1  A    between atoms: C_1  and  C_2
REMARK    2  A    between atoms: C_2  and  C_3
REMARK    3  A    between atoms: C_2  and  C_4
REMARK    4  A    between atoms: C_4  and  C_5
REMARK    5  A    between atoms: C_5  and  C_6
REMARK    6  A    between atoms: C_5  and  C_10
REMARK    7  A    between atoms: N_8  and  O_9
REMARK    8  A    between atoms: N_15  and  C_16
REMARK                            x       y       z     vdW  Elec       q    Type
REMARK                         _______ _______ _______ _____ _____    ______ ____
ROOT
ATOM      1  C   UNL     1       2.992   5.175  19.649  0.00  0.00    +0.000 C 
ATOM      2  O   UNL     1       2.939   4.635  20.758  0.00  0.00    +0.000 OA
ATOM      3  N   UNL     1       2.199   6.269  19.339  0.00  0.00    +0.000 N 
ATOM      4  C   UNL     1       1.378   6.897  20.387  0.00  0.00    +0.000 C 
ATOM      5  C   UNL     1       1.742   8.387  20.552  0.00  0.00    +0.000 C 
ATOM      6  N   UNL     1       1.741   9.092  19.254  0.00  0.00    +0.000 N 
ATOM      7  C   UNL     1       2.490   8.446  18.164  0.00  0.00    +0.000 C 
ATOM      8  C   UNL     1       2.088   6.961  18.044  0.00  0.00    +0.000 C 
ENDROOT
BRANCH   6   9
ATOM      9  C   UNL     1       0.879  10.138  18.978  0.00  0.00    +0.000 A 
ATOM     10  C   UNL     1      -0.471   9.895  18.679  0.00  0.00    +0.000 A 
ATOM     11  C   UNL     1      -1.362  10.933  18.394  0.00  0.00    +0.000 A 
ATOM     12  C   UNL     1      -0.924  12.254  18.405  0.00  0.00    +0.000 A 
ATOM     13  C   UNL     1       0.415  12.522  18.693  0.00  0.00    +0.000 A 
ATOM     14  C   UNL     1       1.297  11.475  18.974  0.00  0.00    +0.000 A 
ENDBRANCH   6   9
BRANCH   1  15
ATOM     15  C   UNL     1       4.019   4.689  18.632  0.00  0.00    +0.000 C 
BRANCH  15  16
ATOM     16  C   UNL     1       4.232   3.184  18.692  0.00  0.00    +0.000 C 
ATOM     17  O   UNL     1       3.827   2.428  17.805  0.00  0.00    +0.000 OA
ATOM     18  N   UNL     1       4.975   2.713  19.751  0.00  0.00    +0.000 N 
ATOM     19  H   UNL     1       4.842   3.160  20.661  0.00  0.00    +0.000 HD
BRANCH  18  20
ATOM     20  O   UNL     1       5.126   1.304  19.781  0.00  0.00    +0.000 OA
ATOM     21  H   UNL     1       4.875   1.042  18.869  0.00  0.00    +0.000 HD
ENDBRANCH  18  20
ENDBRANCH  15  16
BRANCH  15  22
ATOM     22  C   UNL     1       5.351   5.451  18.847  0.00  0.00    +0.000 C 
BRANCH  22  24
ATOM     23  C   UNL     1       7.260   6.572  17.583  0.00  0.00    +0.000 C 
ATOM     24  C   UNL     1       5.745   6.407  17.698  0.00  0.00    +0.000 C 
ATOM     25  C   UNL     1       5.206   5.920  16.346  0.00  0.00    +0.000 C 
ENDBRANCH  22  24
ENDBRANCH  15  22
ENDBRANCH   1  15
TORSDOF 6
ENDMDL
MODEL 7
REMARK VINA RESULT:      -6.6      2.200      3.326
REMARK  Name = 
REMARK  8 active torsions:
REMARK  status: ('A' for Active; 'I' for Inactive)
REMARK    1  A    between atoms: C_1  and  C_2
REMARK    2  A    between atoms: C_2  and  C_3
REMARK    3  A    between atoms: C_2  and  C_4
REMARK    4  A    between atoms: C_4  and  C_5
REMARK    5  A    between atoms: C_5  and  C_6
REMARK    6  A    between atoms: C_5  and  C_10
REMARK    7  A    between atoms: N_8  and  O_9
REMARK    8  A    between atoms: N_15  and  C_16
REMARK                            x       y       z     vdW  Elec       q    Type
REMARK                         _______ _______ _______ _____ _____    ______ ____
ROOT
ATOM      1  C   UNL     1       3.281   5.249  19.649  0.00  0.00    +0.000 C 
ATOM      2  O   UNL     1       3.316   4.617  20.710  0.00  0.00    +0.000 OA
ATOM      3  N   UNL     1       2.328   6.231  19.425  0.00  0.00    +0.000 N 
ATOM      4  C   UNL     1       1.426   6.638  20.514  0.00  0.00    +0.000 C 
ATOM      5  C   UNL     1       1.559   8.146  20.805  0.00  0.00    +0.000 C 
ATOM      6  N   UNL     1       1.443   8.949  19.570  0.00  0.00    +0.000 N 
ATOM      7  C   UNL     1       2.277   8.516  18.436  0.00  0.00    +0.000 C 
ATOM      8  C   UNL     1       2.107   7.003  18.191  0.00  0.00    +0.000 C 
ENDROOT
BRANCH   6   9
ATOM      9  C   UNL     1       0.431   9.869  19.375  0.00  0.00    +0.000 A 
ATOM     10  C   UNL     1       0.099  10.795  20.377  0.00  0.00    +0.000 A 
ATOM     11  C   UNL     1      -0.921  11.733  20.205  0.00  0.00    +0.000 A 
ATOM     12  C   UNL     1      -1.642  11.775  19.015  0.00  0.00    +0.000 A 
ATOM     13  C   UNL     1      -1.337  10.861  18.007  0.00  0.00    +0.000 A 
ATOM     14  C   UNL     1      -0.316   9.926  18.190  0.00  0.00    +0.000 A 
ENDBRANCH   6   9
BRANCH   1  15
ATOM     15  C   UNL     1       4.365   5.012  18.604  0.00  0.00    +0.000 C 
BRANCH  15  16
ATOM     16  C   UNL     1       4.181   3.696  17.861  0.00  0.00    +0.000 C 
ATOM     17  O   UNL     1       3.995   3.652  16.642  0.00  0.00    +0.000 OA
ATOM     18  N   UNL     1       4.315   2.549  18.609  0.00  0.00    +0.000 N 
ATOM     19  H   UNL     1       3.942   2.555  19.561  0.00  0.00    +0.000 HD
BRANCH  18  20
ATOM     20  O   UNL     1       4.110   1.348  17.883  0.00  0.00    +0.000 OA
ATOM     21  H   UNL     1       4.019   0.680  18.598  0.00  0.00    +0.000 HD
ENDBRANCH  18  20
ENDBRANCH  15  16
BRANCH  15  22
ATOM     22  C   UNL     1       5.755   5.080  19.284  0.00  0.00    +0.000 C 
BRANCH  22  24
ATOM     23  C   UNL     1       7.658   4.615  17.652  0.00  0.00    +0.000 C 
ATOM     24  C   UNL     1       6.877   5.687  18.411  0.00  0.00    +0.000 C 
ATOM     25  C   UNL     1       6.320   6.694  17.394  0.00  0.00    +0.000 C 
ENDBRANCH  22  24
ENDBRANCH  15  22
ENDBRANCH   1  15
TORSDOF 6
ENDMDL
MODEL 8
REMARK VINA RESULT:      -6.6      3.141      7.183
REMARK  Name = 
REMARK  8 active torsions:
REMARK  status: ('A' for Active; 'I' for Inactive)
REMARK    1  A    between atoms: C_1  and  C_2
REMARK    2  A    between atoms: C_2  and  C_3
REMARK    3  A    between atoms: C_2  and  C_4
REMARK    4  A    between atoms: C_4  and  C_5
REMARK    5  A    between atoms: C_5  and  C_6
REMARK    6  A    between atoms: C_5  and  C_10
REMARK    7  A    between atoms: N_8  and  O_9
REMARK    8  A    between atoms: N_15  and  C_16
REMARK                            x       y       z     vdW  Elec       q    Type
REMARK                         _______ _______ _______ _____ _____    ______ ____
ROOT
ATOM      1  C   UNL     1       4.761   4.917  19.186  0.00  0.00    +0.000 C 
ATOM      2  O   UNL     1       5.345   5.651  19.989  0.00  0.00    +0.000 OA
ATOM      3  N   UNL     1       5.026   4.978  17.827  0.00  0.00    +0.000 N 
ATOM      4  C   UNL     1       6.123   5.826  17.333  0.00  0.00    +0.000 C 
ATOM      5  C   UNL     1       7.155   4.991  16.548  0.00  0.00    +0.000 C 
ATOM      6  N   UNL     1       6.505   4.153  15.520  0.00  0.00    +0.000 N 
ATOM      7  C   UNL     1       5.354   3.352  15.969  0.00  0.00    +0.000 C 
ATOM      8  C   UNL     1       4.357   4.235  16.746  0.00  0.00    +0.000 C 
ENDROOT
BRANCH   6   9
ATOM      9  C   UNL     1       6.761   4.303  14.169  0.00  0.00    +0.000 A 
ATOM     10  C   UNL     1       6.158   3.456  13.226  0.00  0.00    +0.000 A 
ATOM     11  C   UNL     1       6.401   3.586  11.857  0.00  0.00    +0.000 A 
ATOM     12  C   UNL     1       7.259   4.577  11.388  0.00  0.00    +0.000 A 
ATOM     13  C   UNL     1       7.877   5.427  12.306  0.00  0.00    +0.000 A 
ATOM     14  C   UNL     1       7.627   5.287  13.673  0.00  0.00    +0.000 A 
ENDBRANCH   6   9
BRANCH   1  15
ATOM     15  C   UNL     1       3.799   3.856  19.709  0.00  0.00    +0.000 C 
BRANCH  15  16
ATOM     16  C   UNL     1       4.371   2.450  19.609  0.00  0.00    +0.000 C 
ATOM     17  O   UNL     1       5.201   2.021  20.414  0.00  0.00    +0.000 OA
ATOM     18  N   UNL     1       3.851   1.648  18.619  0.00  0.00    +0.000 N 
ATOM     19  H   UNL     1       3.634   2.082  17.719  0.00  0.00    +0.000 HD
BRANCH  18  20
ATOM     20  O   UNL     1       4.431   0.356  18.545  0.00  0.00    +0.000 OA
ATOM     21  H   UNL     1       5.129   0.474  17.864  0.00  0.00    +0.000 HD
ENDBRANCH  18  20
ENDBRANCH  15  16
BRANCH  15  22
ATOM     22  C   UNL     1       2.454   3.968  18.950  0.00  0.00    +0.000 C 
BRANCH  22  24
ATOM     23  C   UNL     1       1.009   3.061  20.845  0.00  0.00    +0.000 C 
ATOM     24  C   UNL     1       1.217   4.200  19.848  0.00  0.00    +0.000 C 
ATOM     25  C   UNL     1       1.326   5.517  20.631  0.00  0.00    +0.000 C 
ENDBRANCH  22  24
ENDBRANCH  15  22
ENDBRANCH   1  15
TORSDOF 6
ENDMDL
MODEL 9
REMARK VINA RESULT:      -6.6      1.845      3.139
REMARK  Name = 
REMARK  8 active torsions:
REMARK  status: ('A' for Active; 'I' for Inactive)
REMARK    1  A    between atoms: C_1  and  C_2
REMARK    2  A    between atoms: C_2  and  C_3
REMARK    3  A    between atoms: C_2  and  C_4
REMARK    4  A    between atoms: C_4  and  C_5
REMARK    5  A    between atoms: C_5  and  C_6
REMARK    6  A    between atoms: C_5  and  C_10
REMARK    7  A    between atoms: N_8  and  O_9
REMARK    8  A    between atoms: N_15  and  C_16
REMARK                            x       y       z     vdW  Elec       q    Type
REMARK                         _______ _______ _______ _____ _____    ______ ____
ROOT
ATOM      1  C   UNL     1       4.312   3.780  17.309  0.00  0.00    +0.000 C 
ATOM      2  O   UNL     1       3.935   2.652  17.643  0.00  0.00    +0.000 OA
ATOM      3  N   UNL     1       3.527   4.901  17.535  0.00  0.00    +0.000 N 
ATOM      4  C   UNL     1       2.284   4.778  18.313  0.00  0.00    +0.000 C 
ATOM      5  C   UNL     1       2.313   5.701  19.548  0.00  0.00    +0.000 C 
ATOM      6  N   UNL     1       2.684   7.083  19.182  0.00  0.00    +0.000 N 
ATOM      7  C   UNL     1       3.881   7.232  18.337  0.00  0.00    +0.000 C 
ATOM      8  C   UNL     1       3.799   6.287  17.121  0.00  0.00    +0.000 C 
ENDROOT
BRANCH   6   9
ATOM      9  C   UNL     1       1.831   8.155  19.371  0.00  0.00    +0.000 A 
ATOM     10  C   UNL     1       1.254   8.400  20.627  0.00  0.00    +0.000 A 
ATOM     11  C   UNL     1       0.388   9.475  20.843  0.00  0.00    +0.000 A 
ATOM     12  C   UNL     1       0.076  10.344  19.801  0.00  0.00    +0.000 A 
ATOM     13  C   UNL     1       0.631  10.118  18.542  0.00  0.00    +0.000 A 
ATOM     14  C   UNL     1       1.495   9.039  18.337  0.00  0.00    +0.000 A 
ENDBRANCH   6   9
BRANCH   1  15
ATOM     15  C   UNL     1       5.709   3.957  16.724  0.00  0.00    +0.000 C 
BRANCH  15  16
ATOM     16  C   UNL     1       6.650   4.685  17.674  0.00  0.00    +0.000 C 
ATOM     17  O   UNL     1       7.564   5.405  17.265  0.00  0.00    +0.000 OA
ATOM     18  N   UNL     1       6.377   4.563  19.017  0.00  0.00    +0.000 N 
ATOM     19  H   UNL     1       6.051   3.656  19.357  0.00  0.00    +0.000 HD
BRANCH  18  20
ATOM     20  O   UNL     1       7.294   5.235  19.865  0.00  0.00    +0.000 OA
ATOM     21  H   UNL     1       7.526   6.032  19.339  0.00  0.00    +0.000 HD
ENDBRANCH  18  20
ENDBRANCH  15  16
BRANCH  15  22
ATOM     22  C   UNL     1       5.605   4.694  15.366  0.00  0.00    +0.000 C 
BRANCH  22  24
ATOM     23  C   UNL     1       5.530   3.615  13.057  0.00  0.00    +0.000 C 
ATOM     24  C   UNL     1       6.421   4.059  14.217  0.00  0.00    +0.000 C 
ATOM     25  C   UNL     1       7.480   5.027  13.673  0.00  0.00    +0.000 C 
ENDBRANCH  22  24
ENDBRANCH  15  22
ENDBRANCH   1  15
TORSDOF 6
ENDMDL
