MODEL 1
REMARK VINA RESULT:      -7.3      0.000      0.000
REMARK  Name = 
REMARK  7 active torsions:
REMARK  status: ('A' for Active; 'I' for Inactive)
REMARK    1  A    between atoms: C_1  and  N_2
REMARK    2  A    between atoms: C_11  and  C_12
REMARK    3  A    between atoms: C_11  and  N_15
REMARK    4  A    between atoms: C_12  and  O_14
REMARK    5  A    between atoms: C_18  and  C_19
REMARK    6  A    between atoms: C_19  and  C_20
REMARK    7  A    between atoms: C_19  and  C_21
REMARK                            x       y       z     vdW  Elec       q    Type
REMARK                         _______ _______ _______ _____ _____    ______ ____
ROOT
ATOM      1  C   UNL     1      -1.600  11.414  23.089  0.00  0.00    +0.000 C 
ATOM      2  N   UNL     1      -0.491  10.563  22.738  0.00  0.00    +0.000 N 
ATOM      3  C   UNL     1      -0.021  10.535  21.440  0.00  0.00    +0.000 A 
ATOM      4  C   UNL     1      -0.088  11.600  20.577  0.00  0.00    +0.000 A 
ATOM      5  C   UNL     1       0.457  11.408  19.333  0.00  0.00    +0.000 A 
ATOM      6  N   UNL     1       1.052  10.269  18.962  0.00  0.00    +0.000 NA
ATOM      7  C   UNL     1       1.105   9.281  19.867  0.00  0.00    +0.000 A 
ATOM      8  N   UNL     1       1.668   8.076  19.506  0.00  0.00    +0.000 N 
ATOM      9  C   UNL     1       2.307   7.980  18.212  0.00  0.00    +0.000 C 
ATOM     10  C   UNL     1       2.070   6.571  17.690  0.00  0.00    +0.000 C 
ATOM     11  C   UNL     1       2.470   5.461  18.701  0.00  0.00    +0.000 C 
ATOM     12  C   UNL     1       1.902   5.762  20.115  0.00  0.00    +0.000 C 
ATOM     13  C   UNL     1       2.161   7.197  20.551  0.00  0.00    +0.000 C 
ATOM     14  N   UNL     1       0.572   9.389  21.091  0.00  0.00    +0.000 NA
ATOM     15  H   UNL     1      -0.526   9.604  23.074  0.00  0.00    +0.000 HD
ENDROOT
BRANCH  11  16
ATOM     16  N   UNL     1       3.937   5.283  18.768  0.00  0.00    +0.000 N 
ATOM     17  C   UNL     1       4.666   4.507  19.625  0.00  0.00    +0.000 A 
ATOM     18  C   UNL     1       5.975   4.599  19.231  0.00  0.00    +0.000 A 
ATOM     19  C   UNL     1       5.968   5.473  18.125  0.00  0.00    +0.000 A 
ATOM     20  N   UNL     1       4.731   5.939  17.874  0.00  0.00    +0.000 NA
BRANCH  19  21
ATOM     21  C   UNL     1       7.171   5.856  17.306  0.00  0.00    +0.000 C 
ATOM     22  C   UNL     1       6.991   5.519  15.826  0.00  0.00    +0.000 C 
ATOM     23  C   UNL     1       7.557   7.321  17.494  0.00  0.00    +0.000 C 
ENDBRANCH  19  21
ENDBRANCH  11  16
BRANCH  11  24
ATOM     24  C   UNL     1       1.781   4.168  18.226  0.00  0.00    +0.000 C 
ATOM     25  O   UNL     1       1.819   3.754  17.075  0.00  0.00    +0.000 OA
BRANCH  24  26
ATOM     26  O   UNL     1       1.033   3.520  19.152  0.00  0.00    +0.000 OA
ATOM     27  H   UNL     1       0.427   2.847  18.754  0.00  0.00    +0.000 HD
ENDBRANCH  24  26
ENDBRANCH  11  24
TORSDOF 4
ENDMDL
MODEL 2
REMARK VINA RESULT:      -6.9      3.457      8.557
REMARK  Name = 
REMARK  7 active torsions:
REMARK  status: ('A' for Active; 'I' for Inactive)
REMARK    1  A    between atoms: C_1  and  N_2
REMARK    2  A    between atoms: C_11  and  C_12
REMARK    3  A    between atoms: C_11  and  N_15
REMARK    4  A    between atoms: C_12  and  O_14
REMARK    5  A    between atoms: C_18  and  C_19
REMARK    6  A    between atoms: C_19  and  C_20
REMARK    7  A    between atoms: C_19  and  C_21
REMARK                            x       y       z     vdW  Elec       q    Type
REMARK                         _______ _______ _______ _____ _____    ______ ____
ROOT
ATOM      1  C   UNL     1       6.898   1.302  10.780  0.00  0.00    +0.000 C 
ATOM      2  N   UNL     1       6.132   2.026  11.762  0.00  0.00    +0.000 N 
ATOM      3  C   UNL     1       6.597   3.227  12.259  0.00  0.00    +0.000 A 
ATOM      4  C   UNL     1       7.392   4.094  11.550  0.00  0.00    +0.000 A 
ATOM      5  C   UNL     1       7.736   5.259  12.186  0.00  0.00    +0.000 A 
ATOM      6  N   UNL     1       7.315   5.575  13.416  0.00  0.00    +0.000 NA
ATOM      7  C   UNL     1       6.519   4.693  14.037  0.00  0.00    +0.000 A 
ATOM      8  N   UNL     1       6.102   4.961  15.323  0.00  0.00    +0.000 N 
ATOM      9  C   UNL     1       6.426   6.252  15.891  0.00  0.00    +0.000 C 
ATOM     10  C   UNL     1       6.675   6.045  17.377  0.00  0.00    +0.000 C 
ATOM     11  C   UNL     1       5.527   5.283  18.097  0.00  0.00    +0.000 C 
ATOM     12  C   UNL     1       5.112   4.016  17.299  0.00  0.00    +0.000 C 
ATOM     13  C   UNL     1       4.907   4.304  15.819  0.00  0.00    +0.000 C 
ATOM     14  N   UNL     1       6.161   3.525  13.487  0.00  0.00    +0.000 NA
ATOM     15  H   UNL     1       5.768   1.489  12.545  0.00  0.00    +0.000 HD
ENDROOT
BRANCH  11  16
ATOM     16  N   UNL     1       4.352   6.149  18.326  0.00  0.00    +0.000 N 
ATOM     17  C   UNL     1       3.895   7.191  17.567  0.00  0.00    +0.000 A 
ATOM     18  C   UNL     1       2.724   7.616  18.136  0.00  0.00    +0.000 A 
ATOM     19  C   UNL     1       2.537   6.789  19.262  0.00  0.00    +0.000 A 
ATOM     20  N   UNL     1       3.560   5.927  19.415  0.00  0.00    +0.000 NA
BRANCH  19  21
ATOM     21  C   UNL     1       1.356   6.833  20.194  0.00  0.00    +0.000 C 
ATOM     22  C   UNL     1       1.262   5.581  21.064  0.00  0.00    +0.000 C 
ATOM     23  C   UNL     1       1.339   8.099  21.047  0.00  0.00    +0.000 C 
ENDBRANCH  19  21
ENDBRANCH  11  16
BRANCH  11  24
ATOM     24  C   UNL     1       6.107   4.780  19.432  0.00  0.00    +0.000 C 
ATOM     25  O   UNL     1       7.110   5.242  19.961  0.00  0.00    +0.000 OA
BRANCH  24  26
ATOM     26  O   UNL     1       5.486   3.710  19.984  0.00  0.00    +0.000 OA
ATOM     27  H   UNL     1       4.528   3.655  19.742  0.00  0.00    +0.000 HD
ENDBRANCH  24  26
ENDBRANCH  11  24
TORSDOF 4
ENDMDL
MODEL 3
REMARK VINA RESULT:      -6.8      2.903      7.796
REMARK  Name = 
REMARK  7 active torsions:
REMARK  status: ('A' for Active; 'I' for Inactive)
REMARK    1  A    between atoms: C_1  and  N_2
REMARK    2  A    between atoms: C_11  and  C_12
REMARK    3  A    between atoms: C_11  and  N_15
REMARK    4  A    between atoms: C_12  and  O_14
REMARK    5  A    between atoms: C_18  and  C_19
REMARK    6  A    between atoms: C_19  and  C_20
REMARK    7  A    between atoms: C_19  and  C_21
REMARK                            x       y       z     vdW  Elec       q    Type
REMARK                         _______ _______ _______ _____ _____    ______ ____
ROOT
ATOM      1  C   UNL     1       6.852   2.676  11.433  0.00  0.00    +0.000 C 
ATOM      2  N   UNL     1       5.937   3.092  12.465  0.00  0.00    +0.000 N 
ATOM      3  C   UNL     1       6.376   3.892  13.501  0.00  0.00    +0.000 A 
ATOM      4  C   UNL     1       7.402   4.796  13.391  0.00  0.00    +0.000 A 
ATOM      5  C   UNL     1       7.686   5.531  14.512  0.00  0.00    +0.000 A 
ATOM      6  N   UNL     1       7.001   5.418  15.656  0.00  0.00    +0.000 NA
ATOM      7  C   UNL     1       5.994   4.533  15.683  0.00  0.00    +0.000 A 
ATOM      8  N   UNL     1       5.295   4.354  16.857  0.00  0.00    +0.000 N 
ATOM      9  C   UNL     1       5.589   5.232  17.968  0.00  0.00    +0.000 C 
ATOM     10  C   UNL     1       5.435   4.419  19.244  0.00  0.00    +0.000 C 
ATOM     11  C   UNL     1       4.076   3.672  19.342  0.00  0.00    +0.000 C 
ATOM     12  C   UNL     1       3.755   2.921  18.021  0.00  0.00    +0.000 C 
ATOM     13  C   UNL     1       3.957   3.796  16.792  0.00  0.00    +0.000 C 
ATOM     14  N   UNL     1       5.676   3.764  14.634  0.00  0.00    +0.000 NA
ATOM     15  H   UNL     1       5.338   2.373  12.862  0.00  0.00    +0.000 HD
ENDROOT
BRANCH  11  16
ATOM     16  N   UNL     1       2.969   4.588  19.690  0.00  0.00    +0.000 N 
ATOM     17  C   UNL     1       1.710   4.283  20.128  0.00  0.00    +0.000 A 
ATOM     18  C   UNL     1       1.086   5.469  20.406  0.00  0.00    +0.000 A 
ATOM     19  C   UNL     1       2.030   6.468  20.093  0.00  0.00    +0.000 A 
ATOM     20  N   UNL     1       3.164   5.935  19.600  0.00  0.00    +0.000 NA
BRANCH  19  21
ATOM     21  C   UNL     1       1.831   7.948  20.276  0.00  0.00    +0.000 C 
ATOM     22  C   UNL     1       1.633   8.672  18.945  0.00  0.00    +0.000 C 
ATOM     23  C   UNL     1       0.697   8.264  21.249  0.00  0.00    +0.000 C 
ENDBRANCH  19  21
ENDBRANCH  11  16
BRANCH  11  24
ATOM     24  C   UNL     1       4.251   2.587  20.422  0.00  0.00    +0.000 C 
ATOM     25  O   UNL     1       5.221   1.846  20.498  0.00  0.00    +0.000 OA
BRANCH  24  26
ATOM     26  O   UNL     1       3.210   2.425  21.274  0.00  0.00    +0.000 OA
ATOM     27  H   UNL     1       3.298   2.968  22.096  0.00  0.00    +0.000 HD
ENDBRANCH  24  26
ENDBRANCH  11  24
TORSDOF 4
ENDMDL
MODEL 4
REMARK VINA RESULT:      -6.6      2.756      4.114
REMARK  Name = 
REMARK  7 active torsions:
REMARK  status: ('A' for Active; 'I' for Inactive)
REMARK    1  A    between atoms: C_1  and  N_2
REMARK    2  A    between atoms: C_11  and  C_12
REMARK    3  A    between atoms: C_11  and  N_15
REMARK    4  A    between atoms: C_12  and  O_14
REMARK    5  A    between atoms: C_18  and  C_19
REMARK    6  A    between atoms: C_19  and  C_20
REMARK    7  A    between atoms: C_19  and  C_21
REMARK                            x       y       z     vdW  Elec       q    Type
REMARK                         _______ _______ _______ _____ _____    ______ ____
ROOT
ATOM      1  C   UNL     1      -0.191  11.559  19.938  0.00  0.00    +0.000 C 
ATOM      2  N   UNL     1       0.435  10.551  19.120  0.00  0.00    +0.000 N 
ATOM      3  C   UNL     1       0.848   9.360  19.682  0.00  0.00    +0.000 A 
ATOM      4  C   UNL     1       0.249   8.777  20.770  0.00  0.00    +0.000 A 
ATOM      5  C   UNL     1       0.769   7.575  21.178  0.00  0.00    +0.000 A 
ATOM      6  N   UNL     1       1.783   6.965  20.553  0.00  0.00    +0.000 NA
ATOM      7  C   UNL     1       2.301   7.581  19.480  0.00  0.00    +0.000 A 
ATOM      8  N   UNL     1       3.377   7.007  18.838  0.00  0.00    +0.000 N 
ATOM      9  C   UNL     1       3.808   5.694  19.265  0.00  0.00    +0.000 C 
ATOM     10  C   UNL     1       5.322   5.642  19.119  0.00  0.00    +0.000 C 
ATOM     11  C   UNL     1       5.823   6.070  17.712  0.00  0.00    +0.000 C 
ATOM     12  C   UNL     1       5.146   7.391  17.255  0.00  0.00    +0.000 C 
ATOM     13  C   UNL     1       3.637   7.370  17.457  0.00  0.00    +0.000 C 
ATOM     14  N   UNL     1       1.861   8.767  19.040  0.00  0.00    +0.000 NA
ATOM     15  H   UNL     1       1.168  10.865  18.488  0.00  0.00    +0.000 HD
ENDROOT
BRANCH  11  16
ATOM     16  N   UNL     1       5.603   5.009  16.705  0.00  0.00    +0.000 N 
ATOM     17  C   UNL     1       4.723   3.963  16.742  0.00  0.00    +0.000 A 
ATOM     18  C   UNL     1       4.824   3.314  15.540  0.00  0.00    +0.000 A 
ATOM     19  C   UNL     1       5.811   4.018  14.820  0.00  0.00    +0.000 A 
ATOM     20  N   UNL     1       6.330   5.022  15.551  0.00  0.00    +0.000 NA
BRANCH  19  21
ATOM     21  C   UNL     1       6.249   3.717  13.412  0.00  0.00    +0.000 C 
ATOM     22  C   UNL     1       5.063   3.579  12.458  0.00  0.00    +0.000 C 
ATOM     23  C   UNL     1       7.261   4.733  12.891  0.00  0.00    +0.000 C 
ENDBRANCH  19  21
ENDBRANCH  11  16
BRANCH  11  24
ATOM     24  C   UNL     1       7.324   6.383  17.860  0.00  0.00    +0.000 C 
ATOM     25  O   UNL     1       8.016   5.997  18.792  0.00  0.00    +0.000 OA
BRANCH  24  26
ATOM     26  O   UNL     1       7.854   7.203  16.920  0.00  0.00    +0.000 OA
ATOM     27  H   UNL     1       7.816   6.819  16.010  0.00  0.00    +0.000 HD
ENDBRANCH  24  26
ENDBRANCH  11  24
TORSDOF 4
ENDMDL
MODEL 5
REMARK VINA RESULT:      -6.6      2.117      7.640
REMARK  Name = 
REMARK  7 active torsions:
REMARK  status: ('A' for Active; 'I' for Inactive)
REMARK    1  A    between atoms: C_1  and  N_2
REMARK    2  A    between atoms: C_11  and  C_12
REMARK    3  A    between atoms: C_11  and  N_15
REMARK    4  A    between atoms: C_12  and  O_14
REMARK    5  A    between atoms: C_18  and  C_19
REMARK    6  A    between atoms: C_19  and  C_20
REMARK    7  A    between atoms: C_19  and  C_21
REMARK                            x       y       z     vdW  Elec       q    Type
REMARK                         _______ _______ _______ _____ _____    ______ ____
ROOT
ATOM      1  C   UNL     1       5.851   2.966  12.225  0.00  0.00    +0.000 C 
ATOM      2  N   UNL     1       5.123   3.817  13.132  0.00  0.00    +0.000 N 
ATOM      3  C   UNL     1       5.705   4.230  14.314  0.00  0.00    +0.000 A 
ATOM      4  C   UNL     1       7.055   4.409  14.482  0.00  0.00    +0.000 A 
ATOM      5  C   UNL     1       7.459   4.855  15.714  0.00  0.00    +0.000 A 
ATOM      6  N   UNL     1       6.608   5.137  16.707  0.00  0.00    +0.000 NA
ATOM      7  C   UNL     1       5.301   4.964  16.461  0.00  0.00    +0.000 A 
ATOM      8  N   UNL     1       4.396   5.198  17.474  0.00  0.00    +0.000 N 
ATOM      9  C   UNL     1       4.888   5.758  18.714  0.00  0.00    +0.000 C 
ATOM     10  C   UNL     1       4.059   5.162  19.842  0.00  0.00    +0.000 C 
ATOM     11  C   UNL     1       2.527   5.299  19.625  0.00  0.00    +0.000 C 
ATOM     12  C   UNL     1       2.126   4.862  18.189  0.00  0.00    +0.000 C 
ATOM     13  C   UNL     1       3.017   5.483  17.123  0.00  0.00    +0.000 C 
ATOM     14  N   UNL     1       4.836   4.508  15.291  0.00  0.00    +0.000 NA
ATOM     15  H   UNL     1       4.163   3.551  13.337  0.00  0.00    +0.000 HD
ENDROOT
BRANCH  11  16
ATOM     16  N   UNL     1       2.055   6.675  19.889  0.00  0.00    +0.000 N 
ATOM     17  C   UNL     1       2.238   7.802  19.138  0.00  0.00    +0.000 A 
ATOM     18  C   UNL     1       1.535   8.807  19.747  0.00  0.00    +0.000 A 
ATOM     19  C   UNL     1       0.956   8.215  20.888  0.00  0.00    +0.000 A 
ATOM     20  N   UNL     1       1.319   6.925  21.011  0.00  0.00    +0.000 NA
BRANCH  19  21
ATOM     21  C   UNL     1       0.043   8.907  21.864  0.00  0.00    +0.000 C 
ATOM     22  C   UNL     1       0.738   9.201  23.193  0.00  0.00    +0.000 C 
ATOM     23  C   UNL     1      -0.581  10.170  21.277  0.00  0.00    +0.000 C 
ENDBRANCH  19  21
ENDBRANCH  11  16
BRANCH  11  24
ATOM     24  C   UNL     1       1.859   4.296  20.583  0.00  0.00    +0.000 C 
ATOM     25  O   UNL     1       2.465   3.635  21.416  0.00  0.00    +0.000 OA
BRANCH  24  26
ATOM     26  O   UNL     1       0.528   4.106  20.410  0.00  0.00    +0.000 OA
ATOM     27  H   UNL     1       0.050   3.939  21.260  0.00  0.00    +0.000 HD
ENDBRANCH  24  26
ENDBRANCH  11  24
TORSDOF 4
ENDMDL
MODEL 6
REMARK VINA RESULT:      -6.5      1.542      1.844
REMARK  Name = 
REMARK  7 active torsions:
REMARK  status: ('A' for Active; 'I' for Inactive)
REMARK    1  A    between atoms: C_1  and  N_2
REMARK    2  A    between atoms: C_11  and  C_12
REMARK    3  A    between atoms: C_11  and  N_15
REMARK    4  A    between atoms: C_12  and  O_14
REMARK    5  A    between atoms: C_18  and  C_19
REMARK    6  A    between atoms: C_19  and  C_20
REMARK    7  A    between atoms: C_19  and  C_21
REMARK                            x       y       z     vdW  Elec       q    Type
REMARK                         _______ _______ _______ _____ _____    ______ ____
ROOT
ATOM      1  C   UNL     1      -0.396   9.994  23.462  0.00  0.00    +0.000 C 
ATOM      2  N   UNL     1       0.704   9.309  22.832  0.00  0.00    +0.000 N 
ATOM      3  C   UNL     1       0.769   9.219  21.456  0.00  0.00    +0.000 A 
ATOM      4  C   UNL     1       0.248  10.158  20.601  0.00  0.00    +0.000 A 
ATOM      5  C   UNL     1       0.431   9.927  19.262  0.00  0.00    +0.000 A 
ATOM      6  N   UNL     1       1.099   8.870  18.785  0.00  0.00    +0.000 NA
ATOM      7  C   UNL     1       1.604   8.009  19.680  0.00  0.00    +0.000 A 
ATOM      8  N   UNL     1       2.259   6.884  19.227  0.00  0.00    +0.000 N 
ATOM      9  C   UNL     1       2.496   6.757  17.806  0.00  0.00    +0.000 C 
ATOM     10  C   UNL     1       2.393   5.280  17.457  0.00  0.00    +0.000 C 
ATOM     11  C   UNL     1       3.279   4.369  18.352  0.00  0.00    +0.000 C 
ATOM     12  C   UNL     1       3.103   4.722  19.855  0.00  0.00    +0.000 C 
ATOM     13  C   UNL     1       3.195   6.219  20.114  0.00  0.00    +0.000 C 
ATOM     14  N   UNL     1       1.444   8.158  21.001  0.00  0.00    +0.000 NA
ATOM     15  H   UNL     1       0.954   8.399  23.213  0.00  0.00    +0.000 HD
ENDROOT
BRANCH  11  16
ATOM     16  N   UNL     1       4.706   4.448  17.974  0.00  0.00    +0.000 N 
ATOM     17  C   UNL     1       5.322   3.965  16.853  0.00  0.00    +0.000 A 
ATOM     18  C   UNL     1       6.630   4.368  16.911  0.00  0.00    +0.000 A 
ATOM     19  C   UNL     1       6.743   5.085  18.119  0.00  0.00    +0.000 A 
ATOM     20  N   UNL     1       5.582   5.088  18.801  0.00  0.00    +0.000 NA
BRANCH  19  21
ATOM     21  C   UNL     1       7.986   5.775  18.614  0.00  0.00    +0.000 C 
ATOM     22  C   UNL     1       7.990   7.265  18.278  0.00  0.00    +0.000 C 
ATOM     23  C   UNL     1       8.220   5.546  20.105  0.00  0.00    +0.000 C 
ENDBRANCH  19  21
ENDBRANCH  11  16
BRANCH  11  24
ATOM     24  C   UNL     1       2.743   2.935  18.181  0.00  0.00    +0.000 C 
ATOM     25  O   UNL     1       1.837   2.628  17.417  0.00  0.00    +0.000 OA
BRANCH  24  26
ATOM     26  O   UNL     1       3.282   1.999  18.999  0.00  0.00    +0.000 OA
ATOM     27  H   UNL     1       3.291   2.278  19.948  0.00  0.00    +0.000 HD
ENDBRANCH  24  26
ENDBRANCH  11  24
TORSDOF 4
ENDMDL
MODEL 7
REMARK VINA RESULT:      -6.4      3.236      7.424
REMARK  Name = 
REMARK  7 active torsions:
REMARK  status: ('A' for Active; 'I' for Inactive)
REMARK    1  A    between atoms: C_1  and  N_2
REMARK    2  A    between atoms: C_11  and  C_12
REMARK    3  A    between atoms: C_11  and  N_15
REMARK    4  A    between atoms: C_12  and  O_14
REMARK    5  A    between atoms: C_18  and  C_19
REMARK    6  A    between atoms: C_19  and  C_20
REMARK    7  A    between atoms: C_19  and  C_21
REMARK                            x       y       z     vdW  Elec       q    Type
REMARK                         _______ _______ _______ _____ _____    ______ ____
ROOT
ATOM      1  C   UNL     1       4.298   3.663  17.051  0.00  0.00    +0.000 C 
ATOM      2  N   UNL     1       4.138   5.053  17.395  0.00  0.00    +0.000 N 
ATOM      3  C   UNL     1       3.391   5.414  18.498  0.00  0.00    +0.000 A 
ATOM      4  C   UNL     1       3.252   4.633  19.619  0.00  0.00    +0.000 A 
ATOM      5  C   UNL     1       2.500   5.161  20.636  0.00  0.00    +0.000 A 
ATOM      6  N   UNL     1       1.943   6.376  20.582  0.00  0.00    +0.000 NA
ATOM      7  C   UNL     1       2.143   7.094  19.467  0.00  0.00    +0.000 A 
ATOM      8  N   UNL     1       1.547   8.331  19.354  0.00  0.00    +0.000 N 
ATOM      9  C   UNL     1       0.849   8.861  20.504  0.00  0.00    +0.000 C 
ATOM     10  C   UNL     1      -0.340   9.657  19.988  0.00  0.00    +0.000 C 
ATOM     11  C   UNL     1       0.040  10.711  18.911  0.00  0.00    +0.000 C 
ATOM     12  C   UNL     1       0.961  10.091  17.825  0.00  0.00    +0.000 C 
ATOM     13  C   UNL     1       2.110   9.292  18.423  0.00  0.00    +0.000 C 
ATOM     14  N   UNL     1       2.846   6.633  18.424  0.00  0.00    +0.000 NA
ATOM     15  H   UNL     1       3.894   5.687  16.637  0.00  0.00    +0.000 HD
ENDROOT
BRANCH  11  16
ATOM     16  N   UNL     1       0.686  11.898  19.510  0.00  0.00    +0.000 N 
ATOM     17  C   UNL     1       0.701  12.297  20.818  0.00  0.00    +0.000 A 
ATOM     18  C   UNL     1       1.507  13.402  20.889  0.00  0.00    +0.000 A 
ATOM     19  C   UNL     1       1.938  13.632  19.567  0.00  0.00    +0.000 A 
ATOM     20  N   UNL     1       1.393  12.749  18.711  0.00  0.00    +0.000 NA
BRANCH  19  21
ATOM     21  C   UNL     1       2.889  14.716  19.133  0.00  0.00    +0.000 C 
ATOM     22  C   UNL     1       3.977  14.187  18.200  0.00  0.00    +0.000 C 
ATOM     23  C   UNL     1       2.164  15.908  18.514  0.00  0.00    +0.000 C 
ENDBRANCH  19  21
ENDBRANCH  11  16
BRANCH  11  24
ATOM     24  C   UNL     1      -1.268  11.098  18.198  0.00  0.00    +0.000 C 
ATOM     25  O   UNL     1      -2.283  10.413  18.206  0.00  0.00    +0.000 OA
BRANCH  24  26
ATOM     26  O   UNL     1      -1.229  12.236  17.464  0.00  0.00    +0.000 OA
ATOM     27  H   UNL     1      -2.128  12.606  17.280  0.00  0.00    +0.000 HD
ENDBRANCH  24  26
ENDBRANCH  11  24
TORSDOF 4
ENDMDL
MODEL 8
REMARK VINA RESULT:      -6.4      3.215      8.388
REMARK  Name = 
REMARK  7 active torsions:
REMARK  status: ('A' for Active; 'I' for Inactive)
REMARK    1  A    between atoms: C_1  and  N_2
REMARK    2  A    between atoms: C_11  and  C_12
REMARK    3  A    between atoms: C_11  and  N_15
REMARK    4  A    between atoms: C_12  and  O_14
REMARK    5  A    between atoms: C_18  and  C_19
REMARK    6  A    between atoms: C_19  and  C_20
REMARK    7  A    between atoms: C_19  and  C_21
REMARK                            x       y       z     vdW  Elec       q    Type
REMARK                         _______ _______ _______ _____ _____    ______ ____
ROOT
ATOM      1  C   UNL     1       6.514   1.412  10.948  0.00  0.00    +0.000 C 
ATOM      2  N   UNL     1       5.769   2.280  11.825  0.00  0.00    +0.000 N 
ATOM      3  C   UNL     1       6.403   3.317  12.479  0.00  0.00    +0.000 A 
ATOM      4  C   UNL     1       7.502   3.976  11.987  0.00  0.00    +0.000 A 
ATOM      5  C   UNL     1       7.986   5.005  12.753  0.00  0.00    +0.000 A 
ATOM      6  N   UNL     1       7.424   5.387  13.906  0.00  0.00    +0.000 NA
ATOM      7  C   UNL     1       6.337   4.715  14.311  0.00  0.00    +0.000 A 
ATOM      8  N   UNL     1       5.758   5.048  15.517  0.00  0.00    +0.000 N 
ATOM      9  C   UNL     1       6.266   6.204  16.222  0.00  0.00    +0.000 C 
ATOM     10  C   UNL     1       6.168   5.907  17.711  0.00  0.00    +0.000 C 
ATOM     11  C   UNL     1       4.756   5.436  18.158  0.00  0.00    +0.000 C 
ATOM     12  C   UNL     1       4.212   4.330  17.212  0.00  0.00    +0.000 C 
ATOM     13  C   UNL     1       4.369   4.694  15.743  0.00  0.00    +0.000 C 
ATOM     14  N   UNL     1       5.824   3.684  13.627  0.00  0.00    +0.000 NA
ATOM     15  H   UNL     1       5.144   1.831  12.490  0.00  0.00    +0.000 HD
ENDROOT
BRANCH  11  16
ATOM     16  N   UNL     1       3.800   6.561  18.231  0.00  0.00    +0.000 N 
ATOM     17  C   UNL     1       3.473   7.471  17.265  0.00  0.00    +0.000 A 
ATOM     18  C   UNL     1       2.472   8.254  17.777  0.00  0.00    +0.000 A 
ATOM     19  C   UNL     1       2.252   7.768  19.081  0.00  0.00    +0.000 A 
ATOM     20  N   UNL     1       3.101   6.769  19.384  0.00  0.00    +0.000 NA
BRANCH  19  21
ATOM     21  C   UNL     1       1.207   8.276  20.039  0.00  0.00    +0.000 C 
ATOM     22  C   UNL     1       1.574   7.992  21.495  0.00  0.00    +0.000 C 
ATOM     23  C   UNL     1       0.898   9.756  19.827  0.00  0.00    +0.000 C 
ENDBRANCH  19  21
ENDBRANCH  11  16
BRANCH  11  24
ATOM     24  C   UNL     1       4.933   4.775  19.537  0.00  0.00    +0.000 C 
ATOM     25  O   UNL     1       5.994   4.731  20.146  0.00  0.00    +0.000 OA
BRANCH  24  26
ATOM     26  O   UNL     1       3.842   4.148  20.039  0.00  0.00    +0.000 OA
ATOM     27  H   UNL     1       3.105   4.076  19.384  0.00  0.00    +0.000 HD
ENDBRANCH  24  26
ENDBRANCH  11  24
TORSDOF 4
ENDMDL
MODEL 9
REMARK VINA RESULT:      -6.3      3.302      7.482
REMARK  Name = 
REMARK  7 active torsions:
REMARK  status: ('A' for Active; 'I' for Inactive)
REMARK    1  A    between atoms: C_1  and  N_2
REMARK    2  A    between atoms: C_11  and  C_12
REMARK    3  A    between atoms: C_11  and  N_15
REMARK    4  A    between atoms: C_12  and  O_14
REMARK    5  A    between atoms: C_18  and  C_19
REMARK    6  A    between atoms: C_19  and  C_20
REMARK    7  A    between atoms: C_19  and  C_21
REMARK                            x       y       z     vdW  Elec       q    Type
REMARK                         _______ _______ _______ _____ _____    ______ ____
ROOT
ATOM      1  C   UNL     1       3.312   2.531  17.613  0.00  0.00    +0.000 C 
ATOM      2  N   UNL     1       3.398   3.964  17.727  0.00  0.00    +0.000 N 
ATOM      3  C   UNL     1       2.923   4.601  18.857  0.00  0.00    +0.000 A 
ATOM      4  C   UNL     1       2.898   4.031  20.105  0.00  0.00    +0.000 A 
ATOM      5  C   UNL     1       2.422   4.818  21.122  0.00  0.00    +0.000 A 
ATOM      6  N   UNL     1       2.024   6.083  20.945  0.00  0.00    +0.000 NA
ATOM      7  C   UNL     1       2.103   6.583  19.703  0.00  0.00    +0.000 A 
ATOM      8  N   UNL     1       1.659   7.867  19.471  0.00  0.00    +0.000 N 
ATOM      9  C   UNL     1       1.262   8.668  20.608  0.00  0.00    +0.000 C 
ATOM     10  C   UNL     1       0.109   9.553  20.160  0.00  0.00    +0.000 C 
ATOM     11  C   UNL     1       0.413  10.359  18.867  0.00  0.00    +0.000 C 
ATOM     12  C   UNL     1       1.028   9.445  17.771  0.00  0.00    +0.000 C 
ATOM     13  C   UNL     1       2.157   8.576  18.307  0.00  0.00    +0.000 C 
ATOM     14  N   UNL     1       2.534   5.865  18.657  0.00  0.00    +0.000 NA
ATOM     15  H   UNL     1       3.101   4.506  16.919  0.00  0.00    +0.000 HD
ENDROOT
BRANCH  11  16
ATOM     16  N   UNL     1       1.306  11.507  19.132  0.00  0.00    +0.000 N 
ATOM     17  C   UNL     1       2.227  12.085  18.304  0.00  0.00    +0.000 A 
ATOM     18  C   UNL     1       2.732  13.173  18.966  0.00  0.00    +0.000 A 
ATOM     19  C   UNL     1       2.077  13.184  20.214  0.00  0.00    +0.000 A 
ATOM     20  N   UNL     1       1.245  12.134  20.343  0.00  0.00    +0.000 NA
BRANCH  19  21
ATOM     21  C   UNL     1       2.258  14.224  21.287  0.00  0.00    +0.000 C 
ATOM     22  C   UNL     1       3.079  15.417  20.801  0.00  0.00    +0.000 C 
ATOM     23  C   UNL     1       0.928  14.677  21.884  0.00  0.00    +0.000 C 
ENDBRANCH  19  21
ENDBRANCH  11  16
BRANCH  11  24
ATOM     24  C   UNL     1      -0.945  10.834  18.319  0.00  0.00    +0.000 C 
ATOM     25  O   UNL     1      -1.739  11.518  18.952  0.00  0.00    +0.000 OA
BRANCH  24  26
ATOM     26  O   UNL     1      -1.278  10.383  17.085  0.00  0.00    +0.000 OA
ATOM     27  H   UNL     1      -2.164  10.705  16.784  0.00  0.00    +0.000 HD
ENDBRANCH  24  26
ENDBRANCH  11  24
TORSDOF 4
ENDMDL
