MODEL 1
REMARK VINA RESULT:      -7.9      0.000      0.000
REMARK  Name = 
REMARK  5 active torsions:
REMARK  status: ('A' for Active; 'I' for Inactive)
REMARK    1  A    between atoms: C_1  and  C_2
REMARK    2  A    between atoms: C_4  and  C_5
REMARK    3  A    between atoms: C_6  and  N_7
REMARK    4  A    between atoms: N_7  and  S_8
REMARK    5  A    between atoms: S_8  and  C_11
REMARK                            x       y       z     vdW  Elec       q    Type
REMARK                         _______ _______ _______ _____ _____    ______ ____
ROOT
ATOM      1  S   UNL     1       6.158   6.446  16.232  0.00  0.00    +0.000 S 
ATOM      2  O   UNL     1       6.805   7.462  17.027  0.00  0.00    +0.000 OA
ATOM      3  O   UNL     1       5.278   6.768  15.130  0.00  0.00    +0.000 OA
ENDROOT
BRANCH   1   4
ATOM      4  C   UNL     1       5.239   5.409  17.353  0.00  0.00    +0.000 A 
ATOM      5  C   UNL     1       5.911   4.784  18.403  0.00  0.00    +0.000 A 
ATOM      6  C   UNL     1       5.194   3.987  19.295  0.00  0.00    +0.000 A 
ATOM      7  C   UNL     1       3.811   3.803  19.146  0.00  0.00    +0.000 A 
ATOM      8  C   UNL     1       3.141   4.403  18.063  0.00  0.00    +0.000 A 
ATOM      9  C   UNL     1       3.862   5.224  17.178  0.00  0.00    +0.000 A 
ATOM     10  C   UNL     1       1.654   4.222  17.860  0.00  0.00    +0.000 C 
ATOM     11  C   UNL     1       1.062   3.058  18.657  0.00  0.00    +0.000 C 
ATOM     12  C   UNL     1       1.571   3.079  20.092  0.00  0.00    +0.000 C 
ATOM     13  C   UNL     1       3.087   2.901  20.119  0.00  0.00    +0.000 C 
ENDBRANCH   1   4
BRANCH   1  14
ATOM     14  N   UNL     1       7.378   5.356  15.704  0.00  0.00    +0.000 N 
ATOM     15  H   UNL     1       8.225   5.912  15.584  0.00  0.00    +0.000 HD
BRANCH  14  21
ATOM     16  C   UNL     1       5.180   2.712  11.709  0.00  0.00    +0.000 C 
ATOM     17  C   UNL     1       6.017   3.569  12.595  0.00  0.00    +0.000 A 
ATOM     18  N   UNL     1       7.020   4.309  12.170  0.00  0.00    +0.000 NA
ATOM     19  C   UNL     1       7.599   4.992  13.231  0.00  0.00    +0.000 A 
ATOM     20  C   UNL     1       8.683   5.960  12.934  0.00  0.00    +0.000 C 
ATOM     21  C   UNL     1       7.024   4.728  14.459  0.00  0.00    +0.000 A 
ATOM     22  S   UNL     1       5.690   3.680  14.281  0.00  0.00    +0.000 S 
ENDBRANCH  14  21
ENDBRANCH   1  14
TORSDOF 3
ENDMDL
MODEL 2
REMARK VINA RESULT:      -7.5      1.313      1.778
REMARK  Name = 
REMARK  5 active torsions:
REMARK  status: ('A' for Active; 'I' for Inactive)
REMARK    1  A    between atoms: C_1  and  C_2
REMARK    2  A    between atoms: C_4  and  C_5
REMARK    3  A    between atoms: C_6  and  N_7
REMARK    4  A    between atoms: N_7  and  S_8
REMARK    5  A    between atoms: S_8  and  C_11
REMARK                            x       y       z     vdW  Elec       q    Type
REMARK                         _______ _______ _______ _____ _____    ______ ____
ROOT
ATOM      1  S   UNL     1       6.905   5.365  16.481  0.00  0.00    +0.000 S 
ATOM      2  O   UNL     1       7.550   4.096  16.246  0.00  0.00    +0.000 OA
ATOM      3  O   UNL     1       7.522   6.415  17.264  0.00  0.00    +0.000 OA
ENDROOT
BRANCH   1   4
ATOM      4  C   UNL     1       5.321   5.020  17.221  0.00  0.00    +0.000 A 
ATOM      5  C   UNL     1       4.499   6.085  17.588  0.00  0.00    +0.000 A 
ATOM      6  C   UNL     1       3.250   5.822  18.150  0.00  0.00    +0.000 A 
ATOM      7  C   UNL     1       2.815   4.503  18.354  0.00  0.00    +0.000 A 
ATOM      8  C   UNL     1       3.662   3.430  18.020  0.00  0.00    +0.000 A 
ATOM      9  C   UNL     1       4.912   3.698  17.432  0.00  0.00    +0.000 A 
ATOM     10  C   UNL     1       3.237   1.995  18.232  0.00  0.00    +0.000 C 
ATOM     11  C   UNL     1       2.041   1.843  19.174  0.00  0.00    +0.000 C 
ATOM     12  C   UNL     1       0.951   2.846  18.822  0.00  0.00    +0.000 C 
ATOM     13  C   UNL     1       1.467   4.273  18.999  0.00  0.00    +0.000 C 
ENDBRANCH   1   4
BRANCH   1  14
ATOM     14  N   UNL     1       6.425   5.986  14.952  0.00  0.00    +0.000 N 
ATOM     15  H   UNL     1       5.456   6.287  15.057  0.00  0.00    +0.000 HD
BRANCH  14  21
ATOM     16  C   UNL     1       5.744   2.050  11.514  0.00  0.00    +0.000 C 
ATOM     17  C   UNL     1       6.218   3.224  12.299  0.00  0.00    +0.000 A 
ATOM     18  N   UNL     1       7.287   3.930  11.995  0.00  0.00    +0.000 NA
ATOM     19  C   UNL     1       7.464   4.956  12.914  0.00  0.00    +0.000 A 
ATOM     20  C   UNL     1       8.561   5.926  12.679  0.00  0.00    +0.000 C 
ATOM     21  C   UNL     1       6.520   4.987  13.921  0.00  0.00    +0.000 A 
ATOM     22  S   UNL     1       5.346   3.773  13.678  0.00  0.00    +0.000 S 
ENDBRANCH  14  21
ENDBRANCH   1  14
TORSDOF 3
ENDMDL
MODEL 3
REMARK VINA RESULT:      -7.5      3.296      4.640
REMARK  Name = 
REMARK  5 active torsions:
REMARK  status: ('A' for Active; 'I' for Inactive)
REMARK    1  A    between atoms: C_1  and  C_2
REMARK    2  A    between atoms: C_4  and  C_5
REMARK    3  A    between atoms: C_6  and  N_7
REMARK    4  A    between atoms: N_7  and  S_8
REMARK    5  A    between atoms: S_8  and  C_11
REMARK                            x       y       z     vdW  Elec       q    Type
REMARK                         _______ _______ _______ _____ _____    ______ ____
ROOT
ATOM      1  S   UNL     1       4.080   3.533  17.554  0.00  0.00    +0.000 S 
ATOM      2  O   UNL     1       4.104   4.004  16.190  0.00  0.00    +0.000 OA
ATOM      3  O   UNL     1       3.502   2.259  17.924  0.00  0.00    +0.000 OA
ENDROOT
BRANCH   1   4
ATOM      4  C   UNL     1       3.263   4.782  18.527  0.00  0.00    +0.000 A 
ATOM      5  C   UNL     1       2.855   4.472  19.824  0.00  0.00    +0.000 A 
ATOM      6  C   UNL     1       2.233   5.450  20.597  0.00  0.00    +0.000 A 
ATOM      7  C   UNL     1       2.008   6.738  20.086  0.00  0.00    +0.000 A 
ATOM      8  C   UNL     1       2.385   7.038  18.764  0.00  0.00    +0.000 A 
ATOM      9  C   UNL     1       3.033   6.056  17.993  0.00  0.00    +0.000 A 
ATOM     10  C   UNL     1       2.152   8.409  18.171  0.00  0.00    +0.000 C 
ATOM     11  C   UNL     1       1.152   9.258  18.959  0.00  0.00    +0.000 C 
ATOM     12  C   UNL     1       1.450   9.186  20.451  0.00  0.00    +0.000 C 
ATOM     13  C   UNL     1       1.298   7.752  20.953  0.00  0.00    +0.000 C 
ENDBRANCH   1   4
BRANCH   1  14
ATOM     14  N   UNL     1       5.685   3.641  18.161  0.00  0.00    +0.000 N 
ATOM     15  H   UNL     1       5.609   3.601  19.177  0.00  0.00    +0.000 HD
BRANCH  14  21
ATOM     16  C   UNL     1       8.011   8.357  17.801  0.00  0.00    +0.000 C 
ATOM     17  C   UNL     1       7.433   7.004  17.570  0.00  0.00    +0.000 A 
ATOM     18  N   UNL     1       7.495   6.364  16.421  0.00  0.00    +0.000 NA
ATOM     19  C   UNL     1       6.869   5.128  16.524  0.00  0.00    +0.000 A 
ATOM     20  C   UNL     1       6.926   4.215  15.356  0.00  0.00    +0.000 C 
ATOM     21  C   UNL     1       6.319   4.870  17.764  0.00  0.00    +0.000 A 
ATOM     22  S   UNL     1       6.656   6.146  18.844  0.00  0.00    +0.000 S 
ENDBRANCH  14  21
ENDBRANCH   1  14
TORSDOF 3
ENDMDL
MODEL 4
REMARK VINA RESULT:      -7.4      3.436      4.416
REMARK  Name = 
REMARK  5 active torsions:
REMARK  status: ('A' for Active; 'I' for Inactive)
REMARK    1  A    between atoms: C_1  and  C_2
REMARK    2  A    between atoms: C_4  and  C_5
REMARK    3  A    between atoms: C_6  and  N_7
REMARK    4  A    between atoms: N_7  and  S_8
REMARK    5  A    between atoms: S_8  and  C_11
REMARK                            x       y       z     vdW  Elec       q    Type
REMARK                         _______ _______ _______ _____ _____    ______ ____
ROOT
ATOM      1  S   UNL     1       4.277   3.796  18.702  0.00  0.00    +0.000 S 
ATOM      2  O   UNL     1       4.013   3.193  17.418  0.00  0.00    +0.000 OA
ATOM      3  O   UNL     1       3.895   3.166  19.947  0.00  0.00    +0.000 OA
ENDROOT
BRANCH   1   4
ATOM      4  C   UNL     1       3.532   5.416  18.684  0.00  0.00    +0.000 A 
ATOM      5  C   UNL     1       3.717   6.233  17.569  0.00  0.00    +0.000 A 
ATOM      6  C   UNL     1       3.121   7.493  17.540  0.00  0.00    +0.000 A 
ATOM      7  C   UNL     1       2.346   7.950  18.618  0.00  0.00    +0.000 A 
ATOM      8  C   UNL     1       2.193   7.139  19.758  0.00  0.00    +0.000 A 
ATOM      9  C   UNL     1       2.776   5.859  19.776  0.00  0.00    +0.000 A 
ATOM     10  C   UNL     1       1.375   7.595  20.944  0.00  0.00    +0.000 C 
ATOM     11  C   UNL     1       1.093   9.099  20.955  0.00  0.00    +0.000 C 
ATOM     12  C   UNL     1       0.644   9.568  19.577  0.00  0.00    +0.000 C 
ATOM     13  C   UNL     1       1.751   9.338  18.551  0.00  0.00    +0.000 C 
ENDBRANCH   1   4
BRANCH   1  14
ATOM     14  N   UNL     1       5.946   4.203  18.743  0.00  0.00    +0.000 N 
ATOM     15  H   UNL     1       6.034   4.987  19.389  0.00  0.00    +0.000 HD
BRANCH  14  21
ATOM     16  C   UNL     1       7.016   4.803  13.617  0.00  0.00    +0.000 C 
ATOM     17  C   UNL     1       6.905   4.916  15.098  0.00  0.00    +0.000 A 
ATOM     18  N   UNL     1       7.431   5.897  15.803  0.00  0.00    +0.000 NA
ATOM     19  C   UNL     1       7.153   5.722  17.152  0.00  0.00    +0.000 A 
ATOM     20  C   UNL     1       7.576   6.785  18.098  0.00  0.00    +0.000 C 
ATOM     21  C   UNL     1       6.431   4.582  17.442  0.00  0.00    +0.000 A 
ATOM     22  S   UNL     1       6.019   3.755  16.008  0.00  0.00    +0.000 S 
ENDBRANCH  14  21
ENDBRANCH   1  14
TORSDOF 3
ENDMDL
MODEL 5
REMARK VINA RESULT:      -7.4      3.318      4.262
REMARK  Name = 
REMARK  5 active torsions:
REMARK  status: ('A' for Active; 'I' for Inactive)
REMARK    1  A    between atoms: C_1  and  C_2
REMARK    2  A    between atoms: C_4  and  C_5
REMARK    3  A    between atoms: C_6  and  N_7
REMARK    4  A    between atoms: N_7  and  S_8
REMARK    5  A    between atoms: S_8  and  C_11
REMARK                            x       y       z     vdW  Elec       q    Type
REMARK                         _______ _______ _______ _____ _____    ______ ____
ROOT
ATOM      1  S   UNL     1       4.350   3.613  18.541  0.00  0.00    +0.000 S 
ATOM      2  O   UNL     1       4.046   3.371  17.152  0.00  0.00    +0.000 OA
ATOM      3  O   UNL     1       4.169   2.603  19.562  0.00  0.00    +0.000 OA
ENDROOT
BRANCH   1   4
ATOM      4  C   UNL     1       3.410   5.042  19.044  0.00  0.00    +0.000 A 
ATOM      5  C   UNL     1       2.789   5.038  20.292  0.00  0.00    +0.000 A 
ATOM      6  C   UNL     1       2.068   6.160  20.699  0.00  0.00    +0.000 A 
ATOM      7  C   UNL     1       1.956   7.286  19.869  0.00  0.00    +0.000 A 
ATOM      8  C   UNL     1       2.551   7.272  18.593  0.00  0.00    +0.000 A 
ATOM      9  C   UNL     1       3.296   6.149  18.194  0.00  0.00    +0.000 A 
ATOM     10  C   UNL     1       2.447   8.460  17.664  0.00  0.00    +0.000 C 
ATOM     11  C   UNL     1       1.349   9.451  18.054  0.00  0.00    +0.000 C 
ATOM     12  C   UNL     1       1.396   9.740  19.549  0.00  0.00    +0.000 C 
ATOM     13  C   UNL     1       1.134   8.462  20.343  0.00  0.00    +0.000 C 
ENDBRANCH   1   4
BRANCH   1  14
ATOM     14  N   UNL     1       5.952   4.233  18.614  0.00  0.00    +0.000 N 
ATOM     15  H   UNL     1       5.914   5.053  19.218  0.00  0.00    +0.000 HD
BRANCH  14  21
ATOM     16  C   UNL     1       7.057   4.771  13.489  0.00  0.00    +0.000 C 
ATOM     17  C   UNL     1       6.923   4.911  14.966  0.00  0.00    +0.000 A 
ATOM     18  N   UNL     1       7.396   5.928  15.655  0.00  0.00    +0.000 NA
ATOM     19  C   UNL     1       7.110   5.770  17.005  0.00  0.00    +0.000 A 
ATOM     20  C   UNL     1       7.474   6.870  17.931  0.00  0.00    +0.000 C 
ATOM     21  C   UNL     1       6.435   4.605  17.311  0.00  0.00    +0.000 A 
ATOM     22  S   UNL     1       6.078   3.730  15.891  0.00  0.00    +0.000 S 
ENDBRANCH  14  21
ENDBRANCH   1  14
TORSDOF 3
ENDMDL
MODEL 6
REMARK VINA RESULT:      -7.4      4.221      5.114
REMARK  Name = 
REMARK  5 active torsions:
REMARK  status: ('A' for Active; 'I' for Inactive)
REMARK    1  A    between atoms: C_1  and  C_2
REMARK    2  A    between atoms: C_4  and  C_5
REMARK    3  A    between atoms: C_6  and  N_7
REMARK    4  A    between atoms: N_7  and  S_8
REMARK    5  A    between atoms: S_8  and  C_11
REMARK                            x       y       z     vdW  Elec       q    Type
REMARK                         _______ _______ _______ _____ _____    ______ ____
ROOT
ATOM      1  S   UNL     1       3.738   5.994  18.446  0.00  0.00    +0.000 S 
ATOM      2  O   UNL     1       3.057   5.168  17.478  0.00  0.00    +0.000 OA
ATOM      3  O   UNL     1       4.200   5.479  19.716  0.00  0.00    +0.000 OA
ENDROOT
BRANCH   1   4
ATOM      4  C   UNL     1       2.671   7.379  18.797  0.00  0.00    +0.000 A 
ATOM      5  C   UNL     1       2.420   8.311  17.792  0.00  0.00    +0.000 A 
ATOM      6  C   UNL     1       1.571   9.386  18.054  0.00  0.00    +0.000 A 
ATOM      7  C   UNL     1       0.974   9.542  19.314  0.00  0.00    +0.000 A 
ATOM      8  C   UNL     1       1.260   8.621  20.340  0.00  0.00    +0.000 A 
ATOM      9  C   UNL     1       2.098   7.526  20.066  0.00  0.00    +0.000 A 
ATOM     10  C   UNL     1       0.646   8.758  21.714  0.00  0.00    +0.000 C 
ATOM     11  C   UNL     1       0.051  10.141  21.987  0.00  0.00    +0.000 C 
ATOM     12  C   UNL     1      -0.786  10.605  20.802  0.00  0.00    +0.000 C 
ATOM     13  C   UNL     1       0.089  10.743  19.558  0.00  0.00    +0.000 C 
ENDBRANCH   1   4
BRANCH   1  14
ATOM     14  N   UNL     1       5.033   6.777  17.630  0.00  0.00    +0.000 N 
ATOM     15  H   UNL     1       4.620   7.560  17.123  0.00  0.00    +0.000 HD
BRANCH  14  21
ATOM     16  C   UNL     1       6.806   4.031  13.495  0.00  0.00    +0.000 C 
ATOM     17  C   UNL     1       6.562   4.650  14.828  0.00  0.00    +0.000 A 
ATOM     18  N   UNL     1       7.317   4.440  15.887  0.00  0.00    +0.000 NA
ATOM     19  C   UNL     1       6.834   5.159  16.973  0.00  0.00    +0.000 A 
ATOM     20  C   UNL     1       7.614   5.131  18.234  0.00  0.00    +0.000 C 
ATOM     21  C   UNL     1       5.692   5.889  16.709  0.00  0.00    +0.000 A 
ATOM     22  S   UNL     1       5.258   5.748  15.066  0.00  0.00    +0.000 S 
ENDBRANCH  14  21
ENDBRANCH   1  14
TORSDOF 3
ENDMDL
MODEL 7
REMARK VINA RESULT:      -7.1      4.950      6.966
REMARK  Name = 
REMARK  5 active torsions:
REMARK  status: ('A' for Active; 'I' for Inactive)
REMARK    1  A    between atoms: C_1  and  C_2
REMARK    2  A    between atoms: C_4  and  C_5
REMARK    3  A    between atoms: C_6  and  N_7
REMARK    4  A    between atoms: N_7  and  S_8
REMARK    5  A    between atoms: S_8  and  C_11
REMARK                            x       y       z     vdW  Elec       q    Type
REMARK                         _______ _______ _______ _____ _____    ______ ____
ROOT
ATOM      1  S   UNL     1       3.482   6.315  18.183  0.00  0.00    +0.000 S 
ATOM      2  O   UNL     1       4.213   5.891  19.352  0.00  0.00    +0.000 OA
ATOM      3  O   UNL     1       4.139   6.683  16.948  0.00  0.00    +0.000 OA
ENDROOT
BRANCH   1   4
ATOM      4  C   UNL     1       2.470   7.699  18.671  0.00  0.00    +0.000 A 
ATOM      5  C   UNL     1       2.197   8.700  17.740  0.00  0.00    +0.000 A 
ATOM      6  C   UNL     1       1.390   9.775  18.109  0.00  0.00    +0.000 A 
ATOM      7  C   UNL     1       0.856   9.865  19.404  0.00  0.00    +0.000 A 
ATOM      8  C   UNL     1       1.165   8.873  20.355  0.00  0.00    +0.000 A 
ATOM      9  C   UNL     1       1.960   7.778  19.973  0.00  0.00    +0.000 A 
ATOM     10  C   UNL     1       0.618   8.936  21.763  0.00  0.00    +0.000 C 
ATOM     11  C   UNL     1       0.073  10.313  22.150  0.00  0.00    +0.000 C 
ATOM     12  C   UNL     1      -0.804  10.872  21.038  0.00  0.00    +0.000 C 
ATOM     13  C   UNL     1       0.016  11.069  19.764  0.00  0.00    +0.000 C 
ENDBRANCH   1   4
BRANCH   1  14
ATOM     14  N   UNL     1       2.281   5.125  17.870  0.00  0.00    +0.000 N 
ATOM     15  H   UNL     1       1.396   5.625  17.795  0.00  0.00    +0.000 HD
BRANCH  14  21
ATOM     16  C   UNL     1       1.227   2.250  22.160  0.00  0.00    +0.000 C 
ATOM     17  C   UNL     1       1.713   2.790  20.859  0.00  0.00    +0.000 A 
ATOM     18  N   UNL     1       2.471   2.116  20.020  0.00  0.00    +0.000 NA
ATOM     19  C   UNL     1       2.753   2.886  18.900  0.00  0.00    +0.000 A 
ATOM     20  C   UNL     1       3.512   2.259  17.790  0.00  0.00    +0.000 C 
ATOM     21  C   UNL     1       2.209   4.155  18.931  0.00  0.00    +0.000 A 
ATOM     22  S   UNL     1       1.264   4.367  20.335  0.00  0.00    +0.000 S 
ENDBRANCH  14  21
ENDBRANCH   1  14
TORSDOF 3
ENDMDL
MODEL 8
REMARK VINA RESULT:      -7.1      1.444      1.772
REMARK  Name = 
REMARK  5 active torsions:
REMARK  status: ('A' for Active; 'I' for Inactive)
REMARK    1  A    between atoms: C_1  and  C_2
REMARK    2  A    between atoms: C_4  and  C_5
REMARK    3  A    between atoms: C_6  and  N_7
REMARK    4  A    between atoms: N_7  and  S_8
REMARK    5  A    between atoms: S_8  and  C_11
REMARK                            x       y       z     vdW  Elec       q    Type
REMARK                         _______ _______ _______ _____ _____    ______ ____
ROOT
ATOM      1  S   UNL     1       6.833   5.399  16.449  0.00  0.00    +0.000 S 
ATOM      2  O   UNL     1       7.654   4.242  16.183  0.00  0.00    +0.000 OA
ATOM      3  O   UNL     1       7.320   6.542  17.191  0.00  0.00    +0.000 OA
ENDROOT
BRANCH   1   4
ATOM      4  C   UNL     1       5.365   4.822  17.280  0.00  0.00    +0.000 A 
ATOM      5  C   UNL     1       4.816   3.595  16.910  0.00  0.00    +0.000 A 
ATOM      6  C   UNL     1       3.680   3.128  17.569  0.00  0.00    +0.000 A 
ATOM      7  C   UNL     1       3.081   3.878  18.593  0.00  0.00    +0.000 A 
ATOM      8  C   UNL     1       3.614   5.135  18.938  0.00  0.00    +0.000 A 
ATOM      9  C   UNL     1       4.773   5.593  18.288  0.00  0.00    +0.000 A 
ATOM     10  C   UNL     1       2.994   5.979  20.029  0.00  0.00    +0.000 C 
ATOM     11  C   UNL     1       1.576   5.550  20.408  0.00  0.00    +0.000 C 
ATOM     12  C   UNL     1       1.502   4.038  20.572  0.00  0.00    +0.000 C 
ATOM     13  C   UNL     1       1.830   3.344  19.252  0.00  0.00    +0.000 C 
ENDBRANCH   1   4
BRANCH   1  14
ATOM     14  N   UNL     1       6.177   5.917  14.947  0.00  0.00    +0.000 N 
ATOM     15  H   UNL     1       5.181   6.071  15.108  0.00  0.00    +0.000 HD
BRANCH  14  21
ATOM     16  C   UNL     1       5.802   2.006  11.434  0.00  0.00    +0.000 C 
ATOM     17  C   UNL     1       6.203   3.176  12.264  0.00  0.00    +0.000 A 
ATOM     18  N   UNL     1       7.288   3.892  12.053  0.00  0.00    +0.000 NA
ATOM     19  C   UNL     1       7.383   4.912  12.991  0.00  0.00    +0.000 A 
ATOM     20  C   UNL     1       8.489   5.891  12.852  0.00  0.00    +0.000 C 
ATOM     21  C   UNL     1       6.361   4.928  13.919  0.00  0.00    +0.000 A 
ATOM     22  S   UNL     1       5.220   3.708  13.573  0.00  0.00    +0.000 S 
ENDBRANCH  14  21
ENDBRANCH   1  14
TORSDOF 3
ENDMDL
MODEL 9
REMARK VINA RESULT:      -7.1      4.169      5.069
REMARK  Name = 
REMARK  5 active torsions:
REMARK  status: ('A' for Active; 'I' for Inactive)
REMARK    1  A    between atoms: C_1  and  C_2
REMARK    2  A    between atoms: C_4  and  C_5
REMARK    3  A    between atoms: C_6  and  N_7
REMARK    4  A    between atoms: N_7  and  S_8
REMARK    5  A    between atoms: S_8  and  C_11
REMARK                            x       y       z     vdW  Elec       q    Type
REMARK                         _______ _______ _______ _____ _____    ______ ____
ROOT
ATOM      1  S   UNL     1       3.692   5.709  18.566  0.00  0.00    +0.000 S 
ATOM      2  O   UNL     1       2.948   4.973  17.573  0.00  0.00    +0.000 OA
ATOM      3  O   UNL     1       4.341   5.062  19.686  0.00  0.00    +0.000 OA
ENDROOT
BRANCH   1   4
ATOM      4  C   UNL     1       2.593   6.942  19.238  0.00  0.00    +0.000 A 
ATOM      5  C   UNL     1       2.039   6.738  20.500  0.00  0.00    +0.000 A 
ATOM      6  C   UNL     1       1.194   7.707  21.040  0.00  0.00    +0.000 A 
ATOM      7  C   UNL     1       0.892   8.878  20.328  0.00  0.00    +0.000 A 
ATOM      8  C   UNL     1       1.422   9.064  19.037  0.00  0.00    +0.000 A 
ATOM      9  C   UNL     1       2.291   8.096  18.504  0.00  0.00    +0.000 A 
ATOM     10  C   UNL     1       1.115  10.306  18.231  0.00  0.00    +0.000 C 
ATOM     11  C   UNL     1      -0.087  11.096  18.754  0.00  0.00    +0.000 C 
ATOM     12  C   UNL     1      -0.007  11.250  20.267  0.00  0.00    +0.000 C 
ATOM     13  C   UNL     1      -0.057   9.882  20.943  0.00  0.00    +0.000 C 
ENDBRANCH   1   4
BRANCH   1  14
ATOM     14  N   UNL     1       4.823   6.698  17.730  0.00  0.00    +0.000 N 
ATOM     15  H   UNL     1       4.274   7.383  17.211  0.00  0.00    +0.000 HD
BRANCH  14  21
ATOM     16  C   UNL     1       7.101   4.293  13.631  0.00  0.00    +0.000 C 
ATOM     17  C   UNL     1       6.729   4.852  14.961  0.00  0.00    +0.000 A 
ATOM     18  N   UNL     1       7.472   4.738  16.041  0.00  0.00    +0.000 NA
ATOM     19  C   UNL     1       6.857   5.365  17.118  0.00  0.00    +0.000 A 
ATOM     20  C   UNL     1       7.593   5.432  18.404  0.00  0.00    +0.000 C 
ATOM     21  C   UNL     1       5.631   5.927  16.823  0.00  0.00    +0.000 A 
ATOM     22  S   UNL     1       5.273   5.748  15.165  0.00  0.00    +0.000 S 
ENDBRANCH  14  21
ENDBRANCH   1  14
TORSDOF 3
ENDMDL
