MODEL 1
REMARK VINA RESULT:      -6.9      0.000      0.000
REMARK  Name = 
REMARK  7 active torsions:
REMARK  status: ('A' for Active; 'I' for Inactive)
REMARK    1  A    between atoms: C_1  and  C_2
REMARK    2  A    between atoms: C_5  and  C_6
REMARK    3  A    between atoms: C_6  and  C_7
REMARK    4  A    between atoms: C_6  and  C_8
REMARK    5  A    between atoms: C_6  and  O_9
REMARK    6  A    between atoms: C_14  and  O_15
REMARK    7  A    between atoms: C_16  and  C_17
REMARK                            x       y       z     vdW  Elec       q    Type
REMARK                         _______ _______ _______ _____ _____    ______ ____
ROOT
ATOM      1  C   UNL     1       2.384   7.458  19.683  0.00  0.00    +0.000 C 
ATOM      2  C   UNL     1       2.294   6.580  18.426  0.00  0.00    +0.000 C 
ATOM      3  C   UNL     1       3.111   7.194  17.276  0.00  0.00    +0.000 C 
ATOM      4  C   UNL     1       4.624   7.062  17.447  0.00  0.00    +0.000 C 
ATOM      5  C   UNL     1       5.242   5.786  16.832  0.00  0.00    +0.000 C 
ATOM      6  C   UNL     1       4.686   4.444  17.349  0.00  0.00    +0.000 C 
ATOM      7  C   UNL     1       3.179   4.253  17.577  0.00  0.00    +0.000 C 
ATOM      8  C   UNL     1       2.642   5.138  18.679  0.00  0.00    +0.000 C 
ATOM      9  C   UNL     1       2.510   4.451  19.827  0.00  0.00    +0.000 C 
ATOM     10  C   UNL     1       2.854   3.007  19.675  0.00  0.00    +0.000 C 
ATOM     11  C   UNL     1       2.831   2.843  18.145  0.00  0.00    +0.000 C 
ATOM     12  C   UNL     1       3.669   1.677  17.630  0.00  0.00    +0.000 C 
ENDROOT
BRANCH   5  13
ATOM     13  C   UNL     1       6.815   5.803  16.945  0.00  0.00    +0.000 C 
ATOM     14  C   UNL     1       7.381   7.089  17.573  0.00  0.00    +0.000 C 
ATOM     15  C   UNL     1       7.349   4.598  17.734  0.00  0.00    +0.000 C 
BRANCH  13  16
ATOM     16  O   UNL     1       7.370   5.676  15.629  0.00  0.00    +0.000 OA
ATOM     17  H   UNL     1       8.257   6.075  15.629  0.00  0.00    +0.000 HD
ENDBRANCH  13  16
ENDBRANCH   5  13
BRANCH  10  18
ATOM     18  O   UNL     1       4.119   2.752  20.254  0.00  0.00    +0.000 OA
ATOM     19  H   UNL     1       4.485   1.955  19.839  0.00  0.00    +0.000 HD
ENDBRANCH  10  18
TORSDOF 3
ENDMDL
MODEL 2
REMARK VINA RESULT:      -6.9      1.142      1.344
REMARK  Name = 
REMARK  7 active torsions:
REMARK  status: ('A' for Active; 'I' for Inactive)
REMARK    1  A    between atoms: C_1  and  C_2
REMARK    2  A    between atoms: C_5  and  C_6
REMARK    3  A    between atoms: C_6  and  C_7
REMARK    4  A    between atoms: C_6  and  C_8
REMARK    5  A    between atoms: C_6  and  O_9
REMARK    6  A    between atoms: C_14  and  O_15
REMARK    7  A    between atoms: C_16  and  C_17
REMARK                            x       y       z     vdW  Elec       q    Type
REMARK                         _______ _______ _______ _____ _____    ______ ____
ROOT
ATOM      1  C   UNL     1       2.305   7.732  19.764  0.00  0.00    +0.000 C 
ATOM      2  C   UNL     1       2.132   6.873  18.503  0.00  0.00    +0.000 C 
ATOM      3  C   UNL     1       3.154   7.280  17.426  0.00  0.00    +0.000 C 
ATOM      4  C   UNL     1       4.584   6.830  17.724  0.00  0.00    +0.000 C 
ATOM      5  C   UNL     1       4.962   5.442  17.160  0.00  0.00    +0.000 C 
ATOM      6  C   UNL     1       4.091   4.258  17.625  0.00  0.00    +0.000 C 
ATOM      7  C   UNL     1       2.564   4.398  17.726  0.00  0.00    +0.000 C 
ATOM      8  C   UNL     1       2.140   5.394  18.780  0.00  0.00    +0.000 C 
ATOM      9  C   UNL     1       1.770   4.771  19.912  0.00  0.00    +0.000 C 
ATOM     10  C   UNL     1       1.807   3.284  19.786  0.00  0.00    +0.000 C 
ATOM     11  C   UNL     1       1.876   3.104  18.260  0.00  0.00    +0.000 C 
ATOM     12  C   UNL     1       2.484   1.778  17.814  0.00  0.00    +0.000 C 
ENDROOT
BRANCH   5  13
ATOM     13  C   UNL     1       6.488   5.124  17.404  0.00  0.00    +0.000 C 
ATOM     14  C   UNL     1       7.217   4.577  16.165  0.00  0.00    +0.000 C 
ATOM     15  C   UNL     1       7.255   6.350  17.921  0.00  0.00    +0.000 C 
BRANCH  13  16
ATOM     16  O   UNL     1       6.591   4.141  18.443  0.00  0.00    +0.000 OA
ATOM     17  H   UNL     1       6.495   3.260  18.044  0.00  0.00    +0.000 HD
ENDBRANCH  13  16
ENDBRANCH   5  13
BRANCH  10  18
ATOM     18  O   UNL     1       2.936   2.774  20.470  0.00  0.00    +0.000 OA
ATOM     19  H   UNL     1       3.246   3.455  21.088  0.00  0.00    +0.000 HD
ENDBRANCH  10  18
TORSDOF 3
ENDMDL
MODEL 3
REMARK VINA RESULT:      -6.6      1.417      4.515
REMARK  Name = 
REMARK  7 active torsions:
REMARK  status: ('A' for Active; 'I' for Inactive)
REMARK    1  A    between atoms: C_1  and  C_2
REMARK    2  A    between atoms: C_5  and  C_6
REMARK    3  A    between atoms: C_6  and  C_7
REMARK    4  A    between atoms: C_6  and  C_8
REMARK    5  A    between atoms: C_6  and  O_9
REMARK    6  A    between atoms: C_14  and  O_15
REMARK    7  A    between atoms: C_16  and  C_17
REMARK                            x       y       z     vdW  Elec       q    Type
REMARK                         _______ _______ _______ _____ _____    ______ ____
ROOT
ATOM      1  C   UNL     1       2.083   7.997  17.566  0.00  0.00    +0.000 C 
ATOM      2  C   UNL     1       3.195   7.403  18.445  0.00  0.00    +0.000 C 
ATOM      3  C   UNL     1       2.602   6.459  19.504  0.00  0.00    +0.000 C 
ATOM      4  C   UNL     1       2.118   5.121  18.945  0.00  0.00    +0.000 C 
ATOM      5  C   UNL     1       3.177   3.995  18.938  0.00  0.00    +0.000 C 
ATOM      6  C   UNL     1       4.472   4.284  18.154  0.00  0.00    +0.000 C 
ATOM      7  C   UNL     1       5.153   5.659  18.240  0.00  0.00    +0.000 C 
ATOM      8  C   UNL     1       4.305   6.764  17.654  0.00  0.00    +0.000 C 
ATOM      9  C   UNL     1       4.708   7.074  16.409  0.00  0.00    +0.000 C 
ATOM     10  C   UNL     1       5.914   6.301  15.989  0.00  0.00    +0.000 C 
ATOM     11  C   UNL     1       6.420   5.760  17.337  0.00  0.00    +0.000 C 
ATOM     12  C   UNL     1       7.275   4.501  17.223  0.00  0.00    +0.000 C 
ENDROOT
BRANCH   5  13
ATOM     13  C   UNL     1       2.549   2.626  18.467  0.00  0.00    +0.000 C 
ATOM     14  C   UNL     1       3.527   1.440  18.528  0.00  0.00    +0.000 C 
ATOM     15  C   UNL     1       1.290   2.264  19.270  0.00  0.00    +0.000 C 
BRANCH  13  16
ATOM     16  O   UNL     1       2.111   2.766  17.109  0.00  0.00    +0.000 OA
ATOM     17  H   UNL     1       1.459   2.069  16.923  0.00  0.00    +0.000 HD
ENDBRANCH  13  16
ENDBRANCH   5  13
BRANCH  10  18
ATOM     18  O   UNL     1       5.539   5.288  15.075  0.00  0.00    +0.000 OA
ATOM     19  H   UNL     1       5.509   5.681  14.187  0.00  0.00    +0.000 HD
ENDBRANCH  10  18
TORSDOF 3
ENDMDL
MODEL 4
REMARK VINA RESULT:      -6.5      1.170      4.515
REMARK  Name = 
REMARK  7 active torsions:
REMARK  status: ('A' for Active; 'I' for Inactive)
REMARK    1  A    between atoms: C_1  and  C_2
REMARK    2  A    between atoms: C_5  and  C_6
REMARK    3  A    between atoms: C_6  and  C_7
REMARK    4  A    between atoms: C_6  and  C_8
REMARK    5  A    between atoms: C_6  and  O_9
REMARK    6  A    between atoms: C_14  and  O_15
REMARK    7  A    between atoms: C_16  and  C_17
REMARK                            x       y       z     vdW  Elec       q    Type
REMARK                         _______ _______ _______ _____ _____    ______ ____
ROOT
ATOM      1  C   UNL     1       2.107   7.708  17.515  0.00  0.00    +0.000 C 
ATOM      2  C   UNL     1       3.266   7.288  18.431  0.00  0.00    +0.000 C 
ATOM      3  C   UNL     1       2.752   6.420  19.592  0.00  0.00    +0.000 C 
ATOM      4  C   UNL     1       2.359   5.001  19.182  0.00  0.00    +0.000 C 
ATOM      5  C   UNL     1       3.494   3.957  19.273  0.00  0.00    +0.000 C 
ATOM      6  C   UNL     1       4.759   4.252  18.442  0.00  0.00    +0.000 C 
ATOM      7  C   UNL     1       5.341   5.672  18.374  0.00  0.00    +0.000 C 
ATOM      8  C   UNL     1       4.411   6.649  17.692  0.00  0.00    +0.000 C 
ATOM      9  C   UNL     1       4.779   6.854  16.415  0.00  0.00    +0.000 C 
ATOM     10  C   UNL     1       6.033   6.127  16.056  0.00  0.00    +0.000 C 
ATOM     11  C   UNL     1       6.589   5.766  17.445  0.00  0.00    +0.000 C 
ATOM     12  C   UNL     1       7.530   4.565  17.446  0.00  0.00    +0.000 C 
ENDROOT
BRANCH   5  13
ATOM     13  C   UNL     1       2.961   2.506  18.957  0.00  0.00    +0.000 C 
ATOM     14  C   UNL     1       1.820   2.046  19.881  0.00  0.00    +0.000 C 
ATOM     15  C   UNL     1       2.495   2.369  17.500  0.00  0.00    +0.000 C 
BRANCH  13  16
ATOM     16  O   UNL     1       4.045   1.578  19.102  0.00  0.00    +0.000 OA
ATOM     17  H   UNL     1       4.878   2.051  18.942  0.00  0.00    +0.000 HD
ENDBRANCH  13  16
ENDBRANCH   5  13
BRANCH  10  18
ATOM     18  O   UNL     1       5.722   5.002  15.258  0.00  0.00    +0.000 OA
ATOM     19  H   UNL     1       5.133   5.294  14.544  0.00  0.00    +0.000 HD
ENDBRANCH  10  18
TORSDOF 3
ENDMDL
MODEL 5
REMARK VINA RESULT:      -6.4      0.950      1.059
REMARK  Name = 
REMARK  7 active torsions:
REMARK  status: ('A' for Active; 'I' for Inactive)
REMARK    1  A    between atoms: C_1  and  C_2
REMARK    2  A    between atoms: C_5  and  C_6
REMARK    3  A    between atoms: C_6  and  C_7
REMARK    4  A    between atoms: C_6  and  C_8
REMARK    5  A    between atoms: C_6  and  O_9
REMARK    6  A    between atoms: C_14  and  O_15
REMARK    7  A    between atoms: C_16  and  C_17
REMARK                            x       y       z     vdW  Elec       q    Type
REMARK                         _______ _______ _______ _____ _____    ______ ____
ROOT
ATOM      1  C   UNL     1       2.215   6.826  20.403  0.00  0.00    +0.000 C 
ATOM      2  C   UNL     1       1.997   5.920  19.182  0.00  0.00    +0.000 C 
ATOM      3  C   UNL     1       2.499   6.608  17.900  0.00  0.00    +0.000 C 
ATOM      4  C   UNL     1       4.022   6.664  17.779  0.00  0.00    +0.000 C 
ATOM      5  C   UNL     1       4.663   5.462  17.051  0.00  0.00    +0.000 C 
ATOM      6  C   UNL     1       4.385   4.072  17.657  0.00  0.00    +0.000 C 
ATOM      7  C   UNL     1       2.983   3.703  18.168  0.00  0.00    +0.000 C 
ATOM      8  C   UNL     1       2.561   4.536  19.356  0.00  0.00    +0.000 C 
ATOM      9  C   UNL     1       2.734   3.860  20.505  0.00  0.00    +0.000 C 
ATOM     10  C   UNL     1       3.218   2.465  20.282  0.00  0.00    +0.000 C 
ATOM     11  C   UNL     1       2.925   2.272  18.784  0.00  0.00    +0.000 C 
ATOM     12  C   UNL     1       3.788   1.208  18.113  0.00  0.00    +0.000 C 
ENDROOT
BRANCH   5  13
ATOM     13  C   UNL     1       6.215   5.672  16.862  0.00  0.00    +0.000 C 
ATOM     14  C   UNL     1       7.014   5.630  18.176  0.00  0.00    +0.000 C 
ATOM     15  C   UNL     1       6.820   4.649  15.888  0.00  0.00    +0.000 C 
BRANCH  13  16
ATOM     16  O   UNL     1       6.433   6.954  16.256  0.00  0.00    +0.000 OA
ATOM     17  H   UNL     1       7.308   6.948  15.832  0.00  0.00    +0.000 HD
ENDBRANCH  13  16
ENDBRANCH   5  13
BRANCH  10  18
ATOM     18  O   UNL     1       4.592   2.378  20.609  0.00  0.00    +0.000 OA
ATOM     19  H   UNL     1       4.684   2.531  21.563  0.00  0.00    +0.000 HD
ENDBRANCH  10  18
TORSDOF 3
ENDMDL
MODEL 6
REMARK VINA RESULT:      -6.2      2.101      3.271
REMARK  Name = 
REMARK  7 active torsions:
REMARK  status: ('A' for Active; 'I' for Inactive)
REMARK    1  A    between atoms: C_1  and  C_2
REMARK    2  A    between atoms: C_5  and  C_6
REMARK    3  A    between atoms: C_6  and  C_7
REMARK    4  A    between atoms: C_6  and  C_8
REMARK    5  A    between atoms: C_6  and  O_9
REMARK    6  A    between atoms: C_14  and  O_15
REMARK    7  A    between atoms: C_16  and  C_17
REMARK                            x       y       z     vdW  Elec       q    Type
REMARK                         _______ _______ _______ _____ _____    ______ ____
ROOT
ATOM      1  C   UNL     1       7.840   5.624  19.205  0.00  0.00    +0.000 C 
ATOM      2  C   UNL     1       6.532   6.169  18.611  0.00  0.00    +0.000 C 
ATOM      3  C   UNL     1       6.784   6.792  17.227  0.00  0.00    +0.000 C 
ATOM      4  C   UNL     1       7.039   5.769  16.121  0.00  0.00    +0.000 C 
ATOM      5  C   UNL     1       5.777   5.293  15.368  0.00  0.00    +0.000 C 
ATOM      6  C   UNL     1       4.673   4.648  16.230  0.00  0.00    +0.000 C 
ATOM      7  C   UNL     1       4.291   5.245  17.593  0.00  0.00    +0.000 C 
ATOM      8  C   UNL     1       5.415   5.161  18.599  0.00  0.00    +0.000 C 
ATOM      9  C   UNL     1       5.237   4.125  19.438  0.00  0.00    +0.000 C 
ATOM     10  C   UNL     1       3.954   3.402  19.190  0.00  0.00    +0.000 C 
ATOM     11  C   UNL     1       3.189   4.418  18.323  0.00  0.00    +0.000 C 
ATOM     12  C   UNL     1       2.109   3.797  17.442  0.00  0.00    +0.000 C 
ENDROOT
BRANCH   5  13
ATOM     13  C   UNL     1       6.154   4.343  14.166  0.00  0.00    +0.000 C 
ATOM     14  C   UNL     1       5.016   4.140  13.151  0.00  0.00    +0.000 C 
ATOM     15  C   UNL     1       7.399   4.836  13.412  0.00  0.00    +0.000 C 
BRANCH  13  16
ATOM     16  O   UNL     1       6.508   3.057  14.692  0.00  0.00    +0.000 OA
ATOM     17  H   UNL     1       5.691   2.582  14.920  0.00  0.00    +0.000 HD
ENDBRANCH  13  16
ENDBRANCH   5  13
BRANCH  10  18
ATOM     18  O   UNL     1       4.214   2.177  18.534  0.00  0.00    +0.000 OA
ATOM     19  H   UNL     1       3.607   1.509  18.893  0.00  0.00    +0.000 HD
ENDBRANCH  10  18
TORSDOF 3
ENDMDL
MODEL 7
REMARK VINA RESULT:      -5.9      1.697      4.689
REMARK  Name = 
REMARK  7 active torsions:
REMARK  status: ('A' for Active; 'I' for Inactive)
REMARK    1  A    between atoms: C_1  and  C_2
REMARK    2  A    between atoms: C_5  and  C_6
REMARK    3  A    between atoms: C_6  and  C_7
REMARK    4  A    between atoms: C_6  and  C_8
REMARK    5  A    between atoms: C_6  and  O_9
REMARK    6  A    between atoms: C_14  and  O_15
REMARK    7  A    between atoms: C_16  and  C_17
REMARK                            x       y       z     vdW  Elec       q    Type
REMARK                         _______ _______ _______ _____ _____    ______ ____
ROOT
ATOM      1  C   UNL     1       1.553   8.091  17.776  0.00  0.00    +0.000 C 
ATOM      2  C   UNL     1       2.699   7.761  18.743  0.00  0.00    +0.000 C 
ATOM      3  C   UNL     1       2.147   7.221  20.074  0.00  0.00    +0.000 C 
ATOM      4  C   UNL     1       1.602   5.796  19.990  0.00  0.00    +0.000 C 
ATOM      5  C   UNL     1       2.633   4.684  20.289  0.00  0.00    +0.000 C 
ATOM      6  C   UNL     1       3.888   4.661  19.393  0.00  0.00    +0.000 C 
ATOM      7  C   UNL     1       4.603   5.965  19.008  0.00  0.00    +0.000 C 
ATOM      8  C   UNL     1       3.747   6.863  18.144  0.00  0.00    +0.000 C 
ATOM      9  C   UNL     1       4.086   6.749  16.847  0.00  0.00    +0.000 C 
ATOM     10  C   UNL     1       5.248   5.836  16.636  0.00  0.00    +0.000 C 
ATOM     11  C   UNL     1       5.818   5.727  18.061  0.00  0.00    +0.000 C 
ATOM     12  C   UNL     1       6.636   4.464  18.310  0.00  0.00    +0.000 C 
ENDROOT
BRANCH   5  13
ATOM     13  C   UNL     1       1.950   3.263  20.305  0.00  0.00    +0.000 C 
ATOM     14  C   UNL     1       2.475   2.306  19.220  0.00  0.00    +0.000 C 
ATOM     15  C   UNL     1       2.087   2.574  21.672  0.00  0.00    +0.000 C 
BRANCH  13  16
ATOM     16  O   UNL     1       0.540   3.429  20.100  0.00  0.00    +0.000 OA
ATOM     17  H   UNL     1       0.266   4.264  20.514  0.00  0.00    +0.000 HD
ENDBRANCH  13  16
ENDBRANCH   5  13
BRANCH  10  18
ATOM     18  O   UNL     1       4.798   4.603  16.108  0.00  0.00    +0.000 OA
ATOM     19  H   UNL     1       4.001   4.340  16.595  0.00  0.00    +0.000 HD
ENDBRANCH  10  18
TORSDOF 3
ENDMDL
MODEL 8
REMARK VINA RESULT:      -5.9      1.593      1.962
REMARK  Name = 
REMARK  7 active torsions:
REMARK  status: ('A' for Active; 'I' for Inactive)
REMARK    1  A    between atoms: C_1  and  C_2
REMARK    2  A    between atoms: C_5  and  C_6
REMARK    3  A    between atoms: C_6  and  C_7
REMARK    4  A    between atoms: C_6  and  C_8
REMARK    5  A    between atoms: C_6  and  O_9
REMARK    6  A    between atoms: C_14  and  O_15
REMARK    7  A    between atoms: C_16  and  C_17
REMARK                            x       y       z     vdW  Elec       q    Type
REMARK                         _______ _______ _______ _____ _____    ______ ____
ROOT
ATOM      1  C   UNL     1       2.588   8.823  18.720  0.00  0.00    +0.000 C 
ATOM      2  C   UNL     1       2.276   7.529  17.953  0.00  0.00    +0.000 C 
ATOM      3  C   UNL     1       3.299   7.308  16.825  0.00  0.00    +0.000 C 
ATOM      4  C   UNL     1       4.678   6.867  17.314  0.00  0.00    +0.000 C 
ATOM      5  C   UNL     1       4.877   5.338  17.414  0.00  0.00    +0.000 C 
ATOM      6  C   UNL     1       3.894   4.583  18.330  0.00  0.00    +0.000 C 
ATOM      7  C   UNL     1       2.397   4.930  18.334  0.00  0.00    +0.000 C 
ATOM      8  C   UNL     1       2.126   6.326  18.844  0.00  0.00    +0.000 C 
ATOM      9  C   UNL     1       1.727   6.301  20.128  0.00  0.00    +0.000 C 
ATOM     10  C   UNL     1       1.592   4.913  20.659  0.00  0.00    +0.000 C 
ATOM     11  C   UNL     1       1.586   4.085  19.363  0.00  0.00    +0.000 C 
ATOM     12  C   UNL     1       2.025   2.635  19.547  0.00  0.00    +0.000 C 
ENDROOT
BRANCH   5  13
ATOM     13  C   UNL     1       6.365   4.981  17.799  0.00  0.00    +0.000 C 
ATOM     14  C   UNL     1       7.222   4.517  16.609  0.00  0.00    +0.000 C 
ATOM     15  C   UNL     1       7.078   6.154  18.488  0.00  0.00    +0.000 C 
BRANCH  13  16
ATOM     16  O   UNL     1       6.346   3.922  18.766  0.00  0.00    +0.000 OA
ATOM     17  H   UNL     1       5.632   4.098  19.401  0.00  0.00    +0.000 HD
ENDBRANCH  13  16
ENDBRANCH   5  13
BRANCH  10  18
ATOM     18  O   UNL     1       2.679   4.621  21.516  0.00  0.00    +0.000 OA
ATOM     19  H   UNL     1       2.710   5.304  22.206  0.00  0.00    +0.000 HD
ENDBRANCH  10  18
TORSDOF 3
ENDMDL
MODEL 9
REMARK VINA RESULT:      -5.7      7.992     10.239
REMARK  Name = 
REMARK  7 active torsions:
REMARK  status: ('A' for Active; 'I' for Inactive)
REMARK    1  A    between atoms: C_1  and  C_2
REMARK    2  A    between atoms: C_5  and  C_6
REMARK    3  A    between atoms: C_6  and  C_7
REMARK    4  A    between atoms: C_6  and  C_8
REMARK    5  A    between atoms: C_6  and  O_9
REMARK    6  A    between atoms: C_14  and  O_15
REMARK    7  A    between atoms: C_16  and  C_17
REMARK                            x       y       z     vdW  Elec       q    Type
REMARK                         _______ _______ _______ _____ _____    ______ ____
ROOT
ATOM      1  C   UNL     1      -0.329   9.132  22.605  0.00  0.00    +0.000 C 
ATOM      2  C   UNL     1       0.014  10.570  22.187  0.00  0.00    +0.000 C 
ATOM      3  C   UNL     1       0.587  10.598  20.759  0.00  0.00    +0.000 C 
ATOM      4  C   UNL     1      -0.456  10.365  19.666  0.00  0.00    +0.000 C 
ATOM      5  C   UNL     1      -1.127  11.646  19.121  0.00  0.00    +0.000 C 
ATOM      6  C   UNL     1      -1.857  12.524  20.156  0.00  0.00    +0.000 C 
ATOM      7  C   UNL     1      -1.239  12.789  21.537  0.00  0.00    +0.000 C 
ATOM      8  C   UNL     1      -1.125  11.535  22.373  0.00  0.00    +0.000 C 
ATOM      9  C   UNL     1      -2.128  11.457  23.266  0.00  0.00    +0.000 C 
ATOM     10  C   UNL     1      -3.019  12.655  23.233  0.00  0.00    +0.000 C 
ATOM     11  C   UNL     1      -2.157  13.660  22.449  0.00  0.00    +0.000 C 
ATOM     12  C   UNL     1      -2.956  14.760  21.756  0.00  0.00    +0.000 C 
ENDROOT
BRANCH   5  13
ATOM     13  C   UNL     1      -2.087  11.316  17.912  0.00  0.00    +0.000 C 
ATOM     14  C   UNL     1      -1.932   9.886  17.367  0.00  0.00    +0.000 C 
ATOM     15  C   UNL     1      -3.563  11.546  18.271  0.00  0.00    +0.000 C 
BRANCH  13  16
ATOM     16  O   UNL     1      -1.806  12.227  16.842  0.00  0.00    +0.000 OA
ATOM     17  H   UNL     1      -2.530  12.874  16.790  0.00  0.00    +0.000 HD
ENDBRANCH  13  16
ENDBRANCH   5  13
BRANCH  10  18
ATOM     18  O   UNL     1      -4.236  12.329  22.591  0.00  0.00    +0.000 OA
ATOM     19  H   UNL     1      -4.113  11.487  22.122  0.00  0.00    +0.000 HD
ENDBRANCH  10  18
TORSDOF 3
ENDMDL
