MODEL 1
REMARK VINA RESULT:      -7.6      0.000      0.000
REMARK  Name = 
REMARK  15 active torsions:
REMARK  status: ('A' for Active; 'I' for Inactive)
REMARK    1  A    between atoms: C_1  and  C_2
REMARK    2  A    between atoms: C_2  and  C_3
REMARK    3  A    between atoms: C_3  and  C_4
REMARK    4  A    between atoms: C_4  and  C_5
REMARK    5  A    between atoms: C_5  and  C_6
REMARK    6  A    between atoms: C_6  and  O_7
REMARK    7  A    between atoms: C_6  and  C_8
REMARK    8  A    between atoms: C_9  and  C_10
REMARK    9  A    between atoms: C_18  and  C_19
REMARK   10  A    between atoms: C_19  and  C_20
REMARK   11  A    between atoms: C_21  and  C_22
REMARK   12  A    between atoms: C_22  and  C_23
REMARK   13  A    between atoms: C_23  and  C_24
REMARK   14  A    between atoms: C_24  and  C_25
REMARK   15  A    between atoms: C_25  and  O_27
REMARK                            x       y       z     vdW  Elec       q    Type
REMARK                         _______ _______ _______ _____ _____    ______ ____
ROOT
ATOM      1  C   UNL     1       5.563   5.310  18.678  0.00  0.00    +0.000 C 
ATOM      2  C   UNL     1       7.075   5.179  18.406  0.00  0.00    +0.000 C 
ATOM      3  C   UNL     1       7.197   4.782  16.951  0.00  0.00    +0.000 C 
ATOM      4  C   UNL     1       6.245   5.816  16.401  0.00  0.00    +0.000 C 
ATOM      5  O   UNL     1       6.883   7.099  16.506  0.00  0.00    +0.000 OA
ATOM      6  C   UNL     1       7.577   7.441  17.634  0.00  0.00    +0.000 C 
ATOM      7  O   UNL     1       8.070   8.551  17.772  0.00  0.00    +0.000 OA
ATOM      8  O   UNL     1       7.688   6.474  18.583  0.00  0.00    +0.000 OA
ATOM      9  C   UNL     1       4.997   5.739  17.300  0.00  0.00    +0.000 C 
ENDROOT
BRANCH   1  11
ATOM     10  C   UNL     1       4.237   3.197  18.352  0.00  0.00    +0.000 C 
ATOM     11  C   UNL     1       4.965   4.008  19.139  0.00  0.00    +0.000 C 
BRANCH  10  12
ATOM     12  C   UNL     1       3.628   1.884  18.747  0.00  0.00    +0.000 C 
BRANCH  12  13
ATOM     13  O   UNL     1       4.277   0.814  18.063  0.00  0.00    +0.000 OA
ATOM     14  H   UNL     1       5.223   0.881  18.274  0.00  0.00    +0.000 HD
ENDBRANCH  12  13
BRANCH  12  15
ATOM     15  C   UNL     1       2.130   1.873  18.423  0.00  0.00    +0.000 C 
BRANCH  15  16
ATOM     16  C   UNL     1       1.293   2.329  19.616  0.00  0.00    +0.000 C 
BRANCH  16  17
ATOM     17  C   UNL     1       1.010   3.827  19.548  0.00  0.00    +0.000 C 
BRANCH  17  19
ATOM     18  C   UNL     1       2.177   3.542  21.753  0.00  0.00    +0.000 C 
ATOM     19  C   UNL     1       1.615   4.538  20.755  0.00  0.00    +0.000 C 
ENDBRANCH  17  19
ENDBRANCH  16  17
ENDBRANCH  15  16
ENDBRANCH  12  15
ENDBRANCH  10  12
ENDBRANCH   1  11
BRANCH   9  20
ATOM     20  C   UNL     1       4.218   7.053  17.406  0.00  0.00    +0.000 C 
BRANCH  20  21
ATOM     21  C   UNL     1       2.933   6.906  18.169  0.00  0.00    +0.000 C 
ATOM     22  C   UNL     1       2.036   7.885  18.354  0.00  0.00    +0.000 C 
BRANCH  22  23
ATOM     23  C   UNL     1       2.204   9.295  17.862  0.00  0.00    +0.000 C 
BRANCH  23  24
ATOM     24  C   UNL     1       1.255  10.275  18.527  0.00  0.00    +0.000 C 
BRANCH  24  25
ATOM     25  C   UNL     1       0.635   9.709  19.808  0.00  0.00    +0.000 C 
BRANCH  25  26
ATOM     26  C   UNL     1       0.508  10.774  20.862  0.00  0.00    +0.000 C 
ATOM     27  O   UNL     1       1.343  11.632  21.109  0.00  0.00    +0.000 OA
BRANCH  26  28
ATOM     28  O   UNL     1      -0.659  10.689  21.538  0.00  0.00    +0.000 OA
ATOM     29  H   UNL     1      -1.259  11.440  21.384  0.00  0.00    +0.000 HD
ENDBRANCH  26  28
ENDBRANCH  25  26
ENDBRANCH  24  25
ENDBRANCH  23  24
ENDBRANCH  22  23
ENDBRANCH  20  21
ENDBRANCH   9  20
TORSDOF 14
ENDMDL
MODEL 2
REMARK VINA RESULT:      -7.5      3.762      6.252
REMARK  Name = 
REMARK  15 active torsions:
REMARK  status: ('A' for Active; 'I' for Inactive)
REMARK    1  A    between atoms: C_1  and  C_2
REMARK    2  A    between atoms: C_2  and  C_3
REMARK    3  A    between atoms: C_3  and  C_4
REMARK    4  A    between atoms: C_4  and  C_5
REMARK    5  A    between atoms: C_5  and  C_6
REMARK    6  A    between atoms: C_6  and  O_7
REMARK    7  A    between atoms: C_6  and  C_8
REMARK    8  A    between atoms: C_9  and  C_10
REMARK    9  A    between atoms: C_18  and  C_19
REMARK   10  A    between atoms: C_19  and  C_20
REMARK   11  A    between atoms: C_21  and  C_22
REMARK   12  A    between atoms: C_22  and  C_23
REMARK   13  A    between atoms: C_23  and  C_24
REMARK   14  A    between atoms: C_24  and  C_25
REMARK   15  A    between atoms: C_25  and  O_27
REMARK                            x       y       z     vdW  Elec       q    Type
REMARK                         _______ _______ _______ _____ _____    ______ ____
ROOT
ATOM      1  C   UNL     1       5.880   4.214  16.344  0.00  0.00    +0.000 C 
ATOM      2  C   UNL     1       7.277   4.812  16.597  0.00  0.00    +0.000 C 
ATOM      3  C   UNL     1       7.129   6.303  16.387  0.00  0.00    +0.000 C 
ATOM      4  C   UNL     1       5.884   6.480  17.222  0.00  0.00    +0.000 C 
ATOM      5  O   UNL     1       6.254   6.318  18.600  0.00  0.00    +0.000 OA
ATOM      6  C   UNL     1       7.112   5.321  18.979  0.00  0.00    +0.000 C 
ATOM      7  O   UNL     1       7.387   5.124  20.153  0.00  0.00    +0.000 OA
ATOM      8  O   UNL     1       7.639   4.574  17.974  0.00  0.00    +0.000 OA
ATOM      9  C   UNL     1       4.928   5.361  16.767  0.00  0.00    +0.000 C 
ENDROOT
BRANCH   1  11
ATOM     10  C   UNL     1       6.632   3.975  13.955  0.00  0.00    +0.000 C 
ATOM     11  C   UNL     1       5.685   3.840  14.900  0.00  0.00    +0.000 C 
BRANCH  10  12
ATOM     12  C   UNL     1       6.505   3.607  12.506  0.00  0.00    +0.000 C 
BRANCH  12  13
ATOM     13  O   UNL     1       7.377   4.411  11.715  0.00  0.00    +0.000 OA
ATOM     14  H   UNL     1       8.252   4.370  12.136  0.00  0.00    +0.000 HD
ENDBRANCH  12  13
BRANCH  12  15
ATOM     15  C   UNL     1       5.058   3.794  12.035  0.00  0.00    +0.000 C 
BRANCH  15  16
ATOM     16  C   UNL     1       4.544   2.562  11.295  0.00  0.00    +0.000 C 
BRANCH  16  17
ATOM     17  C   UNL     1       3.244   2.866  10.557  0.00  0.00    +0.000 C 
BRANCH  17  19
ATOM     18  C   UNL     1       2.642   4.610   8.853  0.00  0.00    +0.000 C 
ATOM     19  C   UNL     1       3.134   4.360  10.267  0.00  0.00    +0.000 C 
ENDBRANCH  17  19
ENDBRANCH  16  17
ENDBRANCH  15  16
ENDBRANCH  12  15
ENDBRANCH  10  12
ENDBRANCH   1  11
BRANCH   9  20
ATOM     20  C   UNL     1       3.945   4.898  17.847  0.00  0.00    +0.000 C 
BRANCH  20  21
ATOM     21  C   UNL     1       4.125   3.453  18.214  0.00  0.00    +0.000 C 
ATOM     22  C   UNL     1       3.133   2.555  18.296  0.00  0.00    +0.000 C 
BRANCH  22  23
ATOM     23  C   UNL     1       1.680   2.872  18.078  0.00  0.00    +0.000 C 
BRANCH  23  24
ATOM     24  C   UNL     1       1.110   3.809  19.127  0.00  0.00    +0.000 C 
BRANCH  24  25
ATOM     25  C   UNL     1       0.958   3.132  20.492  0.00  0.00    +0.000 C 
BRANCH  25  26
ATOM     26  C   UNL     1       2.004   3.619  21.456  0.00  0.00    +0.000 C 
ATOM     27  O   UNL     1       2.515   2.954  22.345  0.00  0.00    +0.000 OA
BRANCH  26  28
ATOM     28  O   UNL     1       2.337   4.911  21.240  0.00  0.00    +0.000 OA
ATOM     29  H   UNL     1       2.622   5.383  22.042  0.00  0.00    +0.000 HD
ENDBRANCH  26  28
ENDBRANCH  25  26
ENDBRANCH  24  25
ENDBRANCH  23  24
ENDBRANCH  22  23
ENDBRANCH  20  21
ENDBRANCH   9  20
TORSDOF 14
ENDMDL
MODEL 3
REMARK VINA RESULT:      -7.4      1.115      1.310
REMARK  Name = 
REMARK  15 active torsions:
REMARK  status: ('A' for Active; 'I' for Inactive)
REMARK    1  A    between atoms: C_1  and  C_2
REMARK    2  A    between atoms: C_2  and  C_3
REMARK    3  A    between atoms: C_3  and  C_4
REMARK    4  A    between atoms: C_4  and  C_5
REMARK    5  A    between atoms: C_5  and  C_6
REMARK    6  A    between atoms: C_6  and  O_7
REMARK    7  A    between atoms: C_6  and  C_8
REMARK    8  A    between atoms: C_9  and  C_10
REMARK    9  A    between atoms: C_18  and  C_19
REMARK   10  A    between atoms: C_19  and  C_20
REMARK   11  A    between atoms: C_21  and  C_22
REMARK   12  A    between atoms: C_22  and  C_23
REMARK   13  A    between atoms: C_23  and  C_24
REMARK   14  A    between atoms: C_24  and  C_25
REMARK   15  A    between atoms: C_25  and  O_27
REMARK                            x       y       z     vdW  Elec       q    Type
REMARK                         _______ _______ _______ _____ _____    ______ ____
ROOT
ATOM      1  C   UNL     1       5.637   5.226  18.694  0.00  0.00    +0.000 C 
ATOM      2  C   UNL     1       7.156   5.158  18.442  0.00  0.00    +0.000 C 
ATOM      3  C   UNL     1       7.314   4.737  16.997  0.00  0.00    +0.000 C 
ATOM      4  C   UNL     1       6.324   5.715  16.414  0.00  0.00    +0.000 C 
ATOM      5  O   UNL     1       6.902   7.027  16.499  0.00  0.00    +0.000 OA
ATOM      6  C   UNL     1       7.566   7.424  17.627  0.00  0.00    +0.000 C 
ATOM      7  O   UNL     1       8.007   8.557  17.747  0.00  0.00    +0.000 OA
ATOM      8  O   UNL     1       7.709   6.483  18.598  0.00  0.00    +0.000 OA
ATOM      9  C   UNL     1       5.069   5.601  17.301  0.00  0.00    +0.000 C 
ENDROOT
BRANCH   1  11
ATOM     10  C   UNL     1       4.244   3.143  18.467  0.00  0.00    +0.000 C 
ATOM     11  C   UNL     1       5.092   3.909  19.175  0.00  0.00    +0.000 C 
BRANCH  10  12
ATOM     12  C   UNL     1       3.679   1.818  18.885  0.00  0.00    +0.000 C 
BRANCH  12  13
ATOM     13  O   UNL     1       4.298   0.764  18.149  0.00  0.00    +0.000 OA
ATOM     14  H   UNL     1       5.255   0.928  18.178  0.00  0.00    +0.000 HD
ENDBRANCH  12  13
BRANCH  12  15
ATOM     15  C   UNL     1       2.164   1.789  18.656  0.00  0.00    +0.000 C 
BRANCH  15  16
ATOM     16  C   UNL     1       1.591   3.196  18.507  0.00  0.00    +0.000 C 
BRANCH  16  17
ATOM     17  C   UNL     1       0.676   3.543  19.677  0.00  0.00    +0.000 C 
BRANCH  17  19
ATOM     18  C   UNL     1       2.231   3.804  21.631  0.00  0.00    +0.000 C 
ATOM     19  C   UNL     1       1.365   4.528  20.617  0.00  0.00    +0.000 C 
ENDBRANCH  17  19
ENDBRANCH  16  17
ENDBRANCH  15  16
ENDBRANCH  12  15
ENDBRANCH  10  12
ENDBRANCH   1  11
BRANCH   9  20
ATOM     20  C   UNL     1       4.231   6.880  17.369  0.00  0.00    +0.000 C 
BRANCH  20  21
ATOM     21  C   UNL     1       2.859   6.645  17.934  0.00  0.00    +0.000 C 
ATOM     22  C   UNL     1       1.974   7.610  18.221  0.00  0.00    +0.000 C 
BRANCH  22  23
ATOM     23  C   UNL     1       2.240   9.081  18.064  0.00  0.00    +0.000 C 
BRANCH  23  24
ATOM     24  C   UNL     1       1.489   9.933  19.072  0.00  0.00    +0.000 C 
BRANCH  24  25
ATOM     25  C   UNL     1       0.686  11.053  18.405  0.00  0.00    +0.000 C 
BRANCH  25  26
ATOM     26  C   UNL     1      -0.782  10.725  18.385  0.00  0.00    +0.000 C 
ATOM     27  O   UNL     1      -1.580  10.988  19.273  0.00  0.00    +0.000 OA
BRANCH  26  28
ATOM     28  O   UNL     1      -1.149  10.087  17.252  0.00  0.00    +0.000 OA
ATOM     29  H   UNL     1      -0.455  10.069  16.569  0.00  0.00    +0.000 HD
ENDBRANCH  26  28
ENDBRANCH  25  26
ENDBRANCH  24  25
ENDBRANCH  23  24
ENDBRANCH  22  23
ENDBRANCH  20  21
ENDBRANCH   9  20
TORSDOF 14
ENDMDL
MODEL 4
REMARK VINA RESULT:      -7.4      2.129      6.376
REMARK  Name = 
REMARK  15 active torsions:
REMARK  status: ('A' for Active; 'I' for Inactive)
REMARK    1  A    between atoms: C_1  and  C_2
REMARK    2  A    between atoms: C_2  and  C_3
REMARK    3  A    between atoms: C_3  and  C_4
REMARK    4  A    between atoms: C_4  and  C_5
REMARK    5  A    between atoms: C_5  and  C_6
REMARK    6  A    between atoms: C_6  and  O_7
REMARK    7  A    between atoms: C_6  and  C_8
REMARK    8  A    between atoms: C_9  and  C_10
REMARK    9  A    between atoms: C_18  and  C_19
REMARK   10  A    between atoms: C_19  and  C_20
REMARK   11  A    between atoms: C_21  and  C_22
REMARK   12  A    between atoms: C_22  and  C_23
REMARK   13  A    between atoms: C_23  and  C_24
REMARK   14  A    between atoms: C_24  and  C_25
REMARK   15  A    between atoms: C_25  and  O_27
REMARK                            x       y       z     vdW  Elec       q    Type
REMARK                         _______ _______ _______ _____ _____    ______ ____
ROOT
ATOM      1  C   UNL     1       2.998   5.186  18.502  0.00  0.00    +0.000 C 
ATOM      2  C   UNL     1       2.370   4.247  19.550  0.00  0.00    +0.000 C 
ATOM      3  C   UNL     1       1.616   3.199  18.761  0.00  0.00    +0.000 C 
ATOM      4  C   UNL     1       2.719   2.883  17.781  0.00  0.00    +0.000 C 
ATOM      5  O   UNL     1       3.744   2.169  18.489  0.00  0.00    +0.000 OA
ATOM      6  C   UNL     1       4.130   2.565  19.741  0.00  0.00    +0.000 C 
ATOM      7  O   UNL     1       5.046   2.015  20.334  0.00  0.00    +0.000 OA
ATOM      8  O   UNL     1       3.432   3.598  20.282  0.00  0.00    +0.000 OA
ATOM      9  C   UNL     1       3.230   4.250  17.289  0.00  0.00    +0.000 C 
ENDROOT
BRANCH   1  11
ATOM     10  C   UNL     1       2.473   7.609  18.074  0.00  0.00    +0.000 C 
ATOM     11  C   UNL     1       2.080   6.326  18.152  0.00  0.00    +0.000 C 
BRANCH  10  12
ATOM     12  C   UNL     1       1.612   8.784  17.717  0.00  0.00    +0.000 C 
BRANCH  12  13
ATOM     13  O   UNL     1       2.424   9.912  17.399  0.00  0.00    +0.000 OA
ATOM     14  H   UNL     1       1.931  10.700  17.684  0.00  0.00    +0.000 HD
ENDBRANCH  12  13
BRANCH  12  15
ATOM     15  C   UNL     1       0.675   9.132  18.880  0.00  0.00    +0.000 C 
BRANCH  15  16
ATOM     16  C   UNL     1       1.453   9.598  20.108  0.00  0.00    +0.000 C 
BRANCH  16  17
ATOM     17  C   UNL     1       1.118   8.746  21.328  0.00  0.00    +0.000 C 
BRANCH  17  19
ATOM     18  C   UNL     1      -0.406   9.526  23.165  0.00  0.00    +0.000 C 
ATOM     19  C   UNL     1      -0.330   8.974  21.753  0.00  0.00    +0.000 C 
ENDBRANCH  17  19
ENDBRANCH  16  17
ENDBRANCH  15  16
ENDBRANCH  12  15
ENDBRANCH  10  12
ENDBRANCH   1  11
BRANCH   9  20
ATOM     20  C   UNL     1       4.699   4.253  16.857  0.00  0.00    +0.000 C 
BRANCH  20  21
ATOM     21  C   UNL     1       4.965   5.183  15.709  0.00  0.00    +0.000 C 
ATOM     22  C   UNL     1       5.529   6.394  15.820  0.00  0.00    +0.000 C 
BRANCH  22  23
ATOM     23  C   UNL     1       5.940   7.024  17.121  0.00  0.00    +0.000 C 
BRANCH  23  24
ATOM     24  C   UNL     1       7.442   7.201  17.249  0.00  0.00    +0.000 C 
BRANCH  24  25
ATOM     25  C   UNL     1       7.966   6.766  18.620  0.00  0.00    +0.000 C 
BRANCH  25  26
ATOM     26  C   UNL     1       7.476   5.388  18.972  0.00  0.00    +0.000 C 
ATOM     27  O   UNL     1       6.689   5.122  19.869  0.00  0.00    +0.000 OA
BRANCH  26  28
ATOM     28  O   UNL     1       8.010   4.436  18.176  0.00  0.00    +0.000 OA
ATOM     29  H   UNL     1       7.359   3.799  17.833  0.00  0.00    +0.000 HD
ENDBRANCH  26  28
ENDBRANCH  25  26
ENDBRANCH  24  25
ENDBRANCH  23  24
ENDBRANCH  22  23
ENDBRANCH  20  21
ENDBRANCH   9  20
TORSDOF 14
ENDMDL
MODEL 5
REMARK VINA RESULT:      -7.4      2.221      5.548
REMARK  Name = 
REMARK  15 active torsions:
REMARK  status: ('A' for Active; 'I' for Inactive)
REMARK    1  A    between atoms: C_1  and  C_2
REMARK    2  A    between atoms: C_2  and  C_3
REMARK    3  A    between atoms: C_3  and  C_4
REMARK    4  A    between atoms: C_4  and  C_5
REMARK    5  A    between atoms: C_5  and  C_6
REMARK    6  A    between atoms: C_6  and  O_7
REMARK    7  A    between atoms: C_6  and  C_8
REMARK    8  A    between atoms: C_9  and  C_10
REMARK    9  A    between atoms: C_18  and  C_19
REMARK   10  A    between atoms: C_19  and  C_20
REMARK   11  A    between atoms: C_21  and  C_22
REMARK   12  A    between atoms: C_22  and  C_23
REMARK   13  A    between atoms: C_23  and  C_24
REMARK   14  A    between atoms: C_24  and  C_25
REMARK   15  A    between atoms: C_25  and  O_27
REMARK                            x       y       z     vdW  Elec       q    Type
REMARK                         _______ _______ _______ _____ _____    ______ ____
ROOT
ATOM      1  C   UNL     1       4.467   6.333  17.212  0.00  0.00    +0.000 C 
ATOM      2  C   UNL     1       5.682   6.812  16.394  0.00  0.00    +0.000 C 
ATOM      3  C   UNL     1       6.836   6.868  17.372  0.00  0.00    +0.000 C 
ATOM      4  C   UNL     1       6.616   5.510  17.990  0.00  0.00    +0.000 C 
ATOM      5  O   UNL     1       6.983   4.520  17.016  0.00  0.00    +0.000 OA
ATOM      6  C   UNL     1       6.619   4.665  15.705  0.00  0.00    +0.000 C 
ATOM      7  O   UNL     1       6.862   3.804  14.873  0.00  0.00    +0.000 OA
ATOM      8  O   UNL     1       5.980   5.821  15.387  0.00  0.00    +0.000 OA
ATOM      9  C   UNL     1       5.110   5.447  18.308  0.00  0.00    +0.000 C 
ENDROOT
BRANCH   1  11
ATOM     10  C   UNL     1       2.386   7.467  18.057  0.00  0.00    +0.000 C 
ATOM     11  C   UNL     1       3.707   7.486  17.810  0.00  0.00    +0.000 C 
BRANCH  10  12
ATOM     12  C   UNL     1       1.576   8.575  18.664  0.00  0.00    +0.000 C 
BRANCH  12  13
ATOM     13  O   UNL     1       2.135   9.840  18.316  0.00  0.00    +0.000 OA
ATOM     14  H   UNL     1       3.098   9.755  18.411  0.00  0.00    +0.000 HD
ENDBRANCH  12  13
BRANCH  12  15
ATOM     15  C   UNL     1       1.533   8.429  20.189  0.00  0.00    +0.000 C 
BRANCH  15  16
ATOM     16  C   UNL     1       0.578   9.436  20.823  0.00  0.00    +0.000 C 
BRANCH  16  17
ATOM     17  C   UNL     1      -0.263   8.784  21.917  0.00  0.00    +0.000 C 
BRANCH  17  19
ATOM     18  C   UNL     1      -1.161  10.769  23.167  0.00  0.00    +0.000 C 
ATOM     19  C   UNL     1      -0.190   9.603  23.203  0.00  0.00    +0.000 C 
ENDBRANCH  17  19
ENDBRANCH  16  17
ENDBRANCH  15  16
ENDBRANCH  12  15
ENDBRANCH  10  12
ENDBRANCH   1  11
BRANCH   9  20
ATOM     20  C   UNL     1       4.525   4.032  18.293  0.00  0.00    +0.000 C 
BRANCH  20  21
ATOM     21  C   UNL     1       3.400   3.880  17.309  0.00  0.00    +0.000 C 
ATOM     22  C   UNL     1       2.306   3.131  17.507  0.00  0.00    +0.000 C 
BRANCH  22  23
ATOM     23  C   UNL     1       2.061   2.291  18.729  0.00  0.00    +0.000 C 
BRANCH  23  24
ATOM     24  C   UNL     1       0.823   2.709  19.501  0.00  0.00    +0.000 C 
BRANCH  24  25
ATOM     25  C   UNL     1       0.948   4.119  20.084  0.00  0.00    +0.000 C 
BRANCH  25  26
ATOM     26  C   UNL     1       1.974   4.160  21.183  0.00  0.00    +0.000 C 
ATOM     27  O   UNL     1       2.140   3.296  22.032  0.00  0.00    +0.000 OA
BRANCH  26  28
ATOM     28  O   UNL     1       2.722   5.284  21.143  0.00  0.00    +0.000 OA
ATOM     29  H   UNL     1       3.170   5.489  21.983  0.00  0.00    +0.000 HD
ENDBRANCH  26  28
ENDBRANCH  25  26
ENDBRANCH  24  25
ENDBRANCH  23  24
ENDBRANCH  22  23
ENDBRANCH  20  21
ENDBRANCH   9  20
TORSDOF 14
ENDMDL
MODEL 6
REMARK VINA RESULT:      -7.3      2.409      5.793
REMARK  Name = 
REMARK  15 active torsions:
REMARK  status: ('A' for Active; 'I' for Inactive)
REMARK    1  A    between atoms: C_1  and  C_2
REMARK    2  A    between atoms: C_2  and  C_3
REMARK    3  A    between atoms: C_3  and  C_4
REMARK    4  A    between atoms: C_4  and  C_5
REMARK    5  A    between atoms: C_5  and  C_6
REMARK    6  A    between atoms: C_6  and  O_7
REMARK    7  A    between atoms: C_6  and  C_8
REMARK    8  A    between atoms: C_9  and  C_10
REMARK    9  A    between atoms: C_18  and  C_19
REMARK   10  A    between atoms: C_19  and  C_20
REMARK   11  A    between atoms: C_21  and  C_22
REMARK   12  A    between atoms: C_22  and  C_23
REMARK   13  A    between atoms: C_23  and  C_24
REMARK   14  A    between atoms: C_24  and  C_25
REMARK   15  A    between atoms: C_25  and  O_27
REMARK                            x       y       z     vdW  Elec       q    Type
REMARK                         _______ _______ _______ _____ _____    ______ ____
ROOT
ATOM      1  C   UNL     1       4.262   5.981  17.086  0.00  0.00    +0.000 C 
ATOM      2  C   UNL     1       5.567   6.642  16.601  0.00  0.00    +0.000 C 
ATOM      3  C   UNL     1       6.648   6.150  17.539  0.00  0.00    +0.000 C 
ATOM      4  C   UNL     1       6.279   4.688  17.489  0.00  0.00    +0.000 C 
ATOM      5  O   UNL     1       6.638   4.190  16.190  0.00  0.00    +0.000 OA
ATOM      6  C   UNL     1       6.382   4.927  15.066  0.00  0.00    +0.000 C 
ATOM      7  O   UNL     1       6.618   4.494  13.948  0.00  0.00    +0.000 OA
ATOM      8  O   UNL     1       5.859   6.164  15.271  0.00  0.00    +0.000 OA
ATOM      9  C   UNL     1       4.754   4.645  17.699  0.00  0.00    +0.000 C 
ENDROOT
BRANCH   1  11
ATOM     10  C   UNL     1       2.847   7.933  17.806  0.00  0.00    +0.000 C 
ATOM     11  C   UNL     1       3.552   6.828  18.107  0.00  0.00    +0.000 C 
BRANCH  10  12
ATOM     12  C   UNL     1       2.107   8.809  18.774  0.00  0.00    +0.000 C 
BRANCH  12  13
ATOM     13  O   UNL     1       1.714   8.055  19.919  0.00  0.00    +0.000 OA
ATOM     14  H   UNL     1       0.900   7.584  19.677  0.00  0.00    +0.000 HD
ENDBRANCH  12  13
BRANCH  12  15
ATOM     15  C   UNL     1       0.870   9.416  18.104  0.00  0.00    +0.000 C 
BRANCH  15  16
ATOM     16  C   UNL     1      -0.033  10.114  19.118  0.00  0.00    +0.000 C 
BRANCH  16  17
ATOM     17  C   UNL     1      -1.240  10.748  18.435  0.00  0.00    +0.000 C 
BRANCH  17  19
ATOM     18  C   UNL     1      -3.169   9.784  17.148  0.00  0.00    +0.000 C 
ATOM     19  C   UNL     1      -1.660   9.922  17.222  0.00  0.00    +0.000 C 
ENDBRANCH  17  19
ENDBRANCH  16  17
ENDBRANCH  15  16
ENDBRANCH  12  15
ENDBRANCH  10  12
ENDBRANCH   1  11
BRANCH   9  20
ATOM     20  C   UNL     1       4.063   3.446  17.045  0.00  0.00    +0.000 C 
BRANCH  20  21
ATOM     21  C   UNL     1       3.917   2.279  17.980  0.00  0.00    +0.000 C 
ATOM     22  C   UNL     1       2.760   1.868  18.516  0.00  0.00    +0.000 C 
BRANCH  22  23
ATOM     23  C   UNL     1       1.435   2.543  18.297  0.00  0.00    +0.000 C 
BRANCH  23  24
ATOM     24  C   UNL     1       1.351   3.913  18.944  0.00  0.00    +0.000 C 
BRANCH  24  25
ATOM     25  C   UNL     1       0.878   3.843  20.399  0.00  0.00    +0.000 C 
BRANCH  25  26
ATOM     26  C   UNL     1       2.018   4.091  21.349  0.00  0.00    +0.000 C 
ATOM     27  O   UNL     1       2.483   3.272  22.128  0.00  0.00    +0.000 OA
BRANCH  26  28
ATOM     28  O   UNL     1       2.495   5.352  21.258  0.00  0.00    +0.000 OA
ATOM     29  H   UNL     1       2.253   5.806  20.431  0.00  0.00    +0.000 HD
ENDBRANCH  26  28
ENDBRANCH  25  26
ENDBRANCH  24  25
ENDBRANCH  23  24
ENDBRANCH  22  23
ENDBRANCH  20  21
ENDBRANCH   9  20
TORSDOF 14
ENDMDL
MODEL 7
REMARK VINA RESULT:      -7.3      1.025      1.383
REMARK  Name = 
REMARK  15 active torsions:
REMARK  status: ('A' for Active; 'I' for Inactive)
REMARK    1  A    between atoms: C_1  and  C_2
REMARK    2  A    between atoms: C_2  and  C_3
REMARK    3  A    between atoms: C_3  and  C_4
REMARK    4  A    between atoms: C_4  and  C_5
REMARK    5  A    between atoms: C_5  and  C_6
REMARK    6  A    between atoms: C_6  and  O_7
REMARK    7  A    between atoms: C_6  and  C_8
REMARK    8  A    between atoms: C_9  and  C_10
REMARK    9  A    between atoms: C_18  and  C_19
REMARK   10  A    between atoms: C_19  and  C_20
REMARK   11  A    between atoms: C_21  and  C_22
REMARK   12  A    between atoms: C_22  and  C_23
REMARK   13  A    between atoms: C_23  and  C_24
REMARK   14  A    between atoms: C_24  and  C_25
REMARK   15  A    between atoms: C_25  and  O_27
REMARK                            x       y       z     vdW  Elec       q    Type
REMARK                         _______ _______ _______ _____ _____    ______ ____
ROOT
ATOM      1  C   UNL     1       5.743   5.294  18.873  0.00  0.00    +0.000 C 
ATOM      2  C   UNL     1       7.251   5.055  18.661  0.00  0.00    +0.000 C 
ATOM      3  C   UNL     1       7.415   4.765  17.185  0.00  0.00    +0.000 C 
ATOM      4  C   UNL     1       6.582   5.917  16.680  0.00  0.00    +0.000 C 
ATOM      5  O   UNL     1       7.318   7.128  16.919  0.00  0.00    +0.000 OA
ATOM      6  C   UNL     1       7.978   7.319  18.103  0.00  0.00    +0.000 C 
ATOM      7  O   UNL     1       8.553   8.367  18.355  0.00  0.00    +0.000 OA
ATOM      8  O   UNL     1       7.959   6.274  18.972  0.00  0.00    +0.000 OA
ATOM      9  C   UNL     1       5.287   5.878  17.512  0.00  0.00    +0.000 C 
ENDROOT
BRANCH   1  11
ATOM     10  C   UNL     1       4.225   3.363  18.328  0.00  0.00    +0.000 C 
ATOM     11  C   UNL     1       5.016   4.017  19.197  0.00  0.00    +0.000 C 
BRANCH  10  12
ATOM     12  C   UNL     1       3.488   2.082  18.585  0.00  0.00    +0.000 C 
BRANCH  12  13
ATOM     13  O   UNL     1       4.271   0.968  18.162  0.00  0.00    +0.000 OA
ATOM     14  H   UNL     1       4.870   1.295  17.470  0.00  0.00    +0.000 HD
ENDBRANCH  12  13
BRANCH  12  15
ATOM     15  C   UNL     1       2.146   2.082  17.844  0.00  0.00    +0.000 C 
BRANCH  15  16
ATOM     16  C   UNL     1       0.968   2.028  18.814  0.00  0.00    +0.000 C 
BRANCH  16  17
ATOM     17  C   UNL     1       0.929   3.268  19.702  0.00  0.00    +0.000 C 
BRANCH  17  19
ATOM     18  C   UNL     1       2.341   3.434  21.772  0.00  0.00    +0.000 C 
ATOM     19  C   UNL     1       1.064   2.876  21.170  0.00  0.00    +0.000 C 
ENDBRANCH  17  19
ENDBRANCH  16  17
ENDBRANCH  15  16
ENDBRANCH  12  15
ENDBRANCH  10  12
ENDBRANCH   1  11
BRANCH   9  20
ATOM     20  C   UNL     1       4.615   7.242  17.691  0.00  0.00    +0.000 C 
BRANCH  20  21
ATOM     21  C   UNL     1       3.134   7.196  17.444  0.00  0.00    +0.000 C 
ATOM     22  C   UNL     1       2.212   6.905  18.372  0.00  0.00    +0.000 C 
BRANCH  22  23
ATOM     23  C   UNL     1       2.525   6.536  19.795  0.00  0.00    +0.000 C 
BRANCH  23  24
ATOM     24  C   UNL     1       1.613   7.214  20.801  0.00  0.00    +0.000 C 
BRANCH  24  25
ATOM     25  C   UNL     1       1.243   8.640  20.385  0.00  0.00    +0.000 C 
BRANCH  25  26
ATOM     26  C   UNL     1       1.044   9.519  21.589  0.00  0.00    +0.000 C 
ATOM     27  O   UNL     1       0.898   9.127  22.737  0.00  0.00    +0.000 OA
BRANCH  26  28
ATOM     28  O   UNL     1       1.038  10.832  21.269  0.00  0.00    +0.000 OA
ATOM     29  H   UNL     1       0.873  11.007  20.326  0.00  0.00    +0.000 HD
ENDBRANCH  26  28
ENDBRANCH  25  26
ENDBRANCH  24  25
ENDBRANCH  23  24
ENDBRANCH  22  23
ENDBRANCH  20  21
ENDBRANCH   9  20
TORSDOF 14
ENDMDL
MODEL 8
REMARK VINA RESULT:      -7.3      1.180      1.502
REMARK  Name = 
REMARK  15 active torsions:
REMARK  status: ('A' for Active; 'I' for Inactive)
REMARK    1  A    between atoms: C_1  and  C_2
REMARK    2  A    between atoms: C_2  and  C_3
REMARK    3  A    between atoms: C_3  and  C_4
REMARK    4  A    between atoms: C_4  and  C_5
REMARK    5  A    between atoms: C_5  and  C_6
REMARK    6  A    between atoms: C_6  and  O_7
REMARK    7  A    between atoms: C_6  and  C_8
REMARK    8  A    between atoms: C_9  and  C_10
REMARK    9  A    between atoms: C_18  and  C_19
REMARK   10  A    between atoms: C_19  and  C_20
REMARK   11  A    between atoms: C_21  and  C_22
REMARK   12  A    between atoms: C_22  and  C_23
REMARK   13  A    between atoms: C_23  and  C_24
REMARK   14  A    between atoms: C_24  and  C_25
REMARK   15  A    between atoms: C_25  and  O_27
REMARK                            x       y       z     vdW  Elec       q    Type
REMARK                         _______ _______ _______ _____ _____    ______ ____
ROOT
ATOM      1  C   UNL     1       5.600   5.309  18.677  0.00  0.00    +0.000 C 
ATOM      2  C   UNL     1       7.121   5.226  18.442  0.00  0.00    +0.000 C 
ATOM      3  C   UNL     1       7.291   4.810  16.997  0.00  0.00    +0.000 C 
ATOM      4  C   UNL     1       6.319   5.803  16.408  0.00  0.00    +0.000 C 
ATOM      5  O   UNL     1       6.911   7.108  16.507  0.00  0.00    +0.000 OA
ATOM      6  C   UNL     1       7.566   7.491  17.645  0.00  0.00    +0.000 C 
ATOM      7  O   UNL     1       8.019   8.618  17.777  0.00  0.00    +0.000 OA
ATOM      8  O   UNL     1       7.687   6.543  18.612  0.00  0.00    +0.000 OA
ATOM      9  C   UNL     1       5.053   5.698  17.280  0.00  0.00    +0.000 C 
ENDROOT
BRANCH   1  11
ATOM     10  C   UNL     1       4.189   3.242  18.421  0.00  0.00    +0.000 C 
ATOM     11  C   UNL     1       5.035   3.995  19.145  0.00  0.00    +0.000 C 
BRANCH  10  12
ATOM     12  C   UNL     1       3.604   1.921  18.825  0.00  0.00    +0.000 C 
BRANCH  12  13
ATOM     13  O   UNL     1       4.250   0.861  18.123  0.00  0.00    +0.000 OA
ATOM     14  H   UNL     1       5.187   1.107  18.048  0.00  0.00    +0.000 HD
ENDBRANCH  12  13
BRANCH  12  15
ATOM     15  C   UNL     1       2.099   1.893  18.534  0.00  0.00    +0.000 C 
BRANCH  15  16
ATOM     16  C   UNL     1       1.542   3.298  18.319  0.00  0.00    +0.000 C 
BRANCH  16  17
ATOM     17  C   UNL     1       1.180   3.955  19.648  0.00  0.00    +0.000 C 
BRANCH  17  19
ATOM     18  C   UNL     1       2.011   3.173  21.885  0.00  0.00    +0.000 C 
ATOM     19  C   UNL     1       1.048   2.902  20.743  0.00  0.00    +0.000 C 
ENDBRANCH  17  19
ENDBRANCH  16  17
ENDBRANCH  15  16
ENDBRANCH  12  15
ENDBRANCH  10  12
ENDBRANCH   1  11
BRANCH   9  20
ATOM     20  C   UNL     1       4.228   6.986  17.346  0.00  0.00    +0.000 C 
BRANCH  20  21
ATOM     21  C   UNL     1       2.838   6.760  17.868  0.00  0.00    +0.000 C 
ATOM     22  C   UNL     1       1.951   7.730  18.130  0.00  0.00    +0.000 C 
BRANCH  22  23
ATOM     23  C   UNL     1       2.231   9.199  17.983  0.00  0.00    +0.000 C 
BRANCH  23  24
ATOM     24  C   UNL     1       1.607  10.038  19.084  0.00  0.00    +0.000 C 
BRANCH  24  25
ATOM     25  C   UNL     1       1.014  11.346  18.556  0.00  0.00    +0.000 C 
BRANCH  25  26
ATOM     26  C   UNL     1       2.068  12.416  18.459  0.00  0.00    +0.000 C 
ATOM     27  O   UNL     1       2.478  13.094  19.390  0.00  0.00    +0.000 OA
BRANCH  26  28
ATOM     28  O   UNL     1       2.534  12.564  17.200  0.00  0.00    +0.000 OA
ATOM     29  H   UNL     1       3.504  12.527  17.132  0.00  0.00    +0.000 HD
ENDBRANCH  26  28
ENDBRANCH  25  26
ENDBRANCH  24  25
ENDBRANCH  23  24
ENDBRANCH  22  23
ENDBRANCH  20  21
ENDBRANCH   9  20
TORSDOF 14
ENDMDL
MODEL 9
REMARK VINA RESULT:      -7.3      2.803      5.867
REMARK  Name = 
REMARK  15 active torsions:
REMARK  status: ('A' for Active; 'I' for Inactive)
REMARK    1  A    between atoms: C_1  and  C_2
REMARK    2  A    between atoms: C_2  and  C_3
REMARK    3  A    between atoms: C_3  and  C_4
REMARK    4  A    between atoms: C_4  and  C_5
REMARK    5  A    between atoms: C_5  and  C_6
REMARK    6  A    between atoms: C_6  and  O_7
REMARK    7  A    between atoms: C_6  and  C_8
REMARK    8  A    between atoms: C_9  and  C_10
REMARK    9  A    between atoms: C_18  and  C_19
REMARK   10  A    between atoms: C_19  and  C_20
REMARK   11  A    between atoms: C_21  and  C_22
REMARK   12  A    between atoms: C_22  and  C_23
REMARK   13  A    between atoms: C_23  and  C_24
REMARK   14  A    between atoms: C_24  and  C_25
REMARK   15  A    between atoms: C_25  and  O_27
REMARK                            x       y       z     vdW  Elec       q    Type
REMARK                         _______ _______ _______ _____ _____    ______ ____
ROOT
ATOM      1  C   UNL     1       3.517   3.937  17.558  0.00  0.00    +0.000 C 
ATOM      2  C   UNL     1       2.745   2.604  17.507  0.00  0.00    +0.000 C 
ATOM      3  C   UNL     1       3.527   1.645  18.378  0.00  0.00    +0.000 C 
ATOM      4  C   UNL     1       3.697   2.569  19.558  0.00  0.00    +0.000 C 
ATOM      5  O   UNL     1       2.416   2.710  20.193  0.00  0.00    +0.000 OA
ATOM      6  C   UNL     1       1.282   2.871  19.444  0.00  0.00    +0.000 C 
ATOM      7  O   UNL     1       0.192   3.060  19.963  0.00  0.00    +0.000 OA
ATOM      8  O   UNL     1       1.442   2.803  18.096  0.00  0.00    +0.000 OA
ATOM      9  C   UNL     1       4.173   3.907  18.962  0.00  0.00    +0.000 C 
ENDROOT
BRANCH   1  11
ATOM     10  C   UNL     1       5.796   4.496  16.651  0.00  0.00    +0.000 C 
ATOM     11  C   UNL     1       4.550   4.026  16.468  0.00  0.00    +0.000 C 
BRANCH  10  12
ATOM     12  C   UNL     1       6.873   4.596  15.611  0.00  0.00    +0.000 C 
BRANCH  12  13
ATOM     13  O   UNL     1       7.624   5.794  15.792  0.00  0.00    +0.000 OA
ATOM     14  H   UNL     1       8.508   5.527  16.094  0.00  0.00    +0.000 HD
ENDBRANCH  12  13
BRANCH  12  15
ATOM     15  C   UNL     1       6.260   4.575  14.206  0.00  0.00    +0.000 C 
BRANCH  15  16
ATOM     16  C   UNL     1       7.335   4.542  13.124  0.00  0.00    +0.000 C 
BRANCH  16  17
ATOM     17  C   UNL     1       6.811   3.893  11.847  0.00  0.00    +0.000 C 
BRANCH  17  19
ATOM     18  C   UNL     1       4.427   3.258  11.377  0.00  0.00    +0.000 C 
ATOM     19  C   UNL     1       5.677   2.923  12.170  0.00  0.00    +0.000 C 
ENDBRANCH  17  19
ENDBRANCH  16  17
ENDBRANCH  15  16
ENDBRANCH  12  15
ENDBRANCH  10  12
ENDBRANCH   1  11
BRANCH   9  20
ATOM     20  C   UNL     1       3.780   5.136  19.786  0.00  0.00    +0.000 C 
BRANCH  20  21
ATOM     21  C   UNL     1       3.315   6.282  18.933  0.00  0.00    +0.000 C 
ATOM     22  C   UNL     1       2.332   7.131  19.261  0.00  0.00    +0.000 C 
BRANCH  22  23
ATOM     23  C   UNL     1       1.513   7.037  20.518  0.00  0.00    +0.000 C 
BRANCH  23  24
ATOM     24  C   UNL     1       1.324   8.376  21.208  0.00  0.00    +0.000 C 
BRANCH  24  25
ATOM     25  C   UNL     1      -0.079   8.534  21.801  0.00  0.00    +0.000 C 
BRANCH  25  26
ATOM     26  C   UNL     1      -0.055   9.421  23.015  0.00  0.00    +0.000 C 
ATOM     27  O   UNL     1       0.936   9.687  23.680  0.00  0.00    +0.000 OA
BRANCH  26  28
ATOM     28  O   UNL     1      -1.278   9.910  23.316  0.00  0.00    +0.000 OA
ATOM     29  H   UNL     1      -1.389  10.852  23.096  0.00  0.00    +0.000 HD
ENDBRANCH  26  28
ENDBRANCH  25  26
ENDBRANCH  24  25
ENDBRANCH  23  24
ENDBRANCH  22  23
ENDBRANCH  20  21
ENDBRANCH   9  20
TORSDOF 14
ENDMDL
