MODEL 1
REMARK VINA RESULT:      -7.8      0.000      0.000
REMARK  Name = 
REMARK  9 active torsions:
REMARK  status: ('A' for Active; 'I' for Inactive)
REMARK    1  A    between atoms: C_1  and  C_2
REMARK    2  A    between atoms: C_2  and  C_3
REMARK    3  A    between atoms: C_3  and  C_4
REMARK    4  A    between atoms: C_12  and  C_13
REMARK    5  A    between atoms: C_13  and  O_15
REMARK    6  A    between atoms: O_15  and  C_16
REMARK    7  A    between atoms: C_16  and  C_17
REMARK    8  A    between atoms: C_24  and  S_25
REMARK    9  A    between atoms: S_25  and  C_26
REMARK                            x       y       z     vdW  Elec       q    Type
REMARK                         _______ _______ _______ _____ _____    ______ ____
ROOT
ATOM      1  C   UNL     1       4.441   4.431  16.978  0.00  0.00    +0.000 A 
ATOM      2  N   UNL     1       3.566   3.757  17.816  0.00  0.00    +0.000 N 
ATOM      3  C   UNL     1       2.909   4.643  18.648  0.00  0.00    +0.000 A 
ATOM      4  C   UNL     1       2.033   4.449  19.734  0.00  0.00    +0.000 A 
ATOM      5  C   UNL     1       1.666   5.594  20.488  0.00  0.00    +0.000 A 
ATOM      6  C   UNL     1       2.004   6.875  20.051  0.00  0.00    +0.000 A 
ATOM      7  C   UNL     1       2.609   7.038  18.799  0.00  0.00    +0.000 A 
ATOM      8  C   UNL     1       3.243   5.923  18.206  0.00  0.00    +0.000 A 
ATOM      9  C   UNL     1       4.261   5.792  17.206  0.00  0.00    +0.000 A 
ATOM     10  C   UNL     1       2.383   8.388  18.152  0.00  0.00    +0.000 C 
ATOM     11  N   UNL     1       1.025   8.753  18.537  0.00  0.00    +0.000 NA
ATOM     12  C   UNL     1       0.306   9.781  17.792  0.00  0.00    +0.000 C 
ATOM     13  C   UNL     1      -0.944  10.266  18.620  0.00  0.00    +0.000 C 
ATOM     14  C   UNL     1      -0.429  10.962  19.898  0.00  0.00    +0.000 A 
ATOM     15  C   UNL     1      -0.934  12.226  20.200  0.00  0.00    +0.000 A 
ATOM     16  C   UNL     1      -0.013  13.248  20.363  0.00  0.00    +0.000 A 
ATOM     17  C   UNL     1       1.343  12.935  20.251  0.00  0.00    +0.000 A 
ATOM     18  C   UNL     1       1.800  11.577  20.258  0.00  0.00    +0.000 A 
ATOM     19  C   UNL     1       0.872  10.531  20.250  0.00  0.00    +0.000 A 
ATOM     20  C   UNL     1       0.999   8.991  19.984  0.00  0.00    +0.000 C 
ATOM     21  O   UNL     1       1.757   8.042  20.778  0.00  0.00    +0.000 OA
ATOM     22  H   UNL     1       3.500   2.747  17.889  0.00  0.00    +0.000 HD
ENDROOT
BRANCH   9  23
ATOM     23  C   UNL     1       5.011   6.924  16.673  0.00  0.00    +0.000 C 
ATOM     24  O   UNL     1       4.926   7.300  15.507  0.00  0.00    +0.000 OA
BRANCH  23  25
ATOM     25  O   UNL     1       5.954   7.386  17.543  0.00  0.00    +0.000 OA
BRANCH  25  26
ATOM     26  C   UNL     1       7.257   6.809  17.377  0.00  0.00    +0.000 C 
ATOM     27  C   UNL     1       7.682   6.029  18.588  0.00  0.00    +0.000 C 
ENDBRANCH  25  26
ENDBRANCH  23  25
ENDBRANCH   9  23
BRANCH  16  28
ATOM     28  S   UNL     1      -0.607  14.940  20.420  0.00  0.00    +0.000 S 
ATOM     29  C   UNL     1      -0.136  15.489  18.752  0.00  0.00    +0.000 C 
ENDBRANCH  16  28
BRANCH   1  30
ATOM     30  C   UNL     1       5.471   3.711  16.148  0.00  0.00    +0.000 C 
BRANCH  30  32
ATOM     31  C   UNL     1       6.809   4.664  14.171  0.00  0.00    +0.000 C 
ATOM     32  C   UNL     1       5.490   4.090  14.669  0.00  0.00    +0.000 C 
ENDBRANCH  30  32
ENDBRANCH   1  30
TORSDOF 6
ENDMDL
MODEL 2
REMARK VINA RESULT:      -6.7      2.279      4.000
REMARK  Name = 
REMARK  9 active torsions:
REMARK  status: ('A' for Active; 'I' for Inactive)
REMARK    1  A    between atoms: C_1  and  C_2
REMARK    2  A    between atoms: C_2  and  C_3
REMARK    3  A    between atoms: C_3  and  C_4
REMARK    4  A    between atoms: C_12  and  C_13
REMARK    5  A    between atoms: C_13  and  O_15
REMARK    6  A    between atoms: O_15  and  C_16
REMARK    7  A    between atoms: C_16  and  C_17
REMARK    8  A    between atoms: C_24  and  S_25
REMARK    9  A    between atoms: S_25  and  C_26
REMARK                            x       y       z     vdW  Elec       q    Type
REMARK                         _______ _______ _______ _____ _____    ______ ____
ROOT
ATOM      1  C   UNL     1       4.012   3.169  17.885  0.00  0.00    +0.000 A 
ATOM      2  N   UNL     1       5.117   3.993  17.736  0.00  0.00    +0.000 N 
ATOM      3  C   UNL     1       4.733   5.319  17.677  0.00  0.00    +0.000 A 
ATOM      4  C   UNL     1       5.452   6.501  17.415  0.00  0.00    +0.000 A 
ATOM      5  C   UNL     1       4.704   7.698  17.263  0.00  0.00    +0.000 A 
ATOM      6  C   UNL     1       3.341   7.729  17.553  0.00  0.00    +0.000 A 
ATOM      7  C   UNL     1       2.729   6.601  18.111  0.00  0.00    +0.000 A 
ATOM      8  C   UNL     1       3.371   5.349  17.974  0.00  0.00    +0.000 A 
ATOM      9  C   UNL     1       2.902   3.995  18.032  0.00  0.00    +0.000 A 
ATOM     10  C   UNL     1       1.493   6.887  18.936  0.00  0.00    +0.000 C 
ATOM     11  N   UNL     1       1.779   8.157  19.591  0.00  0.00    +0.000 NA
ATOM     12  C   UNL     1       1.012   8.562  20.765  0.00  0.00    +0.000 C 
ATOM     13  C   UNL     1       1.225  10.099  21.038  0.00  0.00    +0.000 C 
ATOM     14  C   UNL     1       0.620  10.884  19.855  0.00  0.00    +0.000 A 
ATOM     15  C   UNL     1      -0.259  11.926  20.145  0.00  0.00    +0.000 A 
ATOM     16  C   UNL     1      -1.518  11.864  19.571  0.00  0.00    +0.000 A 
ATOM     17  C   UNL     1      -1.803  10.792  18.722  0.00  0.00    +0.000 A 
ATOM     18  C   UNL     1      -0.765   9.942  18.220  0.00  0.00    +0.000 A 
ATOM     19  C   UNL     1       0.546  10.098  18.680  0.00  0.00    +0.000 A 
ATOM     20  C   UNL     1       1.831   9.207  18.569  0.00  0.00    +0.000 C 
ATOM     21  O   UNL     1       2.520   8.841  17.346  0.00  0.00    +0.000 OA
ATOM     22  H   UNL     1       6.065   3.663  17.578  0.00  0.00    +0.000 HD
ENDROOT
BRANCH   9  23
ATOM     23  C   UNL     1       1.490   3.639  18.103  0.00  0.00    +0.000 C 
ATOM     24  O   UNL     1       0.644   4.080  17.330  0.00  0.00    +0.000 OA
BRANCH  23  25
ATOM     25  O   UNL     1       1.181   2.934  19.230  0.00  0.00    +0.000 OA
BRANCH  25  26
ATOM     26  C   UNL     1       1.187   3.705  20.440  0.00  0.00    +0.000 C 
ATOM     27  C   UNL     1       1.517   2.862  21.638  0.00  0.00    +0.000 C 
ENDBRANCH  25  26
ENDBRANCH  23  25
ENDBRANCH   9  23
BRANCH  16  28
ATOM     28  S   UNL     1      -2.790  12.983  20.164  0.00  0.00    +0.000 S 
ATOM     29  C   UNL     1      -4.250  12.238  19.375  0.00  0.00    +0.000 C 
ENDBRANCH  16  28
BRANCH   1  30
ATOM     30  C   UNL     1       4.097   1.674  17.723  0.00  0.00    +0.000 C 
BRANCH  30  32
ATOM     31  C   UNL     1       4.617   1.626  20.239  0.00  0.00    +0.000 C 
ATOM     32  C   UNL     1       4.080   0.879  19.026  0.00  0.00    +0.000 C 
ENDBRANCH  30  32
ENDBRANCH   1  30
TORSDOF 6
ENDMDL
MODEL 3
REMARK VINA RESULT:      -6.1      2.214      3.997
REMARK  Name = 
REMARK  9 active torsions:
REMARK  status: ('A' for Active; 'I' for Inactive)
REMARK    1  A    between atoms: C_1  and  C_2
REMARK    2  A    between atoms: C_2  and  C_3
REMARK    3  A    between atoms: C_3  and  C_4
REMARK    4  A    between atoms: C_12  and  C_13
REMARK    5  A    between atoms: C_13  and  O_15
REMARK    6  A    between atoms: O_15  and  C_16
REMARK    7  A    between atoms: C_16  and  C_17
REMARK    8  A    between atoms: C_24  and  S_25
REMARK    9  A    between atoms: S_25  and  C_26
REMARK                            x       y       z     vdW  Elec       q    Type
REMARK                         _______ _______ _______ _____ _____    ______ ____
ROOT
ATOM      1  C   UNL     1       4.052   3.794  19.075  0.00  0.00    +0.000 A 
ATOM      2  N   UNL     1       5.007   4.603  18.477  0.00  0.00    +0.000 N 
ATOM      3  C   UNL     1       4.471   5.835  18.154  0.00  0.00    +0.000 A 
ATOM      4  C   UNL     1       4.987   6.932  17.439  0.00  0.00    +0.000 A 
ATOM      5  C   UNL     1       4.093   7.994  17.142  0.00  0.00    +0.000 A 
ATOM      6  C   UNL     1       2.816   8.030  17.701  0.00  0.00    +0.000 A 
ATOM      7  C   UNL     1       2.456   7.074  18.656  0.00  0.00    +0.000 A 
ATOM      8  C   UNL     1       3.197   5.872  18.720  0.00  0.00    +0.000 A 
ATOM      9  C   UNL     1       2.905   4.566  19.234  0.00  0.00    +0.000 A 
ATOM     10  C   UNL     1       1.377   7.512  19.624  0.00  0.00    +0.000 C 
ATOM     11  N   UNL     1       1.638   8.929  19.841  0.00  0.00    +0.000 NA
ATOM     12  C   UNL     1       1.071   9.607  21.002  0.00  0.00    +0.000 C 
ATOM     13  C   UNL     1       1.157  11.168  20.806  0.00  0.00    +0.000 C 
ATOM     14  C   UNL     1       0.250  11.551  19.617  0.00  0.00    +0.000 A 
ATOM     15  C   UNL     1      -0.669  12.582  19.804  0.00  0.00    +0.000 A 
ATOM     16  C   UNL     1      -2.000  12.291  19.554  0.00  0.00    +0.000 A 
ATOM     17  C   UNL     1      -2.319  11.009  19.102  0.00  0.00    +0.000 A 
ATOM     18  C   UNL     1      -1.307  10.110  18.630  0.00  0.00    +0.000 A 
ATOM     19  C   UNL     1       0.041  10.463  18.737  0.00  0.00    +0.000 A 
ATOM     20  C   UNL     1       1.373   9.649  18.591  0.00  0.00    +0.000 C 
ATOM     21  O   UNL     1       1.851   8.991  17.389  0.00  0.00    +0.000 OA
ATOM     22  H   UNL     1       5.937   4.295  18.211  0.00  0.00    +0.000 HD
ENDROOT
BRANCH   9  23
ATOM     23  C   UNL     1       1.581   4.167  19.701  0.00  0.00    +0.000 C 
ATOM     24  O   UNL     1       0.688   3.786  18.950  0.00  0.00    +0.000 OA
BRANCH  23  25
ATOM     25  O   UNL     1       1.382   4.451  21.021  0.00  0.00    +0.000 OA
BRANCH  25  26
ATOM     26  C   UNL     1       2.137   3.638  21.930  0.00  0.00    +0.000 C 
ATOM     27  C   UNL     1       1.625   2.227  21.976  0.00  0.00    +0.000 C 
ENDBRANCH  25  26
ENDBRANCH  23  25
ENDBRANCH   9  23
BRANCH  16  28
ATOM     28  S   UNL     1      -3.251  13.459  20.090  0.00  0.00    +0.000 S 
ATOM     29  C   UNL     1      -4.750  12.489  19.741  0.00  0.00    +0.000 C 
ENDBRANCH  16  28
BRANCH   1  30
ATOM     30  C   UNL     1       4.273   2.322  19.300  0.00  0.00    +0.000 C 
BRANCH  30  32
ATOM     31  C   UNL     1       2.897   2.119  17.138  0.00  0.00    +0.000 C 
ATOM     32  C   UNL     1       3.600   1.403  18.283  0.00  0.00    +0.000 C 
ENDBRANCH  30  32
ENDBRANCH   1  30
TORSDOF 6
ENDMDL
MODEL 4
REMARK VINA RESULT:      -6.0      4.245      6.751
REMARK  Name = 
REMARK  9 active torsions:
REMARK  status: ('A' for Active; 'I' for Inactive)
REMARK    1  A    between atoms: C_1  and  C_2
REMARK    2  A    between atoms: C_2  and  C_3
REMARK    3  A    between atoms: C_3  and  C_4
REMARK    4  A    between atoms: C_12  and  C_13
REMARK    5  A    between atoms: C_13  and  O_15
REMARK    6  A    between atoms: O_15  and  C_16
REMARK    7  A    between atoms: C_16  and  C_17
REMARK    8  A    between atoms: C_24  and  S_25
REMARK    9  A    between atoms: S_25  and  C_26
REMARK                            x       y       z     vdW  Elec       q    Type
REMARK                         _______ _______ _______ _____ _____    ______ ____
ROOT
ATOM      1  C   UNL     1       1.204   9.597  19.106  0.00  0.00    +0.000 A 
ATOM      2  N   UNL     1       0.852   8.730  20.128  0.00  0.00    +0.000 N 
ATOM      3  C   UNL     1       0.197   9.408  21.139  0.00  0.00    +0.000 A 
ATOM      4  C   UNL     1      -0.242   9.008  22.416  0.00  0.00    +0.000 A 
ATOM      5  C   UNL     1      -0.738  10.019  23.281  0.00  0.00    +0.000 A 
ATOM      6  C   UNL     1      -0.958  11.314  22.812  0.00  0.00    +0.000 A 
ATOM      7  C   UNL     1      -0.801  11.589  21.449  0.00  0.00    +0.000 A 
ATOM      8  C   UNL     1      -0.029  10.700  20.667  0.00  0.00    +0.000 A 
ATOM      9  C   UNL     1       0.666  10.842  19.421  0.00  0.00    +0.000 A 
ATOM     10  C   UNL     1      -1.613  12.758  20.935  0.00  0.00    +0.000 C 
ATOM     11  N   UNL     1      -2.858  12.696  21.690  0.00  0.00    +0.000 NA
ATOM     12  C   UNL     1      -4.042  13.399  21.207  0.00  0.00    +0.000 C 
ATOM     13  C   UNL     1      -5.108  13.510  22.363  0.00  0.00    +0.000 C 
ATOM     14  C   UNL     1      -4.517  14.404  23.474  0.00  0.00    +0.000 A 
ATOM     15  C   UNL     1      -5.298  15.458  23.946  0.00  0.00    +0.000 A 
ATOM     16  C   UNL     1      -4.745  16.726  23.885  0.00  0.00    +0.000 A 
ATOM     17  C   UNL     1      -3.444  16.853  23.394  0.00  0.00    +0.000 A 
ATOM     18  C   UNL     1      -2.593  15.712  23.229  0.00  0.00    +0.000 A 
ATOM     19  C   UNL     1      -3.103  14.428  23.440  0.00  0.00    +0.000 A 
ATOM     20  C   UNL     1      -2.567  12.995  23.096  0.00  0.00    +0.000 C 
ATOM     21  O   UNL     1      -1.360  12.382  23.618  0.00  0.00    +0.000 OA
ATOM     22  H   UNL     1       1.135   7.757  20.182  0.00  0.00    +0.000 HD
ENDROOT
BRANCH   9  23
ATOM     23  C   UNL     1       0.840  12.121  18.742  0.00  0.00    +0.000 C 
ATOM     24  O   UNL     1      -0.029  12.639  18.047  0.00  0.00    +0.000 OA
BRANCH  23  25
ATOM     25  O   UNL     1       2.126  12.575  18.796  0.00  0.00    +0.000 OA
BRANCH  25  26
ATOM     26  C   UNL     1       2.265  13.931  19.242  0.00  0.00    +0.000 C 
ATOM     27  C   UNL     1       2.844  14.814  18.175  0.00  0.00    +0.000 C 
ENDBRANCH  25  26
ENDBRANCH  23  25
ENDBRANCH   9  23
BRANCH  16  28
ATOM     28  S   UNL     1      -5.810  18.143  24.161  0.00  0.00    +0.000 S 
ATOM     29  C   UNL     1      -7.274  17.618  23.219  0.00  0.00    +0.000 C 
ENDBRANCH  16  28
BRANCH   1  30
ATOM     30  C   UNL     1       2.144   9.196  18.000  0.00  0.00    +0.000 C 
BRANCH  30  32
ATOM     31  C   UNL     1       3.843   7.324  17.534  0.00  0.00    +0.000 C 
ATOM     32  C   UNL     1       2.410   7.697  17.889  0.00  0.00    +0.000 C 
ENDBRANCH  30  32
ENDBRANCH   1  30
TORSDOF 6
ENDMDL
MODEL 5
REMARK VINA RESULT:      -6.0      4.414     10.653
REMARK  Name = 
REMARK  9 active torsions:
REMARK  status: ('A' for Active; 'I' for Inactive)
REMARK    1  A    between atoms: C_1  and  C_2
REMARK    2  A    between atoms: C_2  and  C_3
REMARK    3  A    between atoms: C_3  and  C_4
REMARK    4  A    between atoms: C_12  and  C_13
REMARK    5  A    between atoms: C_13  and  O_15
REMARK    6  A    between atoms: O_15  and  C_16
REMARK    7  A    between atoms: C_16  and  C_17
REMARK    8  A    between atoms: C_24  and  S_25
REMARK    9  A    between atoms: S_25  and  C_26
REMARK                            x       y       z     vdW  Elec       q    Type
REMARK                         _______ _______ _______ _____ _____    ______ ____
ROOT
ATOM      1  C   UNL     1      -3.684  15.189  22.413  0.00  0.00    +0.000 A 
ATOM      2  N   UNL     1      -2.669  15.990  21.911  0.00  0.00    +0.000 N 
ATOM      3  C   UNL     1      -1.555  15.232  21.605  0.00  0.00    +0.000 A 
ATOM      4  C   UNL     1      -0.256  15.584  21.193  0.00  0.00    +0.000 A 
ATOM      5  C   UNL     1       0.711  14.546  21.126  0.00  0.00    +0.000 A 
ATOM      6  C   UNL     1       0.336  13.211  21.276  0.00  0.00    +0.000 A 
ATOM      7  C   UNL     1      -1.021  12.884  21.376  0.00  0.00    +0.000 A 
ATOM      8  C   UNL     1      -1.933  13.897  21.749  0.00  0.00    +0.000 A 
ATOM      9  C   UNL     1      -3.246  13.871  22.326  0.00  0.00    +0.000 A 
ATOM     10  C   UNL     1      -1.376  11.484  20.923  0.00  0.00    +0.000 C 
ATOM     11  N   UNL     1      -0.480  11.226  19.803  0.00  0.00    +0.000 NA
ATOM     12  C   UNL     1      -0.782  10.157  18.857  0.00  0.00    +0.000 C 
ATOM     13  C   UNL     1       0.498   9.824  17.999  0.00  0.00    +0.000 C 
ATOM     14  C   UNL     1       1.572   9.249  18.947  0.00  0.00    +0.000 A 
ATOM     15  C   UNL     1       2.186   8.050  18.587  0.00  0.00    +0.000 A 
ATOM     16  C   UNL     1       2.120   7.011  19.500  0.00  0.00    +0.000 A 
ATOM     17  C   UNL     1       1.482   7.246  20.720  0.00  0.00    +0.000 A 
ATOM     18  C   UNL     1       1.160   8.575  21.150  0.00  0.00    +0.000 A 
ATOM     19  C   UNL     1       1.368   9.655  20.288  0.00  0.00    +0.000 A 
ATOM     20  C   UNL     1       0.893  11.149  20.312  0.00  0.00    +0.000 C 
ATOM     21  O   UNL     1       1.236  12.143  21.312  0.00  0.00    +0.000 OA
ATOM     22  H   UNL     1      -2.698  17.004  21.879  0.00  0.00    +0.000 HD
ENDROOT
BRANCH   9  23
ATOM     23  C   UNL     1      -3.878  12.654  22.823  0.00  0.00    +0.000 C 
ATOM     24  O   UNL     1      -3.337  11.889  23.617  0.00  0.00    +0.000 OA
BRANCH  23  25
ATOM     25  O   UNL     1      -5.035  12.355  22.163  0.00  0.00    +0.000 OA
BRANCH  25  26
ATOM     26  C   UNL     1      -4.969  12.509  20.739  0.00  0.00    +0.000 C 
ATOM     27  C   UNL     1      -6.302  12.883  20.155  0.00  0.00    +0.000 C 
ENDBRANCH  25  26
ENDBRANCH  23  25
ENDBRANCH   9  23
BRANCH  16  28
ATOM     28  S   UNL     1       2.591   5.365  18.965  0.00  0.00    +0.000 S 
ATOM     29  C   UNL     1       4.355   5.389  19.407  0.00  0.00    +0.000 C 
ENDBRANCH  16  28
BRANCH   1  30
ATOM     30  C   UNL     1      -4.912  15.764  23.065  0.00  0.00    +0.000 C 
BRANCH  30  32
ATOM     31  C   UNL     1      -4.996  17.497  24.962  0.00  0.00    +0.000 C 
ATOM     32  C   UNL     1      -4.781  16.044  24.560  0.00  0.00    +0.000 C 
ENDBRANCH  30  32
ENDBRANCH   1  30
TORSDOF 6
ENDMDL
MODEL 6
REMARK VINA RESULT:      -6.0      6.312      9.166
REMARK  Name = 
REMARK  9 active torsions:
REMARK  status: ('A' for Active; 'I' for Inactive)
REMARK    1  A    between atoms: C_1  and  C_2
REMARK    2  A    between atoms: C_2  and  C_3
REMARK    3  A    between atoms: C_3  and  C_4
REMARK    4  A    between atoms: C_12  and  C_13
REMARK    5  A    between atoms: C_13  and  O_15
REMARK    6  A    between atoms: O_15  and  C_16
REMARK    7  A    between atoms: C_16  and  C_17
REMARK    8  A    between atoms: C_24  and  S_25
REMARK    9  A    between atoms: S_25  and  C_26
REMARK                            x       y       z     vdW  Elec       q    Type
REMARK                         _______ _______ _______ _____ _____    ______ ____
ROOT
ATOM      1  C   UNL     1      -5.925  11.842  19.952  0.00  0.00    +0.000 A 
ATOM      2  N   UNL     1      -5.822  12.314  21.251  0.00  0.00    +0.000 N 
ATOM      3  C   UNL     1      -4.507  12.598  21.565  0.00  0.00    +0.000 A 
ATOM      4  C   UNL     1      -3.882  12.976  22.768  0.00  0.00    +0.000 A 
ATOM      5  C   UNL     1      -2.463  13.025  22.778  0.00  0.00    +0.000 A 
ATOM      6  C   UNL     1      -1.736  12.892  21.596  0.00  0.00    +0.000 A 
ATOM      7  C   UNL     1      -2.415  12.828  20.374  0.00  0.00    +0.000 A 
ATOM      8  C   UNL     1      -3.782  12.471  20.380  0.00  0.00    +0.000 A 
ATOM      9  C   UNL     1      -4.658  11.926  19.384  0.00  0.00    +0.000 A 
ATOM     10  C   UNL     1      -1.618  13.297  19.175  0.00  0.00    +0.000 C 
ATOM     11  N   UNL     1      -0.809  14.397  19.684  0.00  0.00    +0.000 NA
ATOM     12  C   UNL     1      -0.215  15.356  18.759  0.00  0.00    +0.000 C 
ATOM     13  C   UNL     1       0.907  16.184  19.494  0.00  0.00    +0.000 C 
ATOM     14  C   UNL     1       2.045  15.214  19.874  0.00  0.00    +0.000 A 
ATOM     15  C   UNL     1       3.347  15.567  19.523  0.00  0.00    +0.000 A 
ATOM     16  C   UNL     1       4.057  14.661  18.751  0.00  0.00    +0.000 A 
ATOM     17  C   UNL     1       3.437  13.456  18.415  0.00  0.00    +0.000 A 
ATOM     18  C   UNL     1       2.237  13.025  19.067  0.00  0.00    +0.000 A 
ATOM     19  C   UNL     1       1.593  13.876  19.971  0.00  0.00    +0.000 A 
ATOM     20  C   UNL     1       0.171  13.855  20.631  0.00  0.00    +0.000 C 
ATOM     21  O   UNL     1      -0.341  12.842  21.534  0.00  0.00    +0.000 OA
ATOM     22  H   UNL     1      -6.588  12.341  21.917  0.00  0.00    +0.000 HD
ENDROOT
BRANCH   9  23
ATOM     23  C   UNL     1      -4.195  11.451  18.085  0.00  0.00    +0.000 C 
ATOM     24  O   UNL     1      -4.605  11.901  17.018  0.00  0.00    +0.000 OA
BRANCH  23  25
ATOM     25  O   UNL     1      -3.421  10.332  18.179  0.00  0.00    +0.000 OA
BRANCH  25  26
ATOM     26  C   UNL     1      -2.375  10.243  17.201  0.00  0.00    +0.000 C 
ATOM     27  C   UNL     1      -1.034  10.011  17.837  0.00  0.00    +0.000 C 
ENDBRANCH  25  26
ENDBRANCH  23  25
ENDBRANCH   9  23
BRANCH  16  28
ATOM     28  S   UNL     1       5.594  15.195  17.995  0.00  0.00    +0.000 S 
ATOM     29  C   UNL     1       5.962  16.644  19.032  0.00  0.00    +0.000 C 
ENDBRANCH  16  28
BRANCH   1  30
ATOM     30  C   UNL     1      -7.189  11.216  19.423  0.00  0.00    +0.000 C 
BRANCH  30  32
ATOM     31  C   UNL     1      -7.566   8.963  20.602  0.00  0.00    +0.000 C 
ATOM     32  C   UNL     1      -7.165   9.692  19.327  0.00  0.00    +0.000 C 
ENDBRANCH  30  32
ENDBRANCH   1  30
TORSDOF 6
ENDMDL
MODEL 7
REMARK VINA RESULT:      -6.0      1.410      1.881
REMARK  Name = 
REMARK  9 active torsions:
REMARK  status: ('A' for Active; 'I' for Inactive)
REMARK    1  A    between atoms: C_1  and  C_2
REMARK    2  A    between atoms: C_2  and  C_3
REMARK    3  A    between atoms: C_3  and  C_4
REMARK    4  A    between atoms: C_12  and  C_13
REMARK    5  A    between atoms: C_13  and  O_15
REMARK    6  A    between atoms: O_15  and  C_16
REMARK    7  A    between atoms: C_16  and  C_17
REMARK    8  A    between atoms: C_24  and  S_25
REMARK    9  A    between atoms: S_25  and  C_26
REMARK                            x       y       z     vdW  Elec       q    Type
REMARK                         _______ _______ _______ _____ _____    ______ ____
ROOT
ATOM      1  C   UNL     1       3.584   4.659  18.180  0.00  0.00    +0.000 A 
ATOM      2  N   UNL     1       2.704   4.335  19.202  0.00  0.00    +0.000 N 
ATOM      3  C   UNL     1       2.187   5.479  19.781  0.00  0.00    +0.000 A 
ATOM      4  C   UNL     1       1.368   5.680  20.908  0.00  0.00    +0.000 A 
ATOM      5  C   UNL     1       1.158   7.019  21.330  0.00  0.00    +0.000 A 
ATOM      6  C   UNL     1       1.588   8.090  20.547  0.00  0.00    +0.000 A 
ATOM      7  C   UNL     1       2.124   7.843  19.278  0.00  0.00    +0.000 A 
ATOM      8  C   UNL     1       2.611   6.547  18.993  0.00  0.00    +0.000 A 
ATOM      9  C   UNL     1       3.547   6.042  18.031  0.00  0.00    +0.000 A 
ATOM     10  C   UNL     1       1.986   8.984  18.293  0.00  0.00    +0.000 C 
ATOM     11  N   UNL     1       0.696   9.584  18.610  0.00  0.00    +0.000 NA
ATOM     12  C   UNL     1       0.031  10.444  17.637  0.00  0.00    +0.000 C 
ATOM     13  C   UNL     1      -1.112  11.267  18.343  0.00  0.00    +0.000 C 
ATOM     14  C   UNL     1      -0.455  12.222  19.361  0.00  0.00    +0.000 A 
ATOM     15  C   UNL     1      -0.818  13.568  19.322  0.00  0.00    +0.000 A 
ATOM     16  C   UNL     1       0.203  14.490  19.165  0.00  0.00    +0.000 A 
ATOM     17  C   UNL     1       1.515  14.014  19.095  0.00  0.00    +0.000 A 
ATOM     18  C   UNL     1       1.841  12.667  19.460  0.00  0.00    +0.000 A 
ATOM     19  C   UNL     1       0.820  11.764  19.772  0.00  0.00    +0.000 A 
ATOM     20  C   UNL     1       0.784  10.206  19.935  0.00  0.00    +0.000 C 
ATOM     21  O   UNL     1       1.498   9.430  20.932  0.00  0.00    +0.000 OA
ATOM     22  H   UNL     1       2.548   3.395  19.552  0.00  0.00    +0.000 HD
ENDROOT
BRANCH   9  23
ATOM     23  C   UNL     1       4.365   6.900  17.181  0.00  0.00    +0.000 C 
ATOM     24  O   UNL     1       4.195   7.009  15.970  0.00  0.00    +0.000 OA
BRANCH  23  25
ATOM     25  O   UNL     1       5.450   7.406  17.835  0.00  0.00    +0.000 OA
BRANCH  25  26
ATOM     26  C   UNL     1       6.717   6.968  17.323  0.00  0.00    +0.000 C 
ATOM     27  C   UNL     1       7.817   7.938  17.646  0.00  0.00    +0.000 C 
ENDBRANCH  25  26
ENDBRANCH  23  25
ENDBRANCH   9  23
BRANCH  16  28
ATOM     28  S   UNL     1      -0.224  16.188  18.775  0.00  0.00    +0.000 S 
ATOM     29  C   UNL     1       1.443  16.883  18.555  0.00  0.00    +0.000 C 
ENDBRANCH  16  28
BRANCH   1  30
ATOM     30  C   UNL     1       4.486   3.635  17.544  0.00  0.00    +0.000 C 
BRANCH  30  32
ATOM     31  C   UNL     1       3.792   1.334  18.453  0.00  0.00    +0.000 C 
ATOM     32  C   UNL     1       3.836   2.283  17.264  0.00  0.00    +0.000 C 
ENDBRANCH  30  32
ENDBRANCH   1  30
TORSDOF 6
ENDMDL
MODEL 8
REMARK VINA RESULT:      -5.9      4.353      7.074
REMARK  Name = 
REMARK  9 active torsions:
REMARK  status: ('A' for Active; 'I' for Inactive)
REMARK    1  A    between atoms: C_1  and  C_2
REMARK    2  A    between atoms: C_2  and  C_3
REMARK    3  A    between atoms: C_3  and  C_4
REMARK    4  A    between atoms: C_12  and  C_13
REMARK    5  A    between atoms: C_13  and  O_15
REMARK    6  A    between atoms: O_15  and  C_16
REMARK    7  A    between atoms: C_16  and  C_17
REMARK    8  A    between atoms: C_24  and  S_25
REMARK    9  A    between atoms: S_25  and  C_26
REMARK                            x       y       z     vdW  Elec       q    Type
REMARK                         _______ _______ _______ _____ _____    ______ ____
ROOT
ATOM      1  C   UNL     1       0.893   9.463  19.135  0.00  0.00    +0.000 A 
ATOM      2  N   UNL     1       0.800   8.742  20.315  0.00  0.00    +0.000 N 
ATOM      3  C   UNL     1       0.180   9.490  21.297  0.00  0.00    +0.000 A 
ATOM      4  C   UNL     1      -0.036   9.258  22.669  0.00  0.00    +0.000 A 
ATOM      5  C   UNL     1      -0.567  10.328  23.436  0.00  0.00    +0.000 A 
ATOM      6  C   UNL     1      -1.032  11.487  22.816  0.00  0.00    +0.000 A 
ATOM      7  C   UNL     1      -1.084  11.549  21.419  0.00  0.00    +0.000 A 
ATOM      8  C   UNL     1      -0.290  10.646  20.675  0.00  0.00    +0.000 A 
ATOM      9  C   UNL     1       0.220  10.665  19.335  0.00  0.00    +0.000 A 
ATOM     10  C   UNL     1      -2.116  12.504  20.860  0.00  0.00    +0.000 C 
ATOM     11  N   UNL     1      -3.237  12.412  21.787  0.00  0.00    +0.000 NA
ATOM     12  C   UNL     1      -4.561  12.869  21.379  0.00  0.00    +0.000 C 
ATOM     13  C   UNL     1      -5.483  13.036  22.646  0.00  0.00    +0.000 C 
ATOM     14  C   UNL     1      -4.900  14.170  23.516  0.00  0.00    +0.000 A 
ATOM     15  C   UNL     1      -5.765  15.181  23.933  0.00  0.00    +0.000 A 
ATOM     16  C   UNL     1      -5.416  16.481  23.605  0.00  0.00    +0.000 A 
ATOM     17  C   UNL     1      -4.218  16.688  22.919  0.00  0.00    +0.000 A 
ATOM     18  C   UNL     1      -3.234  15.652  22.805  0.00  0.00    +0.000 A 
ATOM     19  C   UNL     1      -3.520  14.367  23.276  0.00  0.00    +0.000 A 
ATOM     20  C   UNL     1      -2.824  12.976  23.076  0.00  0.00    +0.000 C 
ATOM     21  O   UNL     1      -1.485  12.616  23.504  0.00  0.00    +0.000 OA
ATOM     22  H   UNL     1       1.228   7.834  20.471  0.00  0.00    +0.000 HD
ENDROOT
BRANCH   9  23
ATOM     23  C   UNL     1       0.119  11.824  18.456  0.00  0.00    +0.000 C 
ATOM     24  O   UNL     1       1.003  12.669  18.350  0.00  0.00    +0.000 OA
BRANCH  23  25
ATOM     25  O   UNL     1      -1.129  11.973  17.924  0.00  0.00    +0.000 OA
BRANCH  25  26
ATOM     26  C   UNL     1      -1.635  10.813  17.249  0.00  0.00    +0.000 C 
ATOM     27  C   UNL     1      -2.971  10.391  17.789  0.00  0.00    +0.000 C 
ENDBRANCH  25  26
ENDBRANCH  23  25
ENDBRANCH   9  23
BRANCH  16  28
ATOM     28  S   UNL     1      -6.637  17.778  23.818  0.00  0.00    +0.000 S 
ATOM     29  C   UNL     1      -7.905  17.205  22.647  0.00  0.00    +0.000 C 
ENDBRANCH  16  28
BRANCH   1  30
ATOM     30  C   UNL     1       1.740   9.004  17.978  0.00  0.00    +0.000 C 
BRANCH  30  32
ATOM     31  C   UNL     1       2.387   6.517  17.987  0.00  0.00    +0.000 C 
ATOM     32  C   UNL     1       2.787   7.947  18.321  0.00  0.00    +0.000 C 
ENDBRANCH  30  32
ENDBRANCH   1  30
TORSDOF 6
ENDMDL
MODEL 9
REMARK VINA RESULT:      -5.9      4.287     10.456
REMARK  Name = 
REMARK  9 active torsions:
REMARK  status: ('A' for Active; 'I' for Inactive)
REMARK    1  A    between atoms: C_1  and  C_2
REMARK    2  A    between atoms: C_2  and  C_3
REMARK    3  A    between atoms: C_3  and  C_4
REMARK    4  A    between atoms: C_12  and  C_13
REMARK    5  A    between atoms: C_13  and  O_15
REMARK    6  A    between atoms: O_15  and  C_16
REMARK    7  A    between atoms: C_16  and  C_17
REMARK    8  A    between atoms: C_24  and  S_25
REMARK    9  A    between atoms: S_25  and  C_26
REMARK                            x       y       z     vdW  Elec       q    Type
REMARK                         _______ _______ _______ _____ _____    ______ ____
ROOT
ATOM      1  C   UNL     1      -3.747  15.248  20.969  0.00  0.00    +0.000 A 
ATOM      2  N   UNL     1      -2.625  15.986  20.623  0.00  0.00    +0.000 N 
ATOM      3  C   UNL     1      -1.504  15.179  20.584  0.00  0.00    +0.000 A 
ATOM      4  C   UNL     1      -0.137  15.467  20.409  0.00  0.00    +0.000 A 
ATOM      5  C   UNL     1       0.783  14.402  20.593  0.00  0.00    +0.000 A 
ATOM      6  C   UNL     1       0.334  13.091  20.749  0.00  0.00    +0.000 A 
ATOM      7  C   UNL     1      -1.029  12.808  20.605  0.00  0.00    +0.000 A 
ATOM      8  C   UNL     1      -1.955  13.868  20.733  0.00  0.00    +0.000 A 
ATOM      9  C   UNL     1      -3.353  13.916  21.048  0.00  0.00    +0.000 A 
ATOM     10  C   UNL     1      -1.346  11.390  20.178  0.00  0.00    +0.000 C 
ATOM     11  N   UNL     1      -0.264  11.034  19.269  0.00  0.00    +0.000 NA
ATOM     12  C   UNL     1      -0.422   9.912  18.349  0.00  0.00    +0.000 C 
ATOM     13  C   UNL     1       0.982   9.488  17.776  0.00  0.00    +0.000 C 
ATOM     14  C   UNL     1       1.833   8.949  18.946  0.00  0.00    +0.000 A 
ATOM     15  C   UNL     1       2.457   7.713  18.783  0.00  0.00    +0.000 A 
ATOM     16  C   UNL     1       2.178   6.739  19.728  0.00  0.00    +0.000 A 
ATOM     17  C   UNL     1       1.329   7.073  20.786  0.00  0.00    +0.000 A 
ATOM     18  C   UNL     1       0.984   8.435  21.065  0.00  0.00    +0.000 A 
ATOM     19  C   UNL     1       1.395   9.450  20.195  0.00  0.00    +0.000 A 
ATOM     20  C   UNL     1       0.983  10.954  20.036  0.00  0.00    +0.000 C 
ATOM     21  O   UNL     1       1.168  12.003  21.021  0.00  0.00    +0.000 OA
ATOM     22  H   UNL     1      -2.607  16.996  20.525  0.00  0.00    +0.000 HD
ENDROOT
BRANCH   9  23
ATOM     23  C   UNL     1      -4.115  12.752  21.487  0.00  0.00    +0.000 C 
ATOM     24  O   UNL     1      -5.112  12.339  20.901  0.00  0.00    +0.000 OA
BRANCH  23  25
ATOM     25  O   UNL     1      -3.726  12.301  22.714  0.00  0.00    +0.000 OA
BRANCH  25  26
ATOM     26  C   UNL     1      -4.424  12.891  23.819  0.00  0.00    +0.000 C 
ATOM     27  C   UNL     1      -3.517  13.736  24.667  0.00  0.00    +0.000 C 
ENDBRANCH  25  26
ENDBRANCH  23  25
ENDBRANCH   9  23
BRANCH  16  28
ATOM     28  S   UNL     1       2.677   5.049  19.395  0.00  0.00    +0.000 S 
ATOM     29  C   UNL     1       3.577   5.294  17.833  0.00  0.00    +0.000 C 
ENDBRANCH  16  28
BRANCH   1  30
ATOM     30  C   UNL     1      -5.054  15.899  21.336  0.00  0.00    +0.000 C 
BRANCH  30  32
ATOM     31  C   UNL     1      -6.472  16.676  23.335  0.00  0.00    +0.000 C 
ATOM     32  C   UNL     1      -5.086  16.553  22.715  0.00  0.00    +0.000 C 
ENDBRANCH  30  32
ENDBRANCH   1  30
TORSDOF 6
ENDMDL
