MODEL 1
REMARK VINA RESULT:      -7.7      0.000      0.000
REMARK  Name = 
REMARK  7 active torsions:
REMARK  status: ('A' for Active; 'I' for Inactive)
REMARK    1  A    between atoms: C_1  and  C_2
REMARK    2  A    between atoms: C_4  and  C_5
REMARK    3  A    between atoms: N_7  and  S_8
REMARK    4  A    between atoms: S_8  and  N_11
REMARK    5  A    between atoms: N_14  and  C_15
REMARK    6  A    between atoms: C_18  and  C_19
REMARK    7  A    between atoms: C_24  and  N_25
REMARK                            x       y       z     vdW  Elec       q    Type
REMARK                         _______ _______ _______ _____ _____    ______ ____
ROOT
ATOM      1  N   UNL     1       2.505   3.695  19.264  0.00  0.00    +0.000 NA
ATOM      2  C   UNL     1       2.545   4.481  20.551  0.00  0.00    +0.000 C 
ATOM      3  C   UNL     1       2.840   6.002  20.370  0.00  0.00    +0.000 C 
ATOM      4  N   UNL     1       1.927   6.588  19.352  0.00  0.00    +0.000 N 
ATOM      5  C   UNL     1       2.083   5.861  18.059  0.00  0.00    +0.000 C 
ATOM      6  C   UNL     1       1.652   4.395  18.253  0.00  0.00    +0.000 C 
ENDROOT
BRANCH   4   7
ATOM      7  C   UNL     1       1.889   7.981  19.157  0.00  0.00    +0.000 A 
ATOM      8  C   UNL     1       2.406   8.589  18.001  0.00  0.00    +0.000 A 
ATOM      9  C   UNL     1       2.302   9.977  17.777  0.00  0.00    +0.000 A 
ATOM     10  C   UNL     1       1.682  10.820  18.708  0.00  0.00    +0.000 A 
ATOM     11  C   UNL     1       1.161  10.244  19.872  0.00  0.00    +0.000 A 
ATOM     12  C   UNL     1       1.270   8.852  20.082  0.00  0.00    +0.000 A 
BRANCH  10  13
ATOM     13  C   UNL     1       1.579  12.311  18.494  0.00  0.00    +0.000 C 
ATOM     14  F   UNL     1       2.403  12.786  17.523  0.00  0.00    +0.000 F 
ATOM     15  F   UNL     1       0.318  12.696  18.138  0.00  0.00    +0.000 F 
ATOM     16  F   UNL     1       1.875  13.016  19.620  0.00  0.00    +0.000 F 
ENDBRANCH  10  13
BRANCH  12  17
ATOM     17  N   UNL     1       0.759   8.365  21.361  0.00  0.00    +0.000 N 
ATOM     18  O   UNL     1      -0.364   7.845  21.377  0.00  0.00    +0.000 OA
ATOM     19  O   UNL     1       1.446   8.608  22.357  0.00  0.00    +0.000 OA
ENDBRANCH  12  17
ENDBRANCH   4   7
BRANCH   1  20
ATOM     20  S   UNL     1       3.989   3.098  18.725  0.00  0.00    +0.000 S 
ATOM     21  O   UNL     1       3.729   2.157  17.661  0.00  0.00    +0.000 OA
ATOM     22  O   UNL     1       4.762   2.695  19.884  0.00  0.00    +0.000 OA
BRANCH  20  29
ATOM     23  C   UNL     1       4.673   6.735  16.041  0.00  0.00    +0.000 C 
ATOM     24  C   UNL     1       5.711   5.607  16.028  0.00  0.00    +0.000 C 
ATOM     25  C   UNL     1       6.970   6.006  16.805  0.00  0.00    +0.000 C 
ATOM     26  C   UNL     1       6.704   6.078  18.313  0.00  0.00    +0.000 C 
ATOM     27  C   UNL     1       8.026   6.291  19.056  0.00  0.00    +0.000 C 
ATOM     28  C   UNL     1       5.994   4.816  18.831  0.00  0.00    +0.000 C 
ATOM     29  N   UNL     1       4.774   4.450  18.019  0.00  0.00    +0.000 NA
ATOM     30  C   UNL     1       5.151   4.284  16.585  0.00  0.00    +0.000 C 
ENDBRANCH  20  29
ENDBRANCH   1  20
TORSDOF 5
ENDMDL
MODEL 2
REMARK VINA RESULT:      -7.5      4.501      8.409
REMARK  Name = 
REMARK  7 active torsions:
REMARK  status: ('A' for Active; 'I' for Inactive)
REMARK    1  A    between atoms: C_1  and  C_2
REMARK    2  A    between atoms: C_4  and  C_5
REMARK    3  A    between atoms: N_7  and  S_8
REMARK    4  A    between atoms: S_8  and  N_11
REMARK    5  A    between atoms: N_14  and  C_15
REMARK    6  A    between atoms: C_18  and  C_19
REMARK    7  A    between atoms: C_24  and  N_25
REMARK                            x       y       z     vdW  Elec       q    Type
REMARK                         _______ _______ _______ _____ _____    ______ ____
ROOT
ATOM      1  N   UNL     1       0.306   9.597  19.940  0.00  0.00    +0.000 NA
ATOM      2  C   UNL     1       0.357   9.619  18.432  0.00  0.00    +0.000 C 
ATOM      3  C   UNL     1       1.677   9.054  17.822  0.00  0.00    +0.000 C 
ATOM      4  N   UNL     1       1.984   7.719  18.403  0.00  0.00    +0.000 N 
ATOM      5  C   UNL     1       2.090   7.827  19.886  0.00  0.00    +0.000 C 
ATOM      6  C   UNL     1       0.725   8.257  20.456  0.00  0.00    +0.000 C 
ENDROOT
BRANCH   4   7
ATOM      7  C   UNL     1       3.028   6.941  17.868  0.00  0.00    +0.000 A 
ATOM      8  C   UNL     1       4.209   7.516  17.369  0.00  0.00    +0.000 A 
ATOM      9  C   UNL     1       5.282   6.730  16.900  0.00  0.00    +0.000 A 
ATOM     10  C   UNL     1       5.214   5.331  16.904  0.00  0.00    +0.000 A 
ATOM     11  C   UNL     1       4.049   4.729  17.392  0.00  0.00    +0.000 A 
ATOM     12  C   UNL     1       2.983   5.528  17.860  0.00  0.00    +0.000 A 
BRANCH  10  13
ATOM     13  C   UNL     1       6.345   4.474  16.388  0.00  0.00    +0.000 C 
ATOM     14  F   UNL     1       7.276   4.166  17.331  0.00  0.00    +0.000 F 
ATOM     15  F   UNL     1       5.905   3.280  15.892  0.00  0.00    +0.000 F 
ATOM     16  F   UNL     1       7.022   5.069  15.369  0.00  0.00    +0.000 F 
ENDBRANCH  10  13
BRANCH  12  17
ATOM     17  N   UNL     1       1.787   4.802  18.278  0.00  0.00    +0.000 N 
ATOM     18  O   UNL     1       1.659   4.538  19.481  0.00  0.00    +0.000 OA
ATOM     19  O   UNL     1       1.039   4.408  17.379  0.00  0.00    +0.000 OA
ENDBRANCH  12  17
ENDBRANCH   4   7
BRANCH   1  20
ATOM     20  S   UNL     1       0.958  10.949  20.713  0.00  0.00    +0.000 S 
ATOM     21  O   UNL     1       1.578  11.779  19.706  0.00  0.00    +0.000 OA
ATOM     22  O   UNL     1       1.726  10.490  21.854  0.00  0.00    +0.000 OA
BRANCH  20  29
ATOM     23  C   UNL     1      -1.544  13.678  23.392  0.00  0.00    +0.000 C 
ATOM     24  C   UNL     1      -2.052  12.260  23.112  0.00  0.00    +0.000 C 
ATOM     25  C   UNL     1      -3.204  12.275  22.103  0.00  0.00    +0.000 C 
ATOM     26  C   UNL     1      -2.721  12.646  20.697  0.00  0.00    +0.000 C 
ATOM     27  C   UNL     1      -3.866  12.463  19.696  0.00  0.00    +0.000 C 
ATOM     28  C   UNL     1      -1.499  11.814  20.272  0.00  0.00    +0.000 C 
ATOM     29  N   UNL     1      -0.400  11.810  21.309  0.00  0.00    +0.000 NA
ATOM     30  C   UNL     1      -0.935  11.322  22.613  0.00  0.00    +0.000 C 
ENDBRANCH  20  29
ENDBRANCH   1  20
TORSDOF 5
ENDMDL
MODEL 3
REMARK VINA RESULT:      -7.2      4.496      8.357
REMARK  Name = 
REMARK  7 active torsions:
REMARK  status: ('A' for Active; 'I' for Inactive)
REMARK    1  A    between atoms: C_1  and  C_2
REMARK    2  A    between atoms: C_4  and  C_5
REMARK    3  A    between atoms: N_7  and  S_8
REMARK    4  A    between atoms: S_8  and  N_11
REMARK    5  A    between atoms: N_14  and  C_15
REMARK    6  A    between atoms: C_18  and  C_19
REMARK    7  A    between atoms: C_24  and  N_25
REMARK                            x       y       z     vdW  Elec       q    Type
REMARK                         _______ _______ _______ _____ _____    ______ ____
ROOT
ATOM      1  N   UNL     1       0.207   9.522  19.943  0.00  0.00    +0.000 NA
ATOM      2  C   UNL     1       0.232   9.489  18.435  0.00  0.00    +0.000 C 
ATOM      3  C   UNL     1       1.571   8.972  17.822  0.00  0.00    +0.000 C 
ATOM      4  N   UNL     1       1.957   7.677  18.445  0.00  0.00    +0.000 N 
ATOM      5  C   UNL     1       2.082   7.847  19.921  0.00  0.00    +0.000 C 
ATOM      6  C   UNL     1       0.705   8.225  20.500  0.00  0.00    +0.000 C 
ENDROOT
BRANCH   4   7
ATOM      7  C   UNL     1       3.032   6.936  17.921  0.00  0.00    +0.000 A 
ATOM      8  C   UNL     1       4.209   7.549  17.460  0.00  0.00    +0.000 A 
ATOM      9  C   UNL     1       5.312   6.798  17.001  0.00  0.00    +0.000 A 
ATOM     10  C   UNL     1       5.279   5.398  16.977  0.00  0.00    +0.000 A 
ATOM     11  C   UNL     1       4.118   4.759  17.427  0.00  0.00    +0.000 A 
ATOM     12  C   UNL     1       3.023   5.522  17.885  0.00  0.00    +0.000 A 
BRANCH  10  13
ATOM     13  C   UNL     1       6.442   4.579  16.472  0.00  0.00    +0.000 C 
ATOM     14  F   UNL     1       7.338   4.242  17.437  0.00  0.00    +0.000 F 
ATOM     15  F   UNL     1       6.039   3.403  15.906  0.00  0.00    +0.000 F 
ATOM     16  F   UNL     1       7.152   5.227  15.508  0.00  0.00    +0.000 F 
ENDBRANCH  10  13
BRANCH  12  17
ATOM     17  N   UNL     1       1.835   4.760  18.261  0.00  0.00    +0.000 N 
ATOM     18  O   UNL     1       1.701   4.445  19.451  0.00  0.00    +0.000 OA
ATOM     19  O   UNL     1       1.103   4.389  17.339  0.00  0.00    +0.000 OA
ENDBRANCH  12  17
ENDBRANCH   4   7
BRANCH   1  20
ATOM     20  S   UNL     1       0.800  10.934  20.654  0.00  0.00    +0.000 S 
ATOM     21  O   UNL     1       1.597  11.626  19.668  0.00  0.00    +0.000 OA
ATOM     22  O   UNL     1       1.371  10.587  21.941  0.00  0.00    +0.000 OA
BRANCH  20  29
ATOM     23  C   UNL     1      -3.430  12.597  20.179  0.00  0.00    +0.000 C 
ATOM     24  C   UNL     1      -2.252  13.577  20.170  0.00  0.00    +0.000 C 
ATOM     25  C   UNL     1      -2.154  14.337  21.497  0.00  0.00    +0.000 C 
ATOM     26  C   UNL     1      -1.706  13.421  22.642  0.00  0.00    +0.000 C 
ATOM     27  C   UNL     1      -1.442  14.261  23.895  0.00  0.00    +0.000 C 
ATOM     28  C   UNL     1      -0.455  12.607  22.268  0.00  0.00    +0.000 C 
ATOM     29  N   UNL     1      -0.590  11.896  20.942  0.00  0.00    +0.000 NA
ATOM     30  C   UNL     1      -0.910  12.881  19.868  0.00  0.00    +0.000 C 
ENDBRANCH  20  29
ENDBRANCH   1  20
TORSDOF 5
ENDMDL
MODEL 4
REMARK VINA RESULT:      -7.1      4.650      8.522
REMARK  Name = 
REMARK  7 active torsions:
REMARK  status: ('A' for Active; 'I' for Inactive)
REMARK    1  A    between atoms: C_1  and  C_2
REMARK    2  A    between atoms: C_4  and  C_5
REMARK    3  A    between atoms: N_7  and  S_8
REMARK    4  A    between atoms: S_8  and  N_11
REMARK    5  A    between atoms: N_14  and  C_15
REMARK    6  A    between atoms: C_18  and  C_19
REMARK    7  A    between atoms: C_24  and  N_25
REMARK                            x       y       z     vdW  Elec       q    Type
REMARK                         _______ _______ _______ _____ _____    ______ ____
ROOT
ATOM      1  N   UNL     1       0.027   9.991  20.011  0.00  0.00    +0.000 NA
ATOM      2  C   UNL     1       0.002   9.740  18.524  0.00  0.00    +0.000 C 
ATOM      3  C   UNL     1       1.330   9.163  17.944  0.00  0.00    +0.000 C 
ATOM      4  N   UNL     1       1.767   7.980  18.733  0.00  0.00    +0.000 N 
ATOM      5  C   UNL     1       1.937   8.364  20.163  0.00  0.00    +0.000 C 
ATOM      6  C   UNL     1       0.573   8.798  20.731  0.00  0.00    +0.000 C 
ENDROOT
BRANCH   4   7
ATOM      7  C   UNL     1       2.840   7.190  18.281  0.00  0.00    +0.000 A 
ATOM      8  C   UNL     1       3.845   7.701  17.444  0.00  0.00    +0.000 A 
ATOM      9  C   UNL     1       4.957   6.926  17.052  0.00  0.00    +0.000 A 
ATOM     10  C   UNL     1       5.105   5.600  17.476  0.00  0.00    +0.000 A 
ATOM     11  C   UNL     1       4.117   5.061  18.309  0.00  0.00    +0.000 A 
ATOM     12  C   UNL     1       3.011   5.848  18.695  0.00  0.00    +0.000 A 
BRANCH  10  13
ATOM     13  C   UNL     1       6.278   4.749  17.051  0.00  0.00    +0.000 C 
ATOM     14  F   UNL     1       5.934   3.688  16.274  0.00  0.00    +0.000 F 
ATOM     15  F   UNL     1       7.198   5.459  16.333  0.00  0.00    +0.000 F 
ATOM     16  F   UNL     1       6.956   4.236  18.114  0.00  0.00    +0.000 F 
ENDBRANCH  10  13
BRANCH  12  17
ATOM     17  N   UNL     1       2.003   5.167  19.503  0.00  0.00    +0.000 N 
ATOM     18  O   UNL     1       2.058   5.301  20.733  0.00  0.00    +0.000 OA
ATOM     19  O   UNL     1       1.230   4.416  18.902  0.00  0.00    +0.000 OA
ENDBRANCH  12  17
ENDBRANCH   4   7
BRANCH   1  20
ATOM     20  S   UNL     1       0.611  11.502  20.488  0.00  0.00    +0.000 S 
ATOM     21  O   UNL     1       0.884  12.268  19.295  0.00  0.00    +0.000 OA
ATOM     22  O   UNL     1       1.651  11.293  21.476  0.00  0.00    +0.000 OA
BRANCH  20  29
ATOM     23  C   UNL     1      -1.708  13.960  23.566  0.00  0.00    +0.000 C 
ATOM     24  C   UNL     1      -2.166  12.526  23.276  0.00  0.00    +0.000 C 
ATOM     25  C   UNL     1      -3.428  12.514  22.407  0.00  0.00    +0.000 C 
ATOM     26  C   UNL     1      -3.133  12.973  20.975  0.00  0.00    +0.000 C 
ATOM     27  C   UNL     1      -4.375  12.763  20.104  0.00  0.00    +0.000 C 
ATOM     28  C   UNL     1      -1.925  12.234  20.374  0.00  0.00    +0.000 C 
ATOM     29  N   UNL     1      -0.714  12.254  21.277  0.00  0.00    +0.000 NA
ATOM     30  C   UNL     1      -1.065  11.679  22.608  0.00  0.00    +0.000 C 
ENDBRANCH  20  29
ENDBRANCH   1  20
TORSDOF 5
ENDMDL
MODEL 5
REMARK VINA RESULT:      -7.0      4.914      8.662
REMARK  Name = 
REMARK  7 active torsions:
REMARK  status: ('A' for Active; 'I' for Inactive)
REMARK    1  A    between atoms: C_1  and  C_2
REMARK    2  A    between atoms: C_4  and  C_5
REMARK    3  A    between atoms: N_7  and  S_8
REMARK    4  A    between atoms: S_8  and  N_11
REMARK    5  A    between atoms: N_14  and  C_15
REMARK    6  A    between atoms: C_18  and  C_19
REMARK    7  A    between atoms: C_24  and  N_25
REMARK                            x       y       z     vdW  Elec       q    Type
REMARK                         _______ _______ _______ _____ _____    ______ ____
ROOT
ATOM      1  N   UNL     1      -0.792  13.748  20.503  0.00  0.00    +0.000 NA
ATOM      2  C   UNL     1      -1.682  12.712  19.863  0.00  0.00    +0.000 C 
ATOM      3  C   UNL     1      -0.918  11.591  19.092  0.00  0.00    +0.000 C 
ATOM      4  N   UNL     1       0.143  11.004  19.953  0.00  0.00    +0.000 N 
ATOM      5  C   UNL     1       1.080  12.074  20.397  0.00  0.00    +0.000 C 
ATOM      6  C   UNL     1       0.311  13.086  21.267  0.00  0.00    +0.000 C 
ENDROOT
BRANCH   4   7
ATOM      7  C   UNL     1       0.837   9.854  19.531  0.00  0.00    +0.000 A 
ATOM      8  C   UNL     1       1.306   9.705  18.216  0.00  0.00    +0.000 A 
ATOM      9  C   UNL     1       2.063   8.585  17.815  0.00  0.00    +0.000 A 
ATOM     10  C   UNL     1       2.375   7.559  18.716  0.00  0.00    +0.000 A 
ATOM     11  C   UNL     1       1.918   7.677  20.033  0.00  0.00    +0.000 A 
ATOM     12  C   UNL     1       1.163   8.805  20.421  0.00  0.00    +0.000 A 
BRANCH  10  13
ATOM     13  C   UNL     1       3.168   6.342  18.301  0.00  0.00    +0.000 C 
ATOM     14  F   UNL     1       3.808   5.726  19.330  0.00  0.00    +0.000 F 
ATOM     15  F   UNL     1       2.383   5.387  17.720  0.00  0.00    +0.000 F 
ATOM     16  F   UNL     1       4.127   6.640  17.382  0.00  0.00    +0.000 F 
ENDBRANCH  10  13
BRANCH  12  17
ATOM     17  N   UNL     1       0.673   8.795  21.797  0.00  0.00    +0.000 N 
ATOM     18  O   UNL     1      -0.458   8.338  22.007  0.00  0.00    +0.000 OA
ATOM     19  O   UNL     1       1.387   9.345  22.640  0.00  0.00    +0.000 OA
ENDBRANCH  12  17
ENDBRANCH   4   7
BRANCH   1  20
ATOM     20  S   UNL     1      -0.361  15.051  19.519  0.00  0.00    +0.000 S 
ATOM     21  O   UNL     1      -1.178  16.181  19.897  0.00  0.00    +0.000 OA
ATOM     22  O   UNL     1      -0.341  14.592  18.144  0.00  0.00    +0.000 OA
BRANCH  20  29
ATOM     23  C   UNL     1       3.229  16.022  22.176  0.00  0.00    +0.000 C 
ATOM     24  C   UNL     1       2.903  16.963  21.011  0.00  0.00    +0.000 C 
ATOM     25  C   UNL     1       3.879  16.763  19.848  0.00  0.00    +0.000 C 
ATOM     26  C   UNL     1       3.657  15.418  19.148  0.00  0.00    +0.000 C 
ATOM     27  C   UNL     1       4.522  15.348  17.886  0.00  0.00    +0.000 C 
ATOM     28  C   UNL     1       2.176  15.192  18.797  0.00  0.00    +0.000 C 
ATOM     29  N   UNL     1       1.252  15.424  19.969  0.00  0.00    +0.000 NA
ATOM     30  C   UNL     1       1.454  16.800  20.510  0.00  0.00    +0.000 C 
ENDBRANCH  20  29
ENDBRANCH   1  20
TORSDOF 5
ENDMDL
MODEL 6
REMARK VINA RESULT:      -6.9      5.611      9.728
REMARK  Name = 
REMARK  7 active torsions:
REMARK  status: ('A' for Active; 'I' for Inactive)
REMARK    1  A    between atoms: C_1  and  C_2
REMARK    2  A    between atoms: C_4  and  C_5
REMARK    3  A    between atoms: N_7  and  S_8
REMARK    4  A    between atoms: S_8  and  N_11
REMARK    5  A    between atoms: N_14  and  C_15
REMARK    6  A    between atoms: C_18  and  C_19
REMARK    7  A    between atoms: C_24  and  N_25
REMARK                            x       y       z     vdW  Elec       q    Type
REMARK                         _______ _______ _______ _____ _____    ______ ____
ROOT
ATOM      1  N   UNL     1      -1.534  12.978  20.514  0.00  0.00    +0.000 NA
ATOM      2  C   UNL     1      -0.035  13.150  20.539  0.00  0.00    +0.000 C 
ATOM      3  C   UNL     1       0.767  11.813  20.595  0.00  0.00    +0.000 C 
ATOM      4  N   UNL     1       0.299  10.885  19.531  0.00  0.00    +0.000 N 
ATOM      5  C   UNL     1      -1.162  10.632  19.690  0.00  0.00    +0.000 C 
ATOM      6  C   UNL     1      -1.924  11.957  19.492  0.00  0.00    +0.000 C 
ENDROOT
BRANCH   4   7
ATOM      7  C   UNL     1       1.002   9.692  19.276  0.00  0.00    +0.000 A 
ATOM      8  C   UNL     1       1.542   9.398  18.014  0.00  0.00    +0.000 A 
ATOM      9  C   UNL     1       2.307   8.236  17.781  0.00  0.00    +0.000 A 
ATOM     10  C   UNL     1       2.556   7.313  18.804  0.00  0.00    +0.000 A 
ATOM     11  C   UNL     1       2.028   7.577  20.073  0.00  0.00    +0.000 A 
ATOM     12  C   UNL     1       1.266   8.745  20.292  0.00  0.00    +0.000 A 
BRANCH  10  13
ATOM     13  C   UNL     1       3.357   6.054  18.569  0.00  0.00    +0.000 C 
ATOM     14  F   UNL     1       3.633   5.358  19.704  0.00  0.00    +0.000 F 
ATOM     15  F   UNL     1       2.713   5.180  17.740  0.00  0.00    +0.000 F 
ATOM     16  F   UNL     1       4.556   6.307  17.979  0.00  0.00    +0.000 F 
ENDBRANCH  10  13
BRANCH  12  17
ATOM     17  N   UNL     1       0.700   8.887  21.631  0.00  0.00    +0.000 N 
ATOM     18  O   UNL     1       1.427   9.345  22.523  0.00  0.00    +0.000 OA
ATOM     19  O   UNL     1      -0.436   8.437  21.800  0.00  0.00    +0.000 OA
ENDBRANCH  12  17
ENDBRANCH   4   7
BRANCH   1  20
ATOM     20  S   UNL     1      -2.283  12.871  22.023  0.00  0.00    +0.000 S 
ATOM     21  O   UNL     1      -2.011  14.094  22.741  0.00  0.00    +0.000 OA
ATOM     22  O   UNL     1      -1.940  11.590  22.608  0.00  0.00    +0.000 OA
BRANCH  20  29
ATOM     23  C   UNL     1      -6.163  12.403  19.653  0.00  0.00    +0.000 C 
ATOM     24  C   UNL     1      -5.915  13.717  20.401  0.00  0.00    +0.000 C 
ATOM     25  C   UNL     1      -6.760  13.797  21.676  0.00  0.00    +0.000 C 
ATOM     26  C   UNL     1      -6.270  12.810  22.742  0.00  0.00    +0.000 C 
ATOM     27  C   UNL     1      -7.020  13.060  24.054  0.00  0.00    +0.000 C 
ATOM     28  C   UNL     1      -4.751  12.914  22.964  0.00  0.00    +0.000 C 
ATOM     29  N   UNL     1      -3.963  12.854  21.677  0.00  0.00    +0.000 NA
ATOM     30  C   UNL     1      -4.428  13.926  20.748  0.00  0.00    +0.000 C 
ENDBRANCH  20  29
ENDBRANCH   1  20
TORSDOF 5
ENDMDL
MODEL 7
REMARK VINA RESULT:      -6.8      5.721     10.032
REMARK  Name = 
REMARK  7 active torsions:
REMARK  status: ('A' for Active; 'I' for Inactive)
REMARK    1  A    between atoms: C_1  and  C_2
REMARK    2  A    between atoms: C_4  and  C_5
REMARK    3  A    between atoms: N_7  and  S_8
REMARK    4  A    between atoms: S_8  and  N_11
REMARK    5  A    between atoms: N_14  and  C_15
REMARK    6  A    between atoms: C_18  and  C_19
REMARK    7  A    between atoms: C_24  and  N_25
REMARK                            x       y       z     vdW  Elec       q    Type
REMARK                         _______ _______ _______ _____ _____    ______ ____
ROOT
ATOM      1  N   UNL     1      -1.264  13.308  21.201  0.00  0.00    +0.000 NA
ATOM      2  C   UNL     1       0.234  13.420  21.058  0.00  0.00    +0.000 C 
ATOM      3  C   UNL     1       0.975  12.053  20.932  0.00  0.00    +0.000 C 
ATOM      4  N   UNL     1       0.344  11.219  19.874  0.00  0.00    +0.000 N 
ATOM      5  C   UNL     1      -1.098  11.012  20.190  0.00  0.00    +0.000 C 
ATOM      6  C   UNL     1      -1.816  12.375  20.170  0.00  0.00    +0.000 C 
ENDROOT
BRANCH   4   7
ATOM      7  C   UNL     1       0.957  10.022  19.461  0.00  0.00    +0.000 A 
ATOM      8  C   UNL     1       1.406   9.826  18.145  0.00  0.00    +0.000 A 
ATOM      9  C   UNL     1       2.083   8.653  17.753  0.00  0.00    +0.000 A 
ATOM     10  C   UNL     1       2.333   7.619  18.664  0.00  0.00    +0.000 A 
ATOM     11  C   UNL     1       1.895   7.783  19.982  0.00  0.00    +0.000 A 
ATOM     12  C   UNL     1       1.219   8.963  20.361  0.00  0.00    +0.000 A 
BRANCH  10  13
ATOM     13  C   UNL     1       3.040   6.348  18.258  0.00  0.00    +0.000 C 
ATOM     14  F   UNL     1       3.689   5.729  19.280  0.00  0.00    +0.000 F 
ATOM     15  F   UNL     1       2.180   5.420  17.742  0.00  0.00    +0.000 F 
ATOM     16  F   UNL     1       3.974   6.562  17.292  0.00  0.00    +0.000 F 
ENDBRANCH  10  13
BRANCH  12  17
ATOM     17  N   UNL     1       0.740   9.001  21.741  0.00  0.00    +0.000 N 
ATOM     18  O   UNL     1       1.519   9.402  22.615  0.00  0.00    +0.000 OA
ATOM     19  O   UNL     1      -0.379   8.524  21.949  0.00  0.00    +0.000 OA
ENDBRANCH  12  17
ENDBRANCH   4   7
BRANCH   1  20
ATOM     20  S   UNL     1      -1.836  13.125  22.778  0.00  0.00    +0.000 S 
ATOM     21  O   UNL     1      -0.946  13.845  23.659  0.00  0.00    +0.000 OA
ATOM     22  O   UNL     1      -2.103  11.718  23.002  0.00  0.00    +0.000 OA
BRANCH  20  29
ATOM     23  C   UNL     1      -4.825  16.581  22.677  0.00  0.00    +0.000 C 
ATOM     24  C   UNL     1      -4.892  15.588  23.842  0.00  0.00    +0.000 C 
ATOM     25  C   UNL     1      -6.073  14.626  23.681  0.00  0.00    +0.000 C 
ATOM     26  C   UNL     1      -5.848  13.640  22.529  0.00  0.00    +0.000 C 
ATOM     27  C   UNL     1      -6.960  12.587  22.531  0.00  0.00    +0.000 C 
ATOM     28  C   UNL     1      -4.468  12.965  22.615  0.00  0.00    +0.000 C 
ATOM     29  N   UNL     1      -3.339  13.952  22.797  0.00  0.00    +0.000 NA
ATOM     30  C   UNL     1      -3.586  14.787  24.009  0.00  0.00    +0.000 C 
ENDBRANCH  20  29
ENDBRANCH   1  20
TORSDOF 5
ENDMDL
MODEL 8
REMARK VINA RESULT:      -6.8      5.395      9.479
REMARK  Name = 
REMARK  7 active torsions:
REMARK  status: ('A' for Active; 'I' for Inactive)
REMARK    1  A    between atoms: C_1  and  C_2
REMARK    2  A    between atoms: C_4  and  C_5
REMARK    3  A    between atoms: N_7  and  S_8
REMARK    4  A    between atoms: S_8  and  N_11
REMARK    5  A    between atoms: N_14  and  C_15
REMARK    6  A    between atoms: C_18  and  C_19
REMARK    7  A    between atoms: C_24  and  N_25
REMARK                            x       y       z     vdW  Elec       q    Type
REMARK                         _______ _______ _______ _____ _____    ______ ____
ROOT
ATOM      1  N   UNL     1      -0.808  13.465  19.723  0.00  0.00    +0.000 NA
ATOM      2  C   UNL     1       0.653  13.439  19.348  0.00  0.00    +0.000 C 
ATOM      3  C   UNL     1       1.373  12.087  19.649  0.00  0.00    +0.000 C 
ATOM      4  N   UNL     1       0.599  10.952  19.080  0.00  0.00    +0.000 N 
ATOM      5  C   UNL     1      -0.782  10.952  19.642  0.00  0.00    +0.000 C 
ATOM      6  C   UNL     1      -1.500  12.244  19.205  0.00  0.00    +0.000 C 
ENDROOT
BRANCH   4   7
ATOM      7  C   UNL     1       1.150   9.657  19.072  0.00  0.00    +0.000 A 
ATOM      8  C   UNL     1       1.677   9.076  17.906  0.00  0.00    +0.000 A 
ATOM      9  C   UNL     1       2.293   7.808  17.917  0.00  0.00    +0.000 A 
ATOM     10  C   UNL     1       2.399   7.061  19.097  0.00  0.00    +0.000 A 
ATOM     11  C   UNL     1       1.880   7.612  20.274  0.00  0.00    +0.000 A 
ATOM     12  C   UNL     1       1.267   8.884  20.249  0.00  0.00    +0.000 A 
BRANCH  10  13
ATOM     13  C   UNL     1       3.038   5.693  19.124  0.00  0.00    +0.000 C 
ATOM     14  F   UNL     1       3.333   5.199  17.892  0.00  0.00    +0.000 F 
ATOM     15  F   UNL     1       4.212   5.684  19.823  0.00  0.00    +0.000 F 
ATOM     16  F   UNL     1       2.245   4.764  19.723  0.00  0.00    +0.000 F 
ENDBRANCH  10  13
BRANCH  12  17
ATOM     17  N   UNL     1       0.694   9.332  21.515  0.00  0.00    +0.000 N 
ATOM     18  O   UNL     1       1.370  10.091  22.222  0.00  0.00    +0.000 OA
ATOM     19  O   UNL     1      -0.387   8.832  21.838  0.00  0.00    +0.000 OA
ENDBRANCH  12  17
ENDBRANCH   4   7
BRANCH   1  20
ATOM     20  S   UNL     1      -1.147  13.915  21.315  0.00  0.00    +0.000 S 
ATOM     21  O   UNL     1      -1.152  15.358  21.376  0.00  0.00    +0.000 OA
ATOM     22  O   UNL     1      -0.284  13.150  22.194  0.00  0.00    +0.000 OA
BRANCH  20  29
ATOM     23  C   UNL     1      -5.380  12.449  20.411  0.00  0.00    +0.000 C 
ATOM     24  C   UNL     1      -5.207  13.702  21.275  0.00  0.00    +0.000 C 
ATOM     25  C   UNL     1      -5.469  13.395  22.753  0.00  0.00    +0.000 C 
ATOM     26  C   UNL     1      -4.360  12.525  23.355  0.00  0.00    +0.000 C 
ATOM     27  C   UNL     1      -4.567  12.406  24.868  0.00  0.00    +0.000 C 
ATOM     28  C   UNL     1      -2.961  13.086  23.047  0.00  0.00    +0.000 C 
ATOM     29  N   UNL     1      -2.759  13.395  21.583  0.00  0.00    +0.000 NA
ATOM     30  C   UNL     1      -3.814  14.341  21.114  0.00  0.00    +0.000 C 
ENDBRANCH  20  29
ENDBRANCH   1  20
TORSDOF 5
ENDMDL
MODEL 9
REMARK VINA RESULT:      -6.7      4.463      7.621
REMARK  Name = 
REMARK  7 active torsions:
REMARK  status: ('A' for Active; 'I' for Inactive)
REMARK    1  A    between atoms: C_1  and  C_2
REMARK    2  A    between atoms: C_4  and  C_5
REMARK    3  A    between atoms: N_7  and  S_8
REMARK    4  A    between atoms: S_8  and  N_11
REMARK    5  A    between atoms: N_14  and  C_15
REMARK    6  A    between atoms: C_18  and  C_19
REMARK    7  A    between atoms: C_24  and  N_25
REMARK                            x       y       z     vdW  Elec       q    Type
REMARK                         _______ _______ _______ _____ _____    ______ ____
ROOT
ATOM      1  N   UNL     1       3.558   4.790  20.019  0.00  0.00    +0.000 NA
ATOM      2  C   UNL     1       3.977   3.390  19.640  0.00  0.00    +0.000 C 
ATOM      3  C   UNL     1       4.153   3.161  18.107  0.00  0.00    +0.000 C 
ATOM      4  N   UNL     1       5.028   4.215  17.525  0.00  0.00    +0.000 N 
ATOM      5  C   UNL     1       4.444   5.559  17.795  0.00  0.00    +0.000 C 
ATOM      6  C   UNL     1       4.415   5.797  19.317  0.00  0.00    +0.000 C 
ENDROOT
BRANCH   4   7
ATOM      7  C   UNL     1       5.473   4.105  16.195  0.00  0.00    +0.000 A 
ATOM      8  C   UNL     1       4.691   3.508  15.192  0.00  0.00    +0.000 A 
ATOM      9  C   UNL     1       5.110   3.464  13.845  0.00  0.00    +0.000 A 
ATOM     10  C   UNL     1       6.336   4.011  13.447  0.00  0.00    +0.000 A 
ATOM     11  C   UNL     1       7.139   4.609  14.425  0.00  0.00    +0.000 A 
ATOM     12  C   UNL     1       6.707   4.648  15.768  0.00  0.00    +0.000 A 
BRANCH  10  13
ATOM     13  C   UNL     1       6.810   3.956  12.014  0.00  0.00    +0.000 C 
ATOM     14  F   UNL     1       7.490   2.821  11.703  0.00  0.00    +0.000 F 
ATOM     15  F   UNL     1       5.776   4.031  11.125  0.00  0.00    +0.000 F 
ATOM     16  F   UNL     1       7.638   4.990  11.704  0.00  0.00    +0.000 F 
ENDBRANCH  10  13
BRANCH  12  17
ATOM     17  N   UNL     1       7.651   5.229  16.719  0.00  0.00    +0.000 N 
ATOM     18  O   UNL     1       7.816   6.456  16.697  0.00  0.00    +0.000 OA
ATOM     19  O   UNL     1       8.301   4.435  17.405  0.00  0.00    +0.000 OA
ENDBRANCH  12  17
ENDBRANCH   4   7
BRANCH   1  20
ATOM     20  S   UNL     1       1.895   5.079  20.027  0.00  0.00    +0.000 S 
ATOM     21  O   UNL     1       1.332   4.396  21.168  0.00  0.00    +0.000 OA
ATOM     22  O   UNL     1       1.384   4.818  18.696  0.00  0.00    +0.000 OA
BRANCH  20  29
ATOM     23  C   UNL     1       1.752   9.026  22.326  0.00  0.00    +0.000 C 
ATOM     24  C   UNL     1       0.576   8.667  21.412  0.00  0.00    +0.000 C 
ATOM     25  C   UNL     1       0.616   9.480  20.114  0.00  0.00    +0.000 C 
ATOM     26  C   UNL     1       1.774   9.045  19.209  0.00  0.00    +0.000 C 
ATOM     27  C   UNL     1       1.658   9.750  17.854  0.00  0.00    +0.000 C 
ATOM     28  C   UNL     1       1.810   7.519  19.019  0.00  0.00    +0.000 C 
ATOM     29  N   UNL     1       1.745   6.761  20.324  0.00  0.00    +0.000 NA
ATOM     30  C   UNL     1       0.524   7.162  21.082  0.00  0.00    +0.000 C 
ENDBRANCH  20  29
ENDBRANCH   1  20
TORSDOF 5
ENDMDL
