MODEL 1
REMARK VINA RESULT:      -7.7      0.000      0.000
REMARK  Name = 
REMARK  5 active torsions:
REMARK  status: ('A' for Active; 'I' for Inactive)
REMARK    1  A    between atoms: C_1  and  N_2
REMARK    2  A    between atoms: N_2  and  C_3
REMARK    3  A    between atoms: N_2  and  C_11
REMARK    4  A    between atoms: C_3  and  C_4
REMARK    5  A    between atoms: C_4  and  C_5
REMARK                            x       y       z     vdW  Elec       q    Type
REMARK                         _______ _______ _______ _____ _____    ______ ____
ROOT
ATOM      1  C   UNL     1       3.023   5.849  17.960  0.00  0.00    +0.000 C 
ATOM      2  N   UNL     1       3.570   4.762  17.142  0.00  0.00    +0.000 N 
ENDROOT
BRANCH   2   3
ATOM      3  C   UNL     1       4.957   4.683  16.948  0.00  0.00    +0.000 A 
ATOM      4  N   UNL     1       5.510   4.464  15.694  0.00  0.00    +0.000 N 
ATOM      5  C   UNL     1       6.865   4.401  15.501  0.00  0.00    +0.000 A 
ATOM      6  N   UNL     1       7.770   4.559  16.414  0.00  0.00    +0.000 NA
ATOM      7  C   UNL     1       7.280   4.806  17.665  0.00  0.00    +0.000 A 
ATOM      8  N   UNL     1       7.981   5.034  18.741  0.00  0.00    +0.000 NA
ATOM      9  N   UNL     1       7.034   5.236  19.842  0.00  0.00    +0.000 NA
ATOM     10  C   UNL     1       5.831   5.124  19.353  0.00  0.00    +0.000 A 
ATOM     11  C   UNL     1       5.846   4.836  17.933  0.00  0.00    +0.000 A 
ATOM     12  H   UNL     1       4.868   4.344  14.924  0.00  0.00    +0.000 HD
ENDBRANCH   2   3
BRANCH   2  13
ATOM     13  C   UNL     1       2.719   3.579  16.840  0.00  0.00    +0.000 C 
BRANCH  13  14
ATOM     14  C   UNL     1       2.976   2.348  17.720  0.00  0.00    +0.000 C 
BRANCH  14  15
ATOM     15  C   UNL     1       2.539   2.522  19.157  0.00  0.00    +0.000 A 
ATOM     16  C   UNL     1       1.198   2.789  19.432  0.00  0.00    +0.000 A 
ATOM     17  C   UNL     1       0.810   2.981  20.755  0.00  0.00    +0.000 A 
ATOM     18  C   UNL     1       1.760   2.899  21.762  0.00  0.00    +0.000 A 
ATOM     19  C   UNL     1       3.069   2.628  21.405  0.00  0.00    +0.000 A 
ATOM     20  N   UNL     1       3.479   2.447  20.131  0.00  0.00    +0.000 NA
ENDBRANCH  14  15
ENDBRANCH  13  14
ENDBRANCH   2  13
TORSDOF 4
ENDMDL
MODEL 2
REMARK VINA RESULT:      -7.5      0.652      1.099
REMARK  Name = 
REMARK  5 active torsions:
REMARK  status: ('A' for Active; 'I' for Inactive)
REMARK    1  A    between atoms: C_1  and  N_2
REMARK    2  A    between atoms: N_2  and  C_3
REMARK    3  A    between atoms: N_2  and  C_11
REMARK    4  A    between atoms: C_3  and  C_4
REMARK    5  A    between atoms: C_4  and  C_5
REMARK                            x       y       z     vdW  Elec       q    Type
REMARK                         _______ _______ _______ _____ _____    ______ ____
ROOT
ATOM      1  C   UNL     1       3.072   5.863  17.912  0.00  0.00    +0.000 C 
ATOM      2  N   UNL     1       3.640   4.760  17.129  0.00  0.00    +0.000 N 
ENDROOT
BRANCH   2   3
ATOM      3  C   UNL     1       5.029   4.692  16.949  0.00  0.00    +0.000 A 
ATOM      4  N   UNL     1       5.597   4.482  15.700  0.00  0.00    +0.000 N 
ATOM      5  C   UNL     1       6.955   4.429  15.522  0.00  0.00    +0.000 A 
ATOM      6  N   UNL     1       7.849   4.591  16.445  0.00  0.00    +0.000 NA
ATOM      7  C   UNL     1       7.343   4.830  17.691  0.00  0.00    +0.000 A 
ATOM      8  N   UNL     1       8.031   5.060  18.775  0.00  0.00    +0.000 NA
ATOM      9  N   UNL     1       7.071   5.252  19.867  0.00  0.00    +0.000 NA
ATOM     10  C   UNL     1       5.875   5.133  19.364  0.00  0.00    +0.000 A 
ATOM     11  C   UNL     1       5.906   4.848  17.944  0.00  0.00    +0.000 A 
ATOM     12  H   UNL     1       4.965   4.359  14.924  0.00  0.00    +0.000 HD
ENDBRANCH   2   3
BRANCH   2  13
ATOM     13  C   UNL     1       2.805   3.560  16.851  0.00  0.00    +0.000 C 
BRANCH  13  14
ATOM     14  C   UNL     1       3.031   2.375  17.799  0.00  0.00    +0.000 C 
BRANCH  14  15
ATOM     15  C   UNL     1       2.498   2.599  19.196  0.00  0.00    +0.000 A 
ATOM     16  C   UNL     1       3.335   2.372  20.288  0.00  0.00    +0.000 A 
ATOM     17  C   UNL     1       2.827   2.549  21.572  0.00  0.00    +0.000 A 
ATOM     18  C   UNL     1       1.508   2.947  21.733  0.00  0.00    +0.000 A 
ATOM     19  C   UNL     1       0.745   3.153  20.598  0.00  0.00    +0.000 A 
ATOM     20  N   UNL     1       1.205   2.980  19.340  0.00  0.00    +0.000 NA
ENDBRANCH  14  15
ENDBRANCH  13  14
ENDBRANCH   2  13
TORSDOF 4
ENDMDL
MODEL 3
REMARK VINA RESULT:      -7.2      0.939      2.185
REMARK  Name = 
REMARK  5 active torsions:
REMARK  status: ('A' for Active; 'I' for Inactive)
REMARK    1  A    between atoms: C_1  and  N_2
REMARK    2  A    between atoms: N_2  and  C_3
REMARK    3  A    between atoms: N_2  and  C_11
REMARK    4  A    between atoms: C_3  and  C_4
REMARK    5  A    between atoms: C_4  and  C_5
REMARK                            x       y       z     vdW  Elec       q    Type
REMARK                         _______ _______ _______ _____ _____    ______ ____
ROOT
ATOM      1  C   UNL     1       2.525   6.295  18.098  0.00  0.00    +0.000 C 
ATOM      2  N   UNL     1       3.329   5.196  17.553  0.00  0.00    +0.000 N 
ENDROOT
BRANCH   2   3
ATOM      3  C   UNL     1       4.703   5.149  17.831  0.00  0.00    +0.000 A 
ATOM      4  N   UNL     1       5.196   5.309  19.119  0.00  0.00    +0.000 N 
ATOM      5  C   UNL     1       6.537   5.249  19.393  0.00  0.00    +0.000 A 
ATOM      6  N   UNL     1       7.479   5.017  18.535  0.00  0.00    +0.000 NA
ATOM      7  C   UNL     1       7.045   4.822  17.253  0.00  0.00    +0.000 A 
ATOM      8  N   UNL     1       7.787   4.538  16.220  0.00  0.00    +0.000 NA
ATOM      9  N   UNL     1       6.894   4.428  15.061  0.00  0.00    +0.000 NA
ATOM     10  C   UNL     1       5.679   4.645  15.478  0.00  0.00    +0.000 A 
ATOM     11  C   UNL     1       5.633   4.923  16.900  0.00  0.00    +0.000 A 
ATOM     12  H   UNL     1       4.522   5.482  19.850  0.00  0.00    +0.000 HD
ENDBRANCH   2   3
BRANCH   2  13
ATOM     13  C   UNL     1       2.644   3.979  17.037  0.00  0.00    +0.000 C 
BRANCH  13  14
ATOM     14  C   UNL     1       1.468   3.482  17.889  0.00  0.00    +0.000 C 
BRANCH  14  15
ATOM     15  C   UNL     1       1.855   3.096  19.299  0.00  0.00    +0.000 A 
ATOM     16  C   UNL     1       0.913   3.220  20.320  0.00  0.00    +0.000 A 
ATOM     17  C   UNL     1       1.286   2.894  21.621  0.00  0.00    +0.000 A 
ATOM     18  C   UNL     1       2.578   2.453  21.868  0.00  0.00    +0.000 A 
ATOM     19  C   UNL     1       3.451   2.357  20.799  0.00  0.00    +0.000 A 
ATOM     20  N   UNL     1       3.123   2.675  19.528  0.00  0.00    +0.000 NA
ENDBRANCH  14  15
ENDBRANCH  13  14
ENDBRANCH   2  13
TORSDOF 4
ENDMDL
MODEL 4
REMARK VINA RESULT:      -7.2      2.044      6.188
REMARK  Name = 
REMARK  5 active torsions:
REMARK  status: ('A' for Active; 'I' for Inactive)
REMARK    1  A    between atoms: C_1  and  N_2
REMARK    2  A    between atoms: N_2  and  C_3
REMARK    3  A    between atoms: N_2  and  C_11
REMARK    4  A    between atoms: C_3  and  C_4
REMARK    5  A    between atoms: C_4  and  C_5
REMARK                            x       y       z     vdW  Elec       q    Type
REMARK                         _______ _______ _______ _____ _____    ______ ____
ROOT
ATOM      1  C   UNL     1       4.426   6.233  17.208  0.00  0.00    +0.000 C 
ATOM      2  N   UNL     1       4.951   4.935  17.645  0.00  0.00    +0.000 N 
ENDROOT
BRANCH   2   3
ATOM      3  C   UNL     1       4.066   3.974  18.155  0.00  0.00    +0.000 A 
ATOM      4  N   UNL     1       4.074   2.660  17.709  0.00  0.00    +0.000 N 
ATOM      5  C   UNL     1       3.218   1.718  18.218  0.00  0.00    +0.000 A 
ATOM      6  N   UNL     1       2.349   1.909  19.158  0.00  0.00    +0.000 NA
ATOM      7  C   UNL     1       2.318   3.182  19.654  0.00  0.00    +0.000 A 
ATOM      8  N   UNL     1       1.562   3.618  20.622  0.00  0.00    +0.000 NA
ATOM      9  N   UNL     1       1.866   5.042  20.804  0.00  0.00    +0.000 NA
ATOM     10  C   UNL     1       2.788   5.361  19.940  0.00  0.00    +0.000 A 
ATOM     11  C   UNL     1       3.174   4.234  19.115  0.00  0.00    +0.000 A 
ATOM     12  H   UNL     1       4.734   2.426  16.983  0.00  0.00    +0.000 HD
ENDBRANCH   2   3
BRANCH   2  13
ATOM     13  C   UNL     1       6.315   4.520  17.217  0.00  0.00    +0.000 C 
BRANCH  13  14
ATOM     14  C   UNL     1       7.006   5.469  16.229  0.00  0.00    +0.000 C 
BRANCH  14  15
ATOM     15  C   UNL     1       6.960   4.998  14.794  0.00  0.00    +0.000 A 
ATOM     16  C   UNL     1       6.032   4.023  14.427  0.00  0.00    +0.000 A 
ATOM     17  C   UNL     1       6.019   3.570  13.111  0.00  0.00    +0.000 A 
ATOM     18  C   UNL     1       6.922   4.099  12.200  0.00  0.00    +0.000 A 
ATOM     19  C   UNL     1       7.808   5.063  12.643  0.00  0.00    +0.000 A 
ATOM     20  N   UNL     1       7.853   5.516  13.915  0.00  0.00    +0.000 NA
ENDBRANCH  14  15
ENDBRANCH  13  14
ENDBRANCH   2  13
TORSDOF 4
ENDMDL
MODEL 5
REMARK VINA RESULT:      -7.1      2.219      6.515
REMARK  Name = 
REMARK  5 active torsions:
REMARK  status: ('A' for Active; 'I' for Inactive)
REMARK    1  A    between atoms: C_1  and  N_2
REMARK    2  A    between atoms: N_2  and  C_3
REMARK    3  A    between atoms: N_2  and  C_11
REMARK    4  A    between atoms: C_3  and  C_4
REMARK    5  A    between atoms: C_4  and  C_5
REMARK                            x       y       z     vdW  Elec       q    Type
REMARK                         _______ _______ _______ _____ _____    ______ ____
ROOT
ATOM      1  C   UNL     1       6.367   5.316  19.051  0.00  0.00    +0.000 C 
ATOM      2  N   UNL     1       5.181   5.031  18.236  0.00  0.00    +0.000 N 
ENDROOT
BRANCH   2   3
ATOM      3  C   UNL     1       3.935   4.895  18.866  0.00  0.00    +0.000 A 
ATOM      4  N   UNL     1       3.497   5.797  19.826  0.00  0.00    +0.000 N 
ATOM      5  C   UNL     1       2.273   5.673  20.431  0.00  0.00    +0.000 A 
ATOM      6  N   UNL     1       1.391   4.759  20.179  0.00  0.00    +0.000 NA
ATOM      7  C   UNL     1       1.760   3.860  19.219  0.00  0.00    +0.000 A 
ATOM      8  N   UNL     1       1.039   2.874  18.763  0.00  0.00    +0.000 NA
ATOM      9  N   UNL     1       1.844   2.177  17.754  0.00  0.00    +0.000 NA
ATOM     10  C   UNL     1       2.987   2.796  17.666  0.00  0.00    +0.000 A 
ATOM     11  C   UNL     1       3.070   3.919  18.579  0.00  0.00    +0.000 A 
ATOM     12  H   UNL     1       4.124   6.548  20.069  0.00  0.00    +0.000 HD
ENDBRANCH   2   3
BRANCH   2  13
ATOM     13  C   UNL     1       5.239   5.247  16.765  0.00  0.00    +0.000 C 
BRANCH  13  14
ATOM     14  C   UNL     1       6.652   5.369  16.179  0.00  0.00    +0.000 C 
BRANCH  14  15
ATOM     15  C   UNL     1       6.752   4.943  14.732  0.00  0.00    +0.000 A 
ATOM     16  C   UNL     1       5.871   3.978  14.244  0.00  0.00    +0.000 A 
ATOM     17  C   UNL     1       5.992   3.566  12.919  0.00  0.00    +0.000 A 
ATOM     18  C   UNL     1       6.978   4.127  12.120  0.00  0.00    +0.000 A 
ATOM     19  C   UNL     1       7.810   5.079  12.680  0.00  0.00    +0.000 A 
ATOM     20  N   UNL     1       7.725   5.492  13.964  0.00  0.00    +0.000 NA
ENDBRANCH  14  15
ENDBRANCH  13  14
ENDBRANCH   2  13
TORSDOF 4
ENDMDL
MODEL 6
REMARK VINA RESULT:      -7.1      2.023      6.367
REMARK  Name = 
REMARK  5 active torsions:
REMARK  status: ('A' for Active; 'I' for Inactive)
REMARK    1  A    between atoms: C_1  and  N_2
REMARK    2  A    between atoms: N_2  and  C_3
REMARK    3  A    between atoms: N_2  and  C_11
REMARK    4  A    between atoms: C_3  and  C_4
REMARK    5  A    between atoms: C_4  and  C_5
REMARK                            x       y       z     vdW  Elec       q    Type
REMARK                         _______ _______ _______ _____ _____    ______ ____
ROOT
ATOM      1  C   UNL     1       4.876   6.282  17.828  0.00  0.00    +0.000 C 
ATOM      2  N   UNL     1       5.420   4.926  17.960  0.00  0.00    +0.000 N 
ENDROOT
BRANCH   2   3
ATOM      3  C   UNL     1       4.637   3.930  18.563  0.00  0.00    +0.000 A 
ATOM      4  N   UNL     1       5.145   3.097  19.549  0.00  0.00    +0.000 N 
ATOM      5  C   UNL     1       4.376   2.133  20.149  0.00  0.00    +0.000 A 
ATOM      6  N   UNL     1       3.125   1.901  19.909  0.00  0.00    +0.000 NA
ATOM      7  C   UNL     1       2.566   2.715  18.964  0.00  0.00    +0.000 A 
ATOM      8  N   UNL     1       1.323   2.707  18.572  0.00  0.00    +0.000 NA
ATOM      9  N   UNL     1       1.184   3.743  17.543  0.00  0.00    +0.000 NA
ATOM     10  C   UNL     1       2.349   4.306  17.393  0.00  0.00    +0.000 A 
ATOM     11  C   UNL     1       3.352   3.724  18.262  0.00  0.00    +0.000 A 
ATOM     12  H   UNL     1       6.113   3.223  19.803  0.00  0.00    +0.000 HD
ENDBRANCH   2   3
BRANCH   2  13
ATOM     13  C   UNL     1       6.607   4.535  17.151  0.00  0.00    +0.000 C 
BRANCH  13  14
ATOM     14  C   UNL     1       7.030   5.551  16.082  0.00  0.00    +0.000 C 
BRANCH  14  15
ATOM     15  C   UNL     1       6.956   5.018  14.669  0.00  0.00    +0.000 A 
ATOM     16  C   UNL     1       6.054   3.996  14.374  0.00  0.00    +0.000 A 
ATOM     17  C   UNL     1       6.016   3.487  13.079  0.00  0.00    +0.000 A 
ATOM     18  C   UNL     1       6.869   4.009  12.118  0.00  0.00    +0.000 A 
ATOM     19  C   UNL     1       7.732   5.022  12.491  0.00  0.00    +0.000 A 
ATOM     20  N   UNL     1       7.801   5.530  13.741  0.00  0.00    +0.000 NA
ENDBRANCH  14  15
ENDBRANCH  13  14
ENDBRANCH   2  13
TORSDOF 4
ENDMDL
MODEL 7
REMARK VINA RESULT:      -7.1      2.321      4.344
REMARK  Name = 
REMARK  5 active torsions:
REMARK  status: ('A' for Active; 'I' for Inactive)
REMARK    1  A    between atoms: C_1  and  N_2
REMARK    2  A    between atoms: N_2  and  C_3
REMARK    3  A    between atoms: N_2  and  C_11
REMARK    4  A    between atoms: C_3  and  C_4
REMARK    5  A    between atoms: C_4  and  C_5
REMARK                            x       y       z     vdW  Elec       q    Type
REMARK                         _______ _______ _______ _____ _____    ______ ____
ROOT
ATOM      1  C   UNL     1       3.855   2.546  18.531  0.00  0.00    +0.000 C 
ATOM      2  N   UNL     1       4.010   4.002  18.622  0.00  0.00    +0.000 N 
ENDROOT
BRANCH   2   3
ATOM      3  C   UNL     1       5.247   4.580  18.299  0.00  0.00    +0.000 A 
ATOM      4  N   UNL     1       6.154   4.963  19.278  0.00  0.00    +0.000 N 
ATOM      5  C   UNL     1       7.368   5.515  18.963  0.00  0.00    +0.000 A 
ATOM      6  N   UNL     1       7.825   5.715  17.768  0.00  0.00    +0.000 NA
ATOM      7  C   UNL     1       6.982   5.327  16.764  0.00  0.00    +0.000 A 
ATOM      8  N   UNL     1       7.222   5.390  15.484  0.00  0.00    +0.000 NA
ATOM      9  N   UNL     1       6.034   4.874  14.794  0.00  0.00    +0.000 NA
ATOM     10  C   UNL     1       5.168   4.530  15.704  0.00  0.00    +0.000 A 
ATOM     11  C   UNL     1       5.659   4.780  17.045  0.00  0.00    +0.000 A 
ATOM     12  H   UNL     1       5.877   4.828  20.238  0.00  0.00    +0.000 HD
ENDBRANCH   2   3
BRANCH   2  13
ATOM     13  C   UNL     1       2.797   4.861  18.694  0.00  0.00    +0.000 C 
BRANCH  13  14
ATOM     14  C   UNL     1       2.799   5.899  19.824  0.00  0.00    +0.000 C 
BRANCH  14  15
ATOM     15  C   UNL     1       2.250   7.247  19.416  0.00  0.00    +0.000 A 
ATOM     16  C   UNL     1       2.459   7.702  18.114  0.00  0.00    +0.000 A 
ATOM     17  C   UNL     1       1.980   8.959  17.756  0.00  0.00    +0.000 A 
ATOM     18  C   UNL     1       1.306   9.723  18.697  0.00  0.00    +0.000 A 
ATOM     19  C   UNL     1       1.138   9.199  19.966  0.00  0.00    +0.000 A 
ATOM     20  N   UNL     1       1.601   7.988  20.347  0.00  0.00    +0.000 NA
ENDBRANCH  14  15
ENDBRANCH  13  14
ENDBRANCH   2  13
TORSDOF 4
ENDMDL
MODEL 8
REMARK VINA RESULT:      -7.1      2.217      6.289
REMARK  Name = 
REMARK  5 active torsions:
REMARK  status: ('A' for Active; 'I' for Inactive)
REMARK    1  A    between atoms: C_1  and  N_2
REMARK    2  A    between atoms: N_2  and  C_3
REMARK    3  A    between atoms: N_2  and  C_11
REMARK    4  A    between atoms: C_3  and  C_4
REMARK    5  A    between atoms: C_4  and  C_5
REMARK                            x       y       z     vdW  Elec       q    Type
REMARK                         _______ _______ _______ _____ _____    ______ ____
ROOT
ATOM      1  C   UNL     1       6.829   5.646  18.547  0.00  0.00    +0.000 C 
ATOM      2  N   UNL     1       5.743   4.814  18.020  0.00  0.00    +0.000 N 
ENDROOT
BRANCH   2   3
ATOM      3  C   UNL     1       4.863   4.189  18.915  0.00  0.00    +0.000 A 
ATOM      4  N   UNL     1       5.087   2.902  19.385  0.00  0.00    +0.000 N 
ATOM      5  C   UNL     1       4.235   2.297  20.272  0.00  0.00    +0.000 A 
ATOM      6  N   UNL     1       3.173   2.828  20.788  0.00  0.00    +0.000 NA
ATOM      7  C   UNL     1       2.921   4.107  20.381  0.00  0.00    +0.000 A 
ATOM      8  N   UNL     1       1.940   4.868  20.780  0.00  0.00    +0.000 NA
ATOM      9  N   UNL     1       2.065   6.146  20.071  0.00  0.00    +0.000 NA
ATOM     10  C   UNL     1       3.114   6.069  19.303  0.00  0.00    +0.000 A 
ATOM     11  C   UNL     1       3.769   4.780  19.403  0.00  0.00    +0.000 A 
ATOM     12  H   UNL     1       5.904   2.423  19.039  0.00  0.00    +0.000 HD
ENDBRANCH   2   3
BRANCH   2  13
ATOM     13  C   UNL     1       5.367   4.931  16.584  0.00  0.00    +0.000 C 
BRANCH  13  14
ATOM     14  C   UNL     1       5.812   3.761  15.697  0.00  0.00    +0.000 C 
BRANCH  14  15
ATOM     15  C   UNL     1       6.438   4.189  14.389  0.00  0.00    +0.000 A 
ATOM     16  C   UNL     1       6.043   3.561  13.208  0.00  0.00    +0.000 A 
ATOM     17  C   UNL     1       6.648   3.938  12.012  0.00  0.00    +0.000 A 
ATOM     18  C   UNL     1       7.622   4.926  12.024  0.00  0.00    +0.000 A 
ATOM     19  C   UNL     1       7.956   5.500  13.237  0.00  0.00    +0.000 A 
ATOM     20  N   UNL     1       7.395   5.150  14.415  0.00  0.00    +0.000 NA
ENDBRANCH  14  15
ENDBRANCH  13  14
ENDBRANCH   2  13
TORSDOF 4
ENDMDL
MODEL 9
REMARK VINA RESULT:      -6.9      1.705      3.304
REMARK  Name = 
REMARK  5 active torsions:
REMARK  status: ('A' for Active; 'I' for Inactive)
REMARK    1  A    between atoms: C_1  and  N_2
REMARK    2  A    between atoms: N_2  and  C_3
REMARK    3  A    between atoms: N_2  and  C_11
REMARK    4  A    between atoms: C_3  and  C_4
REMARK    5  A    between atoms: C_4  and  C_5
REMARK                            x       y       z     vdW  Elec       q    Type
REMARK                         _______ _______ _______ _____ _____    ______ ____
ROOT
ATOM      1  C   UNL     1       4.499   2.482  19.742  0.00  0.00    +0.000 C 
ATOM      2  N   UNL     1       4.408   3.382  18.587  0.00  0.00    +0.000 N 
ENDROOT
BRANCH   2   3
ATOM      3  C   UNL     1       5.488   4.227  18.291  0.00  0.00    +0.000 A 
ATOM      4  N   UNL     1       6.176   4.911  19.282  0.00  0.00    +0.000 N 
ATOM      5  C   UNL     1       7.240   5.726  18.995  0.00  0.00    +0.000 A 
ATOM      6  N   UNL     1       7.742   5.934  17.819  0.00  0.00    +0.000 NA
ATOM      7  C   UNL     1       7.118   5.260  16.807  0.00  0.00    +0.000 A 
ATOM      8  N   UNL     1       7.453   5.273  15.547  0.00  0.00    +0.000 NA
ATOM      9  N   UNL     1       6.500   4.414  14.836  0.00  0.00    +0.000 NA
ATOM     10  C   UNL     1       5.665   3.939  15.716  0.00  0.00    +0.000 A 
ATOM     11  C   UNL     1       5.952   4.419  17.053  0.00  0.00    +0.000 A 
ATOM     12  H   UNL     1       5.854   4.792  20.231  0.00  0.00    +0.000 HD
ENDBRANCH   2   3
BRANCH   2  13
ATOM     13  C   UNL     1       3.363   3.139  17.555  0.00  0.00    +0.000 C 
BRANCH  13  14
ATOM     14  C   UNL     1       1.985   3.737  17.869  0.00  0.00    +0.000 C 
BRANCH  14  15
ATOM     15  C   UNL     1       2.043   5.024  18.661  0.00  0.00    +0.000 A 
ATOM     16  C   UNL     1       1.666   5.014  20.003  0.00  0.00    +0.000 A 
ATOM     17  C   UNL     1       1.689   6.210  20.717  0.00  0.00    +0.000 A 
ATOM     18  C   UNL     1       2.089   7.374  20.078  0.00  0.00    +0.000 A 
ATOM     19  C   UNL     1       2.450   7.299  18.745  0.00  0.00    +0.000 A 
ATOM     20  N   UNL     1       2.427   6.157  18.023  0.00  0.00    +0.000 NA
ENDBRANCH  14  15
ENDBRANCH  13  14
ENDBRANCH   2  13
TORSDOF 4
ENDMDL
