MODEL 1
REMARK VINA RESULT:      -7.8      0.000      0.000
REMARK  Name = 
REMARK  4 active torsions:
REMARK  status: ('A' for Active; 'I' for Inactive)
REMARK    1  A    between atoms: O_1  and  C_2
REMARK    2  A    between atoms: C_2  and  C_3
REMARK    3  A    between atoms: C_4  and  C_5
REMARK    4  A    between atoms: C_7  and  N_8
REMARK                            x       y       z     vdW  Elec       q    Type
REMARK                         _______ _______ _______ _____ _____    ______ ____
ROOT
ATOM      1  C   UNL     1       2.513   7.799  18.264  0.00  0.00    +0.000 A 
ATOM      2  C   UNL     1       3.700   7.485  17.583  0.00  0.00    +0.000 A 
ATOM      3  C   UNL     1       4.363   6.253  17.804  0.00  0.00    +0.000 A 
ATOM      4  C   UNL     1       3.798   5.359  18.780  0.00  0.00    +0.000 A 
ATOM      5  C   UNL     1       4.403   4.146  19.192  0.00  0.00    +0.000 A 
ATOM      6  C   UNL     1       3.787   3.302  20.119  0.00  0.00    +0.000 A 
ATOM      7 CL   UNL     1       4.574   1.801  20.577  0.00  0.00    +0.000 Cl
ATOM      8  C   UNL     1       2.560   3.654  20.677  0.00  0.00    +0.000 A 
ATOM      9  F   UNL     1       1.957   2.836  21.574  0.00  0.00    +0.000 F 
ATOM     10  C   UNL     1       1.963   4.863  20.332  0.00  0.00    +0.000 A 
ATOM     11  C   UNL     1       2.574   5.716  19.403  0.00  0.00    +0.000 A 
ATOM     12  N   UNL     1       1.987   6.901  19.130  0.00  0.00    +0.000 NA
ENDROOT
BRANCH   3  13
ATOM     13  N   UNL     1       5.565   5.933  17.054  0.00  0.00    +0.000 N 
ATOM     14  C   UNL     1       5.531   5.360  15.713  0.00  0.00    +0.000 C 
ATOM     15  C   UNL     1       6.360   4.064  15.694  0.00  0.00    +0.000 C 
ATOM     16  O   UNL     1       7.681   4.314  16.142  0.00  0.00    +0.000 OA
ATOM     17  C   UNL     1       7.646   4.735  17.493  0.00  0.00    +0.000 C 
ATOM     18  C   UNL     1       6.906   6.066  17.616  0.00  0.00    +0.000 C 
ENDBRANCH   3  13
BRANCH   1  20
ATOM     19  C   UNL     1       1.050   9.659  18.997  0.00  0.00    +0.000 C 
ATOM     20  C   UNL     1       1.821   9.096  18.047  0.00  0.00    +0.000 C 
BRANCH  19  21
ATOM     21  C   UNL     1       0.360  10.973  18.774  0.00  0.00    +0.000 C 
BRANCH  21  22
ATOM     22  O   UNL     1      -0.597  10.831  17.759  0.00  0.00    +0.000 OA
ATOM     23  H   UNL     1      -1.172  11.639  17.801  0.00  0.00    +0.000 HD
ENDBRANCH  21  22
ENDBRANCH  19  21
ENDBRANCH   1  20
TORSDOF 4
ENDMDL
MODEL 2
REMARK VINA RESULT:      -7.7      4.585      6.555
REMARK  Name = 
REMARK  4 active torsions:
REMARK  status: ('A' for Active; 'I' for Inactive)
REMARK    1  A    between atoms: O_1  and  C_2
REMARK    2  A    between atoms: C_2  and  C_3
REMARK    3  A    between atoms: C_4  and  C_5
REMARK    4  A    between atoms: C_7  and  N_8
REMARK                            x       y       z     vdW  Elec       q    Type
REMARK                         _______ _______ _______ _____ _____    ______ ____
ROOT
ATOM      1  C   UNL     1       7.107   6.388  17.257  0.00  0.00    +0.000 A 
ATOM      2  C   UNL     1       5.927   5.754  17.678  0.00  0.00    +0.000 A 
ATOM      3  C   UNL     1       5.218   4.884  16.812  0.00  0.00    +0.000 A 
ATOM      4  C   UNL     1       5.730   4.710  15.479  0.00  0.00    +0.000 A 
ATOM      5  C   UNL     1       5.075   3.965  14.467  0.00  0.00    +0.000 A 
ATOM      6  C   UNL     1       5.641   3.803  13.201  0.00  0.00    +0.000 A 
ATOM      7 CL   UNL     1       4.793   2.852  11.992  0.00  0.00    +0.000 Cl
ATOM      8  C   UNL     1       6.865   4.396  12.900  0.00  0.00    +0.000 A 
ATOM      9  F   UNL     1       7.419   4.237  11.673  0.00  0.00    +0.000 F 
ATOM     10  C   UNL     1       7.510   5.177  13.855  0.00  0.00    +0.000 A 
ATOM     11  C   UNL     1       6.949   5.345  15.129  0.00  0.00    +0.000 A 
ATOM     12  N   UNL     1       7.582   6.147  16.012  0.00  0.00    +0.000 NA
ENDROOT
BRANCH   3  13
ATOM     13  N   UNL     1       4.025   4.207  17.287  0.00  0.00    +0.000 N 
ATOM     14  C   UNL     1       2.786   4.912  17.597  0.00  0.00    +0.000 C 
ATOM     15  C   UNL     1       2.356   4.575  19.035  0.00  0.00    +0.000 C 
ATOM     16  O   UNL     1       2.236   3.172  19.201  0.00  0.00    +0.000 OA
ATOM     17  C   UNL     1       3.504   2.569  19.021  0.00  0.00    +0.000 C 
ATOM     18  C   UNL     1       3.994   2.778  17.589  0.00  0.00    +0.000 C 
ENDBRANCH   3  13
BRANCH   1  20
ATOM     19  C   UNL     1       8.088   8.593  17.815  0.00  0.00    +0.000 C 
ATOM     20  C   UNL     1       7.847   7.313  18.155  0.00  0.00    +0.000 C 
BRANCH  19  21
ATOM     21  C   UNL     1       8.829   9.524  18.730  0.00  0.00    +0.000 C 
BRANCH  21  22
ATOM     22  O   UNL     1       8.910  10.793  18.138  0.00  0.00    +0.000 OA
ATOM     23  H   UNL     1       8.012  10.983  17.759  0.00  0.00    +0.000 HD
ENDBRANCH  21  22
ENDBRANCH  19  21
ENDBRANCH   1  20
TORSDOF 4
ENDMDL
MODEL 3
REMARK VINA RESULT:      -7.7      1.155      1.155
REMARK  Name = 
REMARK  4 active torsions:
REMARK  status: ('A' for Active; 'I' for Inactive)
REMARK    1  A    between atoms: O_1  and  C_2
REMARK    2  A    between atoms: C_2  and  C_3
REMARK    3  A    between atoms: C_4  and  C_5
REMARK    4  A    between atoms: C_7  and  N_8
REMARK                            x       y       z     vdW  Elec       q    Type
REMARK                         _______ _______ _______ _____ _____    ______ ____
ROOT
ATOM      1  C   UNL     1       2.525   7.637  18.069  0.00  0.00    +0.000 A 
ATOM      2  C   UNL     1       3.799   7.427  17.517  0.00  0.00    +0.000 A 
ATOM      3  C   UNL     1       4.340   6.121  17.411  0.00  0.00    +0.000 A 
ATOM      4  C   UNL     1       3.555   5.031  17.928  0.00  0.00    +0.000 A 
ATOM      5  C   UNL     1       4.005   3.690  17.997  0.00  0.00    +0.000 A 
ATOM      6  C   UNL     1       3.183   2.669  18.478  0.00  0.00    +0.000 A 
ATOM      7 CL   UNL     1       3.787   1.021  18.523  0.00  0.00    +0.000 Cl
ATOM      8  C   UNL     1       1.895   2.960  18.924  0.00  0.00    +0.000 A 
ATOM      9  F   UNL     1       1.091   1.971  19.387  0.00  0.00    +0.000 F 
ATOM     10  C   UNL     1       1.440   4.276  18.917  0.00  0.00    +0.000 A 
ATOM     11  C   UNL     1       2.259   5.306  18.436  0.00  0.00    +0.000 A 
ATOM     12  N   UNL     1       1.800   6.575  18.489  0.00  0.00    +0.000 NA
ENDROOT
BRANCH   3  13
ATOM     13  N   UNL     1       5.640   5.925  16.795  0.00  0.00    +0.000 N 
ATOM     14  C   UNL     1       5.805   5.613  15.380  0.00  0.00    +0.000 C 
ATOM     15  C   UNL     1       6.640   4.328  15.237  0.00  0.00    +0.000 C 
ATOM     16  O   UNL     1       7.880   4.465  15.909  0.00  0.00    +0.000 OA
ATOM     17  C   UNL     1       7.647   4.628  17.296  0.00  0.00    +0.000 C 
ATOM     18  C   UNL     1       6.885   5.926  17.559  0.00  0.00    +0.000 C 
ENDBRANCH   3  13
BRANCH   1  20
ATOM     19  C   UNL     1       1.166   9.355  19.227  0.00  0.00    +0.000 C 
ATOM     20  C   UNL     1       1.958   9.006  18.196  0.00  0.00    +0.000 C 
BRANCH  19  21
ATOM     21  C   UNL     1       0.603  10.740  19.353  0.00  0.00    +0.000 C 
BRANCH  21  22
ATOM     22  O   UNL     1       0.403  11.280  18.074  0.00  0.00    +0.000 OA
ATOM     23  H   UNL     1       0.610  12.249  18.144  0.00  0.00    +0.000 HD
ENDBRANCH  21  22
ENDBRANCH  19  21
ENDBRANCH   1  20
TORSDOF 4
ENDMDL
MODEL 4
REMARK VINA RESULT:      -7.5      3.604      6.375
REMARK  Name = 
REMARK  4 active torsions:
REMARK  status: ('A' for Active; 'I' for Inactive)
REMARK    1  A    between atoms: O_1  and  C_2
REMARK    2  A    between atoms: C_2  and  C_3
REMARK    3  A    between atoms: C_4  and  C_5
REMARK    4  A    between atoms: C_7  and  N_8
REMARK                            x       y       z     vdW  Elec       q    Type
REMARK                         _______ _______ _______ _____ _____    ______ ____
ROOT
ATOM      1  C   UNL     1       5.113   4.637  16.062  0.00  0.00    +0.000 A 
ATOM      2  C   UNL     1       4.581   3.697  16.959  0.00  0.00    +0.000 A 
ATOM      3  C   UNL     1       3.695   4.095  17.991  0.00  0.00    +0.000 A 
ATOM      4  C   UNL     1       3.398   5.498  18.108  0.00  0.00    +0.000 A 
ATOM      5  C   UNL     1       2.623   6.062  19.152  0.00  0.00    +0.000 A 
ATOM      6  C   UNL     1       2.340   7.429  19.192  0.00  0.00    +0.000 A 
ATOM      7 CL   UNL     1       1.358   8.069  20.499  0.00  0.00    +0.000 Cl
ATOM      8  C   UNL     1       2.838   8.276  18.204  0.00  0.00    +0.000 A 
ATOM      9  F   UNL     1       2.562   9.603  18.237  0.00  0.00    +0.000 F 
ATOM     10  C   UNL     1       3.645   7.761  17.193  0.00  0.00    +0.000 A 
ATOM     11  C   UNL     1       3.935   6.391  17.146  0.00  0.00    +0.000 A 
ATOM     12  N   UNL     1       4.759   5.938  16.176  0.00  0.00    +0.000 NA
ENDROOT
BRANCH   3  13
ATOM     13  N   UNL     1       3.123   3.097  18.878  0.00  0.00    +0.000 N 
ATOM     14  C   UNL     1       1.809   2.505  18.657  0.00  0.00    +0.000 C 
ATOM     15  C   UNL     1       0.950   2.691  19.920  0.00  0.00    +0.000 C 
ATOM     16  O   UNL     1       1.606   2.146  21.052  0.00  0.00    +0.000 OA
ATOM     17  C   UNL     1       2.806   2.859  21.287  0.00  0.00    +0.000 C 
ATOM     18  C   UNL     1       3.772   2.676  20.116  0.00  0.00    +0.000 C 
ENDBRANCH   3  13
BRANCH   1  20
ATOM     19  C   UNL     1       5.635   3.971  13.733  0.00  0.00    +0.000 C 
ATOM     20  C   UNL     1       6.054   4.228  14.987  0.00  0.00    +0.000 C 
BRANCH  19  21
ATOM     21  C   UNL     1       6.591   3.566  12.650  0.00  0.00    +0.000 C 
BRANCH  21  22
ATOM     22  O   UNL     1       6.129   2.394  12.034  0.00  0.00    +0.000 OA
ATOM     23  H   UNL     1       6.934   1.855  11.818  0.00  0.00    +0.000 HD
ENDBRANCH  21  22
ENDBRANCH  19  21
ENDBRANCH   1  20
TORSDOF 4
ENDMDL
MODEL 5
REMARK VINA RESULT:      -7.3      3.502      6.249
REMARK  Name = 
REMARK  4 active torsions:
REMARK  status: ('A' for Active; 'I' for Inactive)
REMARK    1  A    between atoms: O_1  and  C_2
REMARK    2  A    between atoms: C_2  and  C_3
REMARK    3  A    between atoms: C_4  and  C_5
REMARK    4  A    between atoms: C_7  and  N_8
REMARK                            x       y       z     vdW  Elec       q    Type
REMARK                         _______ _______ _______ _____ _____    ______ ____
ROOT
ATOM      1  C   UNL     1       4.961   4.663  16.381  0.00  0.00    +0.000 A 
ATOM      2  C   UNL     1       4.423   3.730  17.281  0.00  0.00    +0.000 A 
ATOM      3  C   UNL     1       3.517   4.133  18.293  0.00  0.00    +0.000 A 
ATOM      4  C   UNL     1       3.204   5.534  18.387  0.00  0.00    +0.000 A 
ATOM      5  C   UNL     1       2.407   6.105  19.410  0.00  0.00    +0.000 A 
ATOM      6  C   UNL     1       2.110   7.469  19.427  0.00  0.00    +0.000 A 
ATOM      7 CL   UNL     1       1.100   8.117  20.709  0.00  0.00    +0.000 Cl
ATOM      8  C   UNL     1       2.616   8.308  18.436  0.00  0.00    +0.000 A 
ATOM      9  F   UNL     1       2.326   9.632  18.447  0.00  0.00    +0.000 F 
ATOM     10  C   UNL     1       3.444   7.788  17.446  0.00  0.00    +0.000 A 
ATOM     11  C   UNL     1       3.748   6.420  17.421  0.00  0.00    +0.000 A 
ATOM     12  N   UNL     1       4.592   5.962  16.472  0.00  0.00    +0.000 NA
ENDROOT
BRANCH   3  13
ATOM     13  N   UNL     1       2.940   3.142  19.184  0.00  0.00    +0.000 N 
ATOM     14  C   UNL     1       1.612   2.574  18.981  0.00  0.00    +0.000 C 
ATOM     15  C   UNL     1       0.775   2.770  20.257  0.00  0.00    +0.000 C 
ATOM     16  O   UNL     1       1.438   2.208  21.376  0.00  0.00    +0.000 OA
ATOM     17  C   UNL     1       2.655   2.897  21.596  0.00  0.00    +0.000 C 
ATOM     18  C   UNL     1       3.599   2.703  20.411  0.00  0.00    +0.000 C 
ENDBRANCH   3  13
BRANCH   1  20
ATOM     19  C   UNL     1       6.472   5.136  14.475  0.00  0.00    +0.000 C 
ATOM     20  C   UNL     1       5.924   4.249  15.327  0.00  0.00    +0.000 C 
BRANCH  19  21
ATOM     21  C   UNL     1       7.449   4.712  13.418  0.00  0.00    +0.000 C 
BRANCH  21  22
ATOM     22  O   UNL     1       8.384   5.736  13.210  0.00  0.00    +0.000 OA
ATOM     23  H   UNL     1       8.966   5.752  14.014  0.00  0.00    +0.000 HD
ENDBRANCH  21  22
ENDBRANCH  19  21
ENDBRANCH   1  20
TORSDOF 4
ENDMDL
MODEL 6
REMARK VINA RESULT:      -7.2      4.571      6.457
REMARK  Name = 
REMARK  4 active torsions:
REMARK  status: ('A' for Active; 'I' for Inactive)
REMARK    1  A    between atoms: O_1  and  C_2
REMARK    2  A    between atoms: C_2  and  C_3
REMARK    3  A    between atoms: C_4  and  C_5
REMARK    4  A    between atoms: C_7  and  N_8
REMARK                            x       y       z     vdW  Elec       q    Type
REMARK                         _______ _______ _______ _____ _____    ______ ____
ROOT
ATOM      1  C   UNL     1       7.353   6.679  17.545  0.00  0.00    +0.000 A 
ATOM      2  C   UNL     1       6.230   6.022  18.074  0.00  0.00    +0.000 A 
ATOM      3  C   UNL     1       5.484   5.108  17.289  0.00  0.00    +0.000 A 
ATOM      4  C   UNL     1       5.896   4.912  15.924  0.00  0.00    +0.000 A 
ATOM      5  C   UNL     1       5.188   4.120  14.986  0.00  0.00    +0.000 A 
ATOM      6  C   UNL     1       5.658   3.940  13.683  0.00  0.00    +0.000 A 
ATOM      7 CL   UNL     1       4.750   2.932  12.569  0.00  0.00    +0.000 Cl
ATOM      8  C   UNL     1       6.836   4.561  13.272  0.00  0.00    +0.000 A 
ATOM      9  F   UNL     1       7.298   4.386  12.010  0.00  0.00    +0.000 F 
ATOM     10  C   UNL     1       7.528   5.387  14.154  0.00  0.00    +0.000 A 
ATOM     11  C   UNL     1       7.063   5.573  15.463  0.00  0.00    +0.000 A 
ATOM     12  N   UNL     1       7.736   6.418  16.273  0.00  0.00    +0.000 NA
ENDROOT
BRANCH   3  13
ATOM     13  N   UNL     1       4.353   4.409  17.873  0.00  0.00    +0.000 N 
ATOM     14  C   UNL     1       4.478   3.108  18.521  0.00  0.00    +0.000 C 
ATOM     15  C   UNL     1       3.493   2.120  17.871  0.00  0.00    +0.000 C 
ATOM     16  O   UNL     1       2.171   2.628  17.928  0.00  0.00    +0.000 OA
ATOM     17  C   UNL     1       2.093   3.818  17.164  0.00  0.00    +0.000 C 
ATOM     18  C   UNL     1       2.982   4.901  17.773  0.00  0.00    +0.000 C 
ENDBRANCH   3  13
BRANCH   1  20
ATOM     19  C   UNL     1       8.213   8.952  18.026  0.00  0.00    +0.000 C 
ATOM     20  C   UNL     1       8.130   7.650  18.359  0.00  0.00    +0.000 C 
BRANCH  19  21
ATOM     21  C   UNL     1       8.993   9.929  18.856  0.00  0.00    +0.000 C 
BRANCH  21  22
ATOM     22  O   UNL     1       9.649  10.837  18.013  0.00  0.00    +0.000 OA
ATOM     23  H   UNL     1      10.415  10.347  17.615  0.00  0.00    +0.000 HD
ENDBRANCH  21  22
ENDBRANCH  19  21
ENDBRANCH   1  20
TORSDOF 4
ENDMDL
MODEL 7
REMARK VINA RESULT:      -7.2      3.441      6.025
REMARK  Name = 
REMARK  4 active torsions:
REMARK  status: ('A' for Active; 'I' for Inactive)
REMARK    1  A    between atoms: O_1  and  C_2
REMARK    2  A    between atoms: C_2  and  C_3
REMARK    3  A    between atoms: C_4  and  C_5
REMARK    4  A    between atoms: C_7  and  N_8
REMARK                            x       y       z     vdW  Elec       q    Type
REMARK                         _______ _______ _______ _____ _____    ______ ____
ROOT
ATOM      1  C   UNL     1       4.502   5.987  16.679  0.00  0.00    +0.000 A 
ATOM      2  C   UNL     1       4.129   4.864  17.434  0.00  0.00    +0.000 A 
ATOM      3  C   UNL     1       3.205   4.979  18.503  0.00  0.00    +0.000 A 
ATOM      4  C   UNL     1       2.700   6.292  18.808  0.00  0.00    +0.000 A 
ATOM      5  C   UNL     1       1.861   6.585  19.912  0.00  0.00    +0.000 A 
ATOM      6  C   UNL     1       1.374   7.874  20.135  0.00  0.00    +0.000 A 
ATOM      7 CL   UNL     1       0.322   8.175  21.508  0.00  0.00    +0.000 Cl
ATOM      8  C   UNL     1       1.727   8.913  19.276  0.00  0.00    +0.000 A 
ATOM      9  F   UNL     1       1.253  10.166  19.487  0.00  0.00    +0.000 F 
ATOM     10  C   UNL     1       2.590   8.670  18.212  0.00  0.00    +0.000 A 
ATOM     11  C   UNL     1       3.084   7.378  17.980  0.00  0.00    +0.000 A 
ATOM     12  N   UNL     1       3.955   7.192  16.966  0.00  0.00    +0.000 NA
ENDROOT
BRANCH   3  13
ATOM     13  N   UNL     1       2.802   3.795  19.241  0.00  0.00    +0.000 N 
ATOM     14  C   UNL     1       1.637   2.996  18.877  0.00  0.00    +0.000 C 
ATOM     15  C   UNL     1       0.707   2.869  20.096  0.00  0.00    +0.000 C 
ATOM     16  O   UNL     1       1.410   2.328  21.202  0.00  0.00    +0.000 OA
ATOM     17  C   UNL     1       2.439   3.222  21.586  0.00  0.00    +0.000 C 
ATOM     18  C   UNL     1       3.468   3.362  20.466  0.00  0.00    +0.000 C 
ENDBRANCH   3  13
BRANCH   1  20
ATOM     19  C   UNL     1       5.836   4.685  15.048  0.00  0.00    +0.000 C 
ATOM     20  C   UNL     1       5.481   5.875  15.566  0.00  0.00    +0.000 C 
BRANCH  19  21
ATOM     21  C   UNL     1       6.820   4.579  13.920  0.00  0.00    +0.000 C 
BRANCH  21  22
ATOM     22  O   UNL     1       7.854   5.506  14.114  0.00  0.00    +0.000 OA
ATOM     23  H   UNL     1       8.028   5.530  15.092  0.00  0.00    +0.000 HD
ENDBRANCH  21  22
ENDBRANCH  19  21
ENDBRANCH   1  20
TORSDOF 4
ENDMDL
MODEL 8
REMARK VINA RESULT:      -6.9      0.891      1.373
REMARK  Name = 
REMARK  4 active torsions:
REMARK  status: ('A' for Active; 'I' for Inactive)
REMARK    1  A    between atoms: O_1  and  C_2
REMARK    2  A    between atoms: C_2  and  C_3
REMARK    3  A    between atoms: C_4  and  C_5
REMARK    4  A    between atoms: C_7  and  N_8
REMARK                            x       y       z     vdW  Elec       q    Type
REMARK                         _______ _______ _______ _____ _____    ______ ____
ROOT
ATOM      1  C   UNL     1       2.424   7.581  18.412  0.00  0.00    +0.000 A 
ATOM      2  C   UNL     1       3.598   7.129  17.790  0.00  0.00    +0.000 A 
ATOM      3  C   UNL     1       4.157   5.868  18.118  0.00  0.00    +0.000 A 
ATOM      4  C   UNL     1       3.500   5.093  19.137  0.00  0.00    +0.000 A 
ATOM      5  C   UNL     1       3.997   3.870  19.651  0.00  0.00    +0.000 A 
ATOM      6  C   UNL     1       3.295   3.146  20.616  0.00  0.00    +0.000 A 
ATOM      7 CL   UNL     1       3.950   1.627  21.203  0.00  0.00    +0.000 Cl
ATOM      8  C   UNL     1       2.086   3.631  21.112  0.00  0.00    +0.000 A 
ATOM      9  F   UNL     1       1.399   2.929  22.046  0.00  0.00    +0.000 F 
ATOM     10  C   UNL     1       1.595   4.854  20.665  0.00  0.00    +0.000 A 
ATOM     11  C   UNL     1       2.294   5.588  19.697  0.00  0.00    +0.000 A 
ATOM     12  N   UNL     1       1.809   6.792  19.323  0.00  0.00    +0.000 NA
ENDROOT
BRANCH   3  13
ATOM     13  N   UNL     1       5.348   5.404  17.428  0.00  0.00    +0.000 N 
ATOM     14  C   UNL     1       6.696   5.768  17.848  0.00  0.00    +0.000 C 
ATOM     15  C   UNL     1       7.447   6.391  16.658  0.00  0.00    +0.000 C 
ATOM     16  O   UNL     1       7.445   5.506  15.551  0.00  0.00    +0.000 OA
ATOM     17  C   UNL     1       6.114   5.307  15.112  0.00  0.00    +0.000 C 
ATOM     18  C   UNL     1       5.293   4.616  16.200  0.00  0.00    +0.000 C 
ENDBRANCH   3  13
BRANCH   1  20
ATOM     19  C   UNL     1       1.237   9.671  19.015  0.00  0.00    +0.000 C 
ATOM     20  C   UNL     1       1.841   8.909  18.084  0.00  0.00    +0.000 C 
BRANCH  19  21
ATOM     21  C   UNL     1       0.658  11.014  18.679  0.00  0.00    +0.000 C 
BRANCH  21  22
ATOM     22  O   UNL     1       1.662  11.833  18.145  0.00  0.00    +0.000 OA
ATOM     23  H   UNL     1       2.193  12.164  18.915  0.00  0.00    +0.000 HD
ENDBRANCH  21  22
ENDBRANCH  19  21
ENDBRANCH   1  20
TORSDOF 4
ENDMDL
MODEL 9
REMARK VINA RESULT:      -6.8      3.645      6.384
REMARK  Name = 
REMARK  4 active torsions:
REMARK  status: ('A' for Active; 'I' for Inactive)
REMARK    1  A    between atoms: O_1  and  C_2
REMARK    2  A    between atoms: C_2  and  C_3
REMARK    3  A    between atoms: C_4  and  C_5
REMARK    4  A    between atoms: C_7  and  N_8
REMARK                            x       y       z     vdW  Elec       q    Type
REMARK                         _______ _______ _______ _____ _____    ______ ____
ROOT
ATOM      1  C   UNL     1       4.507   5.940  17.229  0.00  0.00    +0.000 A 
ATOM      2  C   UNL     1       3.824   5.085  18.108  0.00  0.00    +0.000 A 
ATOM      3  C   UNL     1       2.752   5.563  18.902  0.00  0.00    +0.000 A 
ATOM      4  C   UNL     1       2.420   6.960  18.802  0.00  0.00    +0.000 A 
ATOM      5  C   UNL     1       1.453   7.607  19.609  0.00  0.00    +0.000 A 
ATOM      6  C   UNL     1       1.150   8.960  19.441  0.00  0.00    +0.000 A 
ATOM      7 CL   UNL     1      -0.072   9.705  20.457  0.00  0.00    +0.000 Cl
ATOM      8  C   UNL     1       1.819   9.711  18.476  0.00  0.00    +0.000 A 
ATOM      9  F   UNL     1       1.526  11.024  18.307  0.00  0.00    +0.000 F 
ATOM     10  C   UNL     1       2.811   9.118  17.701  0.00  0.00    +0.000 A 
ATOM     11  C   UNL     1       3.121   7.761  17.864  0.00  0.00    +0.000 A 
ATOM     12  N   UNL     1       4.122   7.233  17.126  0.00  0.00    +0.000 NA
ENDROOT
BRANCH   3  13
ATOM     13  N   UNL     1       2.032   4.649  19.771  0.00  0.00    +0.000 N 
ATOM     14  C   UNL     1       2.292   4.550  21.203  0.00  0.00    +0.000 C 
ATOM     15  C   UNL     1       2.605   3.087  21.562  0.00  0.00    +0.000 C 
ATOM     16  O   UNL     1       1.551   2.237  21.144  0.00  0.00    +0.000 OA
ATOM     17  C   UNL     1       1.446   2.279  19.733  0.00  0.00    +0.000 C 
ATOM     18  C   UNL     1       1.059   3.682  19.269  0.00  0.00    +0.000 C 
ENDBRANCH   3  13
BRANCH   1  20
ATOM     19  C   UNL     1       5.466   4.992  15.150  0.00  0.00    +0.000 C 
ATOM     20  C   UNL     1       5.643   5.448  16.404  0.00  0.00    +0.000 C 
BRANCH  19  21
ATOM     21  C   UNL     1       6.617   4.504  14.320  0.00  0.00    +0.000 C 
BRANCH  21  22
ATOM     22  O   UNL     1       7.677   5.418  14.411  0.00  0.00    +0.000 OA
ATOM     23  H   UNL     1       8.509   4.897  14.263  0.00  0.00    +0.000 HD
ENDBRANCH  21  22
ENDBRANCH  19  21
ENDBRANCH   1  20
TORSDOF 4
ENDMDL
