MODEL 1
REMARK VINA RESULT:      -8.3      0.000      0.000
REMARK  Name = 
REMARK  8 active torsions:
REMARK  status: ('A' for Active; 'I' for Inactive)
REMARK    1  A    between atoms: C_1  and  C_2
REMARK    2  A    between atoms: C_2  and  C_3
REMARK    3  A    between atoms: C_3  and  C_4
REMARK    4  A    between atoms: C_4  and  C_5
REMARK    5  A    between atoms: C_5  and  C_6
REMARK    6  A    between atoms: C_6  and  N_7
REMARK    7  A    between atoms: N_11  and  C_12
REMARK    8  A    between atoms: C_12  and  C_13
REMARK                            x       y       z     vdW  Elec       q    Type
REMARK                         _______ _______ _______ _____ _____    ______ ____
ROOT
ATOM      1  N   UNL     1       7.875   7.112  17.195  0.00  0.00    +0.000 NA
ATOM      2  C   UNL     1       6.961   6.202  17.285  0.00  0.00    +0.000 A 
ATOM      3  C   UNL     1       6.255   5.831  18.535  0.00  0.00    +0.000 A 
ATOM      4  C   UNL     1       5.265   4.945  18.480  0.00  0.00    +0.000 A 
ATOM      5  N   UNL     1       4.809   4.303  17.344  0.00  0.00    +0.000 N 
ATOM      6  C   UNL     1       5.502   4.500  16.122  0.00  0.00    +0.000 A 
ATOM      7  C   UNL     1       5.212   3.775  14.949  0.00  0.00    +0.000 A 
ATOM      8  C   UNL     1       5.969   3.941  13.786  0.00  0.00    +0.000 A 
ATOM      9 CL   UNL     1       5.615   2.982  12.399  0.00  0.00    +0.000 Cl
ATOM     10  C   UNL     1       7.013   4.854  13.743  0.00  0.00    +0.000 A 
ATOM     11  C   UNL     1       7.310   5.606  14.879  0.00  0.00    +0.000 A 
ATOM     12  C   UNL     1       6.572   5.426  16.063  0.00  0.00    +0.000 A 
ENDROOT
BRANCH   1  13
ATOM     13  C   UNL     1       8.221   7.872  18.391  0.00  0.00    +0.000 C 
BRANCH  13  14
ATOM     14  C   UNL     1       8.369   9.345  18.033  0.00  0.00    +0.000 C 
BRANCH  14  15
ATOM     15  C   UNL     1       9.176  10.112  19.081  0.00  0.00    +0.000 C 
BRANCH  15  16
ATOM     16  C   UNL     1       9.377  11.560  18.653  0.00  0.00    +0.000 C 
BRANCH  16  18
ATOM     17  C   UNL     1      11.119  12.648  17.215  0.00  0.00    +0.000 C 
ATOM     18  C   UNL     1      10.858  11.893  18.506  0.00  0.00    +0.000 C 
ENDBRANCH  16  18
ENDBRANCH  15  16
ENDBRANCH  14  15
ENDBRANCH  13  14
ENDBRANCH   1  13
BRANCH   5  19
ATOM     19  C   UNL     1       3.745   3.286  17.443  0.00  0.00    +0.000 C 
BRANCH  19  20
ATOM     20  C   UNL     1       2.985   3.310  18.756  0.00  0.00    +0.000 A 
ATOM     21  C   UNL     1       3.422   2.635  19.908  0.00  0.00    +0.000 A 
ATOM     22  C   UNL     1       2.627   2.582  21.051  0.00  0.00    +0.000 A 
ATOM     23  C   UNL     1       1.398   3.233  21.073  0.00  0.00    +0.000 A 
ATOM     24  C   UNL     1       0.979   3.962  19.964  0.00  0.00    +0.000 A 
ATOM     25  C   UNL     1       1.766   4.003  18.814  0.00  0.00    +0.000 A 
ENDBRANCH  19  20
ENDBRANCH   5  19
TORSDOF 7
ENDMDL
MODEL 2
REMARK VINA RESULT:      -7.9      0.671      1.188
REMARK  Name = 
REMARK  8 active torsions:
REMARK  status: ('A' for Active; 'I' for Inactive)
REMARK    1  A    between atoms: C_1  and  C_2
REMARK    2  A    between atoms: C_2  and  C_3
REMARK    3  A    between atoms: C_3  and  C_4
REMARK    4  A    between atoms: C_4  and  C_5
REMARK    5  A    between atoms: C_5  and  C_6
REMARK    6  A    between atoms: C_6  and  N_7
REMARK    7  A    between atoms: N_11  and  C_12
REMARK    8  A    between atoms: C_12  and  C_13
REMARK                            x       y       z     vdW  Elec       q    Type
REMARK                         _______ _______ _______ _____ _____    ______ ____
ROOT
ATOM      1  N   UNL     1       7.816   7.036  17.037  0.00  0.00    +0.000 NA
ATOM      2  C   UNL     1       6.831   6.202  17.093  0.00  0.00    +0.000 A 
ATOM      3  C   UNL     1       6.009   5.940  18.300  0.00  0.00    +0.000 A 
ATOM      4  C   UNL     1       4.960   5.129  18.204  0.00  0.00    +0.000 A 
ATOM      5  N   UNL     1       4.539   4.472  17.062  0.00  0.00    +0.000 N 
ATOM      6  C   UNL     1       5.331   4.563  15.889  0.00  0.00    +0.000 A 
ATOM      7  C   UNL     1       5.072   3.811  14.727  0.00  0.00    +0.000 A 
ATOM      8  C   UNL     1       5.921   3.869  13.618  0.00  0.00    +0.000 A 
ATOM      9 CL   UNL     1       5.596   2.879  12.246  0.00  0.00    +0.000 Cl
ATOM     10  C   UNL     1       7.034   4.699  13.619  0.00  0.00    +0.000 A 
ATOM     11  C   UNL     1       7.305   5.476  14.744  0.00  0.00    +0.000 A 
ATOM     12  C   UNL     1       6.472   5.404  15.875  0.00  0.00    +0.000 A 
ENDROOT
BRANCH   1  13
ATOM     13  C   UNL     1       8.133   7.821  18.226  0.00  0.00    +0.000 C 
BRANCH  13  14
ATOM     14  C   UNL     1       7.949   9.302  17.922  0.00  0.00    +0.000 C 
BRANCH  14  15
ATOM     15  C   UNL     1       9.211  10.111  18.227  0.00  0.00    +0.000 C 
BRANCH  15  16
ATOM     16  C   UNL     1       9.281  10.460  19.708  0.00  0.00    +0.000 C 
BRANCH  16  18
ATOM     17  C   UNL     1      10.124  12.751  19.133  0.00  0.00    +0.000 C 
ATOM     18  C   UNL     1      10.355  11.510  19.977  0.00  0.00    +0.000 C 
ENDBRANCH  16  18
ENDBRANCH  15  16
ENDBRANCH  14  15
ENDBRANCH  13  14
ENDBRANCH   1  13
BRANCH   5  19
ATOM     19  C   UNL     1       3.395   3.543  17.119  0.00  0.00    +0.000 C 
BRANCH  19  20
ATOM     20  C   UNL     1       2.745   3.444  18.487  0.00  0.00    +0.000 A 
ATOM     21  C   UNL     1       1.536   4.084  18.809  0.00  0.00    +0.000 A 
ATOM     22  C   UNL     1       1.044   4.067  20.113  0.00  0.00    +0.000 A 
ATOM     23  C   UNL     1       1.733   3.380  21.106  0.00  0.00    +0.000 A 
ATOM     24  C   UNL     1       2.896   2.685  20.790  0.00  0.00    +0.000 A 
ATOM     25  C   UNL     1       3.399   2.713  19.490  0.00  0.00    +0.000 A 
ENDBRANCH  19  20
ENDBRANCH   5  19
TORSDOF 7
ENDMDL
MODEL 3
REMARK VINA RESULT:      -7.6      3.583      7.012
REMARK  Name = 
REMARK  8 active torsions:
REMARK  status: ('A' for Active; 'I' for Inactive)
REMARK    1  A    between atoms: C_1  and  C_2
REMARK    2  A    between atoms: C_2  and  C_3
REMARK    3  A    between atoms: C_3  and  C_4
REMARK    4  A    between atoms: C_4  and  C_5
REMARK    5  A    between atoms: C_5  and  C_6
REMARK    6  A    between atoms: C_6  and  N_7
REMARK    7  A    between atoms: N_11  and  C_12
REMARK    8  A    between atoms: C_12  and  C_13
REMARK                            x       y       z     vdW  Elec       q    Type
REMARK                         _______ _______ _______ _____ _____    ______ ____
ROOT
ATOM      1  N   UNL     1       2.348   7.726  18.169  0.00  0.00    +0.000 NA
ATOM      2  C   UNL     1       3.333   7.047  17.680  0.00  0.00    +0.000 A 
ATOM      3  C   UNL     1       4.426   7.616  16.853  0.00  0.00    +0.000 A 
ATOM      4  C   UNL     1       5.436   6.831  16.489  0.00  0.00    +0.000 A 
ATOM      5  N   UNL     1       5.581   5.492  16.802  0.00  0.00    +0.000 N 
ATOM      6  C   UNL     1       4.529   4.831  17.484  0.00  0.00    +0.000 A 
ATOM      7  C   UNL     1       4.515   3.440  17.711  0.00  0.00    +0.000 A 
ATOM      8  C   UNL     1       3.423   2.814  18.318  0.00  0.00    +0.000 A 
ATOM      9 CL   UNL     1       3.427   1.102  18.513  0.00  0.00    +0.000 Cl
ATOM     10  C   UNL     1       2.328   3.552  18.746  0.00  0.00    +0.000 A 
ATOM     11  C   UNL     1       2.322   4.933  18.559  0.00  0.00    +0.000 A 
ATOM     12  C   UNL     1       3.403   5.570  17.925  0.00  0.00    +0.000 A 
ENDROOT
BRANCH   1  13
ATOM     13  C   UNL     1       2.313   9.167  17.940  0.00  0.00    +0.000 C 
BRANCH  13  14
ATOM     14  C   UNL     1       0.918   9.697  18.246  0.00  0.00    +0.000 C 
BRANCH  14  15
ATOM     15  C   UNL     1       0.810  10.233  19.674  0.00  0.00    +0.000 C 
BRANCH  15  16
ATOM     16  C   UNL     1      -0.468   9.738  20.340  0.00  0.00    +0.000 C 
BRANCH  16  18
ATOM     17  C   UNL     1       1.308   8.684  21.761  0.00  0.00    +0.000 C 
ATOM     18  C   UNL     1      -0.166   9.033  21.658  0.00  0.00    +0.000 C 
ENDBRANCH  16  18
ENDBRANCH  15  16
ENDBRANCH  14  15
ENDBRANCH  13  14
ENDBRANCH   1  13
BRANCH   5  19
ATOM     19  C   UNL     1       6.723   4.726  16.268  0.00  0.00    +0.000 C 
BRANCH  19  20
ATOM     20  C   UNL     1       6.709   4.562  14.759  0.00  0.00    +0.000 A 
ATOM     21  C   UNL     1       5.827   3.696  14.090  0.00  0.00    +0.000 A 
ATOM     22  C   UNL     1       5.938   3.486  12.717  0.00  0.00    +0.000 A 
ATOM     23  C   UNL     1       6.907   4.165  11.986  0.00  0.00    +0.000 A 
ATOM     24  C   UNL     1       7.744   5.076  12.622  0.00  0.00    +0.000 A 
ATOM     25  C   UNL     1       7.647   5.276  13.998  0.00  0.00    +0.000 A 
ENDBRANCH  19  20
ENDBRANCH   5  19
TORSDOF 7
ENDMDL
MODEL 4
REMARK VINA RESULT:      -7.6      3.894      6.261
REMARK  Name = 
REMARK  8 active torsions:
REMARK  status: ('A' for Active; 'I' for Inactive)
REMARK    1  A    between atoms: C_1  and  C_2
REMARK    2  A    between atoms: C_2  and  C_3
REMARK    3  A    between atoms: C_3  and  C_4
REMARK    4  A    between atoms: C_4  and  C_5
REMARK    5  A    between atoms: C_5  and  C_6
REMARK    6  A    between atoms: C_6  and  N_7
REMARK    7  A    between atoms: N_11  and  C_12
REMARK    8  A    between atoms: C_12  and  C_13
REMARK                            x       y       z     vdW  Elec       q    Type
REMARK                         _______ _______ _______ _____ _____    ______ ____
ROOT
ATOM      1  N   UNL     1       4.428   4.161  16.390  0.00  0.00    +0.000 NA
ATOM      2  C   UNL     1       3.953   4.940  17.305  0.00  0.00    +0.000 A 
ATOM      3  C   UNL     1       4.111   6.415  17.329  0.00  0.00    +0.000 A 
ATOM      4  C   UNL     1       3.493   7.116  18.275  0.00  0.00    +0.000 A 
ATOM      5  N   UNL     1       2.695   6.601  19.280  0.00  0.00    +0.000 N 
ATOM      6  C   UNL     1       2.584   5.194  19.413  0.00  0.00    +0.000 A 
ATOM      7  C   UNL     1       1.925   4.574  20.493  0.00  0.00    +0.000 A 
ATOM      8  C   UNL     1       1.904   3.183  20.630  0.00  0.00    +0.000 A 
ATOM      9 CL   UNL     1       1.140   2.477  22.004  0.00  0.00    +0.000 Cl
ATOM     10  C   UNL     1       2.509   2.367  19.685  0.00  0.00    +0.000 A 
ATOM     11  C   UNL     1       3.149   2.948  18.591  0.00  0.00    +0.000 A 
ATOM     12  C   UNL     1       3.199   4.347  18.458  0.00  0.00    +0.000 A 
ENDROOT
BRANCH   1  13
ATOM     13  C   UNL     1       5.137   4.761  15.264  0.00  0.00    +0.000 C 
BRANCH  13  14
ATOM     14  C   UNL     1       6.603   4.347  15.307  0.00  0.00    +0.000 C 
BRANCH  14  15
ATOM     15  C   UNL     1       7.430   5.262  16.212  0.00  0.00    +0.000 C 
BRANCH  15  16
ATOM     16  C   UNL     1       7.658   4.612  17.570  0.00  0.00    +0.000 C 
BRANCH  16  18
ATOM     17  C   UNL     1       7.850   7.026  18.221  0.00  0.00    +0.000 C 
ATOM     18  C   UNL     1       7.508   5.626  18.700  0.00  0.00    +0.000 C 
ENDBRANCH  16  18
ENDBRANCH  15  16
ENDBRANCH  14  15
ENDBRANCH  13  14
ENDBRANCH   1  13
BRANCH   5  19
ATOM     19  C   UNL     1       2.129   7.495  20.308  0.00  0.00    +0.000 C 
BRANCH  19  20
ATOM     20  C   UNL     1       1.235   8.589  19.754  0.00  0.00    +0.000 A 
ATOM     21  C   UNL     1       1.289   9.021  18.418  0.00  0.00    +0.000 A 
ATOM     22  C   UNL     1       0.539  10.114  17.989  0.00  0.00    +0.000 A 
ATOM     23  C   UNL     1      -0.306  10.769  18.879  0.00  0.00    +0.000 A 
ATOM     24  C   UNL     1      -0.423  10.313  20.188  0.00  0.00    +0.000 A 
ATOM     25  C   UNL     1       0.339   9.230  20.624  0.00  0.00    +0.000 A 
ENDBRANCH  19  20
ENDBRANCH   5  19
TORSDOF 7
ENDMDL
MODEL 5
REMARK VINA RESULT:      -7.5      3.873      7.409
REMARK  Name = 
REMARK  8 active torsions:
REMARK  status: ('A' for Active; 'I' for Inactive)
REMARK    1  A    between atoms: C_1  and  C_2
REMARK    2  A    between atoms: C_2  and  C_3
REMARK    3  A    between atoms: C_3  and  C_4
REMARK    4  A    between atoms: C_4  and  C_5
REMARK    5  A    between atoms: C_5  and  C_6
REMARK    6  A    between atoms: C_6  and  N_7
REMARK    7  A    between atoms: N_11  and  C_12
REMARK    8  A    between atoms: C_12  and  C_13
REMARK                            x       y       z     vdW  Elec       q    Type
REMARK                         _______ _______ _______ _____ _____    ______ ____
ROOT
ATOM      1  N   UNL     1       2.280   7.959  18.108  0.00  0.00    +0.000 NA
ATOM      2  C   UNL     1       3.244   7.223  17.661  0.00  0.00    +0.000 A 
ATOM      3  C   UNL     1       4.400   7.725  16.878  0.00  0.00    +0.000 A 
ATOM      4  C   UNL     1       5.377   6.882  16.557  0.00  0.00    +0.000 A 
ATOM      5  N   UNL     1       5.432   5.538  16.878  0.00  0.00    +0.000 N 
ATOM      6  C   UNL     1       4.317   4.941  17.517  0.00  0.00    +0.000 A 
ATOM      7  C   UNL     1       4.213   3.554  17.745  0.00  0.00    +0.000 A 
ATOM      8  C   UNL     1       3.063   2.994  18.308  0.00  0.00    +0.000 A 
ATOM      9 CL   UNL     1       2.960   1.285  18.505  0.00  0.00    +0.000 Cl
ATOM     10  C   UNL     1       1.996   3.795  18.689  0.00  0.00    +0.000 A 
ATOM     11  C   UNL     1       2.076   5.174  18.501  0.00  0.00    +0.000 A 
ATOM     12  C   UNL     1       3.218   5.745  17.910  0.00  0.00    +0.000 A 
ENDROOT
BRANCH   1  13
ATOM     13  C   UNL     1       2.337   9.399  17.876  0.00  0.00    +0.000 C 
BRANCH  13  14
ATOM     14  C   UNL     1       1.096  10.059  18.461  0.00  0.00    +0.000 C 
BRANCH  14  15
ATOM     15  C   UNL     1      -0.190   9.529  17.823  0.00  0.00    +0.000 C 
BRANCH  15  16
ATOM     16  C   UNL     1      -1.405  10.267  18.370  0.00  0.00    +0.000 C 
BRANCH  16  18
ATOM     17  C   UNL     1      -2.608  10.054  16.180  0.00  0.00    +0.000 C 
ATOM     18  C   UNL     1      -2.685   9.811  17.677  0.00  0.00    +0.000 C 
ENDBRANCH  16  18
ENDBRANCH  15  16
ENDBRANCH  14  15
ENDBRANCH  13  14
ENDBRANCH   1  13
BRANCH   5  19
ATOM     19  C   UNL     1       6.548   4.705  16.392  0.00  0.00    +0.000 C 
BRANCH  19  20
ATOM     20  C   UNL     1       6.597   4.552  14.883  0.00  0.00    +0.000 A 
ATOM     21  C   UNL     1       5.729   3.708  14.169  0.00  0.00    +0.000 A 
ATOM     22  C   UNL     1       5.895   3.505  12.800  0.00  0.00    +0.000 A 
ATOM     23  C   UNL     1       6.908   4.170  12.117  0.00  0.00    +0.000 A 
ATOM     24  C   UNL     1       7.735   5.060  12.796  0.00  0.00    +0.000 A 
ATOM     25  C   UNL     1       7.581   5.253  14.168  0.00  0.00    +0.000 A 
ENDBRANCH  19  20
ENDBRANCH   5  19
TORSDOF 7
ENDMDL
MODEL 6
REMARK VINA RESULT:      -7.5      4.085      7.249
REMARK  Name = 
REMARK  8 active torsions:
REMARK  status: ('A' for Active; 'I' for Inactive)
REMARK    1  A    between atoms: C_1  and  C_2
REMARK    2  A    between atoms: C_2  and  C_3
REMARK    3  A    between atoms: C_3  and  C_4
REMARK    4  A    between atoms: C_4  and  C_5
REMARK    5  A    between atoms: C_5  and  C_6
REMARK    6  A    between atoms: C_6  and  N_7
REMARK    7  A    between atoms: N_11  and  C_12
REMARK    8  A    between atoms: C_12  and  C_13
REMARK                            x       y       z     vdW  Elec       q    Type
REMARK                         _______ _______ _______ _____ _____    ______ ____
ROOT
ATOM      1  N   UNL     1       1.671   8.423  18.849  0.00  0.00    +0.000 NA
ATOM      2  C   UNL     1       2.582   7.548  18.576  0.00  0.00    +0.000 A 
ATOM      3  C   UNL     1       3.607   7.695  17.513  0.00  0.00    +0.000 A 
ATOM      4  C   UNL     1       4.551   6.766  17.393  0.00  0.00    +0.000 A 
ATOM      5  N   UNL     1       4.684   5.634  18.176  0.00  0.00    +0.000 N 
ATOM      6  C   UNL     1       3.682   5.345  19.137  0.00  0.00    +0.000 A 
ATOM      7  C   UNL     1       3.646   4.142  19.871  0.00  0.00    +0.000 A 
ATOM      8  C   UNL     1       2.599   3.860  20.752  0.00  0.00    +0.000 A 
ATOM      9 CL   UNL     1       2.567   2.347  21.577  0.00  0.00    +0.000 Cl
ATOM     10  C   UNL     1       1.574   4.775  20.955  0.00  0.00    +0.000 A 
ATOM     11  C   UNL     1       1.594   5.985  20.263  0.00  0.00    +0.000 A 
ATOM     12  C   UNL     1       2.628   6.267  19.353  0.00  0.00    +0.000 A 
ENDROOT
BRANCH   1  13
ATOM     13  C   UNL     1       1.659   9.674  18.097  0.00  0.00    +0.000 C 
BRANCH  13  14
ATOM     14  C   UNL     1       0.501  10.542  18.570  0.00  0.00    +0.000 C 
BRANCH  14  15
ATOM     15  C   UNL     1      -0.124  10.011  19.861  0.00  0.00    +0.000 C 
BRANCH  15  16
ATOM     16  C   UNL     1       0.628  10.534  21.078  0.00  0.00    +0.000 C 
BRANCH  16  18
ATOM     17  C   UNL     1      -0.238   9.610  23.242  0.00  0.00    +0.000 C 
ATOM     18  C   UNL     1       0.790   9.448  22.137  0.00  0.00    +0.000 C 
ENDBRANCH  16  18
ENDBRANCH  15  16
ENDBRANCH  14  15
ENDBRANCH  13  14
ENDBRANCH   1  13
BRANCH   5  19
ATOM     19  C   UNL     1       5.743   4.649  17.882  0.00  0.00    +0.000 C 
BRANCH  19  20
ATOM     20  C   UNL     1       6.074   4.515  16.407  0.00  0.00    +0.000 A 
ATOM     21  C   UNL     1       7.265   5.000  15.841  0.00  0.00    +0.000 A 
ATOM     22  C   UNL     1       7.467   4.966  14.463  0.00  0.00    +0.000 A 
ATOM     23  C   UNL     1       6.498   4.414  13.633  0.00  0.00    +0.000 A 
ATOM     24  C   UNL     1       5.342   3.869  14.182  0.00  0.00    +0.000 A 
ATOM     25  C   UNL     1       5.130   3.916  15.559  0.00  0.00    +0.000 A 
ENDBRANCH  19  20
ENDBRANCH   5  19
TORSDOF 7
ENDMDL
MODEL 7
REMARK VINA RESULT:      -7.4      3.571      7.062
REMARK  Name = 
REMARK  8 active torsions:
REMARK  status: ('A' for Active; 'I' for Inactive)
REMARK    1  A    between atoms: C_1  and  C_2
REMARK    2  A    between atoms: C_2  and  C_3
REMARK    3  A    between atoms: C_3  and  C_4
REMARK    4  A    between atoms: C_4  and  C_5
REMARK    5  A    between atoms: C_5  and  C_6
REMARK    6  A    between atoms: C_6  and  N_7
REMARK    7  A    between atoms: N_11  and  C_12
REMARK    8  A    between atoms: C_12  and  C_13
REMARK                            x       y       z     vdW  Elec       q    Type
REMARK                         _______ _______ _______ _____ _____    ______ ____
ROOT
ATOM      1  N   UNL     1       2.112   7.508  18.196  0.00  0.00    +0.000 NA
ATOM      2  C   UNL     1       3.173   6.909  17.766  0.00  0.00    +0.000 A 
ATOM      3  C   UNL     1       4.266   7.561  17.003  0.00  0.00    +0.000 A 
ATOM      4  C   UNL     1       5.352   6.857  16.699  0.00  0.00    +0.000 A 
ATOM      5  N   UNL     1       5.581   5.532  17.022  0.00  0.00    +0.000 N 
ATOM      6  C   UNL     1       4.544   4.790  17.643  0.00  0.00    +0.000 A 
ATOM      7  C   UNL     1       4.623   3.402  17.870  0.00  0.00    +0.000 A 
ATOM      8  C   UNL     1       3.549   2.692  18.413  0.00  0.00    +0.000 A 
ATOM      9 CL   UNL     1       3.672   0.985  18.609  0.00  0.00    +0.000 Cl
ATOM     10  C   UNL     1       2.378   3.343  18.775  0.00  0.00    +0.000 A 
ATOM     11  C   UNL     1       2.277   4.720  18.587  0.00  0.00    +0.000 A 
ATOM     12  C   UNL     1       3.342   5.440  18.016  0.00  0.00    +0.000 A 
ENDROOT
BRANCH   1  13
ATOM     13  C   UNL     1       1.981   8.943  17.963  0.00  0.00    +0.000 C 
BRANCH  13  14
ATOM     14  C   UNL     1       1.443   9.615  19.220  0.00  0.00    +0.000 C 
BRANCH  14  15
ATOM     15  C   UNL     1       1.276   8.625  20.373  0.00  0.00    +0.000 C 
BRANCH  15  16
ATOM     16  C   UNL     1      -0.008   8.907  21.143  0.00  0.00    +0.000 C 
BRANCH  16  18
ATOM     17  C   UNL     1      -0.754  10.249  23.126  0.00  0.00    +0.000 C 
ATOM     18  C   UNL     1       0.288   9.282  22.592  0.00  0.00    +0.000 C 
ENDBRANCH  16  18
ENDBRANCH  15  16
ENDBRANCH  14  15
ENDBRANCH  13  14
ENDBRANCH   1  13
BRANCH   5  19
ATOM     19  C   UNL     1       6.807   4.857  16.556  0.00  0.00    +0.000 C 
BRANCH  19  20
ATOM     20  C   UNL     1       6.849   4.610  15.059  0.00  0.00    +0.000 A 
ATOM     21  C   UNL     1       7.740   5.273  14.198  0.00  0.00    +0.000 A 
ATOM     22  C   UNL     1       7.655   5.107  12.817  0.00  0.00    +0.000 A 
ATOM     23  C   UNL     1       6.703   4.249  12.277  0.00  0.00    +0.000 A 
ATOM     24  C   UNL     1       5.856   3.534  13.119  0.00  0.00    +0.000 A 
ATOM     25  C   UNL     1       5.928   3.710  14.501  0.00  0.00    +0.000 A 
ENDBRANCH  19  20
ENDBRANCH   5  19
TORSDOF 7
ENDMDL
MODEL 8
REMARK VINA RESULT:      -7.4      7.181     10.324
REMARK  Name = 
REMARK  8 active torsions:
REMARK  status: ('A' for Active; 'I' for Inactive)
REMARK    1  A    between atoms: C_1  and  C_2
REMARK    2  A    between atoms: C_2  and  C_3
REMARK    3  A    between atoms: C_3  and  C_4
REMARK    4  A    between atoms: C_4  and  C_5
REMARK    5  A    between atoms: C_5  and  C_6
REMARK    6  A    between atoms: C_6  and  N_7
REMARK    7  A    between atoms: N_11  and  C_12
REMARK    8  A    between atoms: C_12  and  C_13
REMARK                            x       y       z     vdW  Elec       q    Type
REMARK                         _______ _______ _______ _____ _____    ______ ____
ROOT
ATOM      1  N   UNL     1       2.008   7.438  20.390  0.00  0.00    +0.000 NA
ATOM      2  C   UNL     1       1.417   8.480  19.906  0.00  0.00    +0.000 A 
ATOM      3  C   UNL     1       1.541   8.951  18.504  0.00  0.00    +0.000 A 
ATOM      4  C   UNL     1       0.806   9.983  18.101  0.00  0.00    +0.000 A 
ATOM      5  N   UNL     1      -0.089  10.698  18.876  0.00  0.00    +0.000 N 
ATOM      6  C   UNL     1      -0.185  10.401  20.259  0.00  0.00    +0.000 A 
ATOM      7  C   UNL     1      -0.949  11.171  21.159  0.00  0.00    +0.000 A 
ATOM      8  C   UNL     1      -0.956  10.894  22.528  0.00  0.00    +0.000 A 
ATOM      9 CL   UNL     1      -1.855  11.907  23.595  0.00  0.00    +0.000 Cl
ATOM     10  C   UNL     1      -0.232   9.828  23.042  0.00  0.00    +0.000 A 
ATOM     11  C   UNL     1       0.515   9.030  22.175  0.00  0.00    +0.000 A 
ATOM     12  C   UNL     1       0.551   9.317  20.799  0.00  0.00    +0.000 A 
ENDROOT
BRANCH   1  13
ATOM     13  C   UNL     1       2.827   6.624  19.497  0.00  0.00    +0.000 C 
BRANCH  13  14
ATOM     14  C   UNL     1       2.098   5.324  19.183  0.00  0.00    +0.000 C 
BRANCH  14  15
ATOM     15  C   UNL     1       1.463   4.706  20.429  0.00  0.00    +0.000 C 
BRANCH  15  16
ATOM     16  C   UNL     1       0.872   3.338  20.111  0.00  0.00    +0.000 C 
BRANCH  16  18
ATOM     17  C   UNL     1       2.046   2.001  18.344  0.00  0.00    +0.000 C 
ATOM     18  C   UNL     1       1.968   2.316  19.828  0.00  0.00    +0.000 C 
ENDBRANCH  16  18
ENDBRANCH  15  16
ENDBRANCH  14  15
ENDBRANCH  13  14
ENDBRANCH   1  13
BRANCH   5  19
ATOM     19  C   UNL     1      -0.785  11.870  18.314  0.00  0.00    +0.000 C 
BRANCH  19  20
ATOM     20  C   UNL     1      -2.164  11.565  17.758  0.00  0.00    +0.000 A 
ATOM     21  C   UNL     1      -2.377  11.087  16.454  0.00  0.00    +0.000 A 
ATOM     22  C   UNL     1      -3.667  10.942  15.948  0.00  0.00    +0.000 A 
ATOM     23  C   UNL     1      -4.765  11.237  16.749  0.00  0.00    +0.000 A 
ATOM     24  C   UNL     1      -4.574  11.647  18.064  0.00  0.00    +0.000 A 
ATOM     25  C   UNL     1      -3.284  11.809  18.569  0.00  0.00    +0.000 A 
ENDBRANCH  19  20
ENDBRANCH   5  19
TORSDOF 7
ENDMDL
MODEL 9
REMARK VINA RESULT:      -7.4      4.146      7.132
REMARK  Name = 
REMARK  8 active torsions:
REMARK  status: ('A' for Active; 'I' for Inactive)
REMARK    1  A    between atoms: C_1  and  C_2
REMARK    2  A    between atoms: C_2  and  C_3
REMARK    3  A    between atoms: C_3  and  C_4
REMARK    4  A    between atoms: C_4  and  C_5
REMARK    5  A    between atoms: C_5  and  C_6
REMARK    6  A    between atoms: C_6  and  N_7
REMARK    7  A    between atoms: N_11  and  C_12
REMARK    8  A    between atoms: C_12  and  C_13
REMARK                            x       y       z     vdW  Elec       q    Type
REMARK                         _______ _______ _______ _____ _____    ______ ____
ROOT
ATOM      1  N   UNL     1       4.924   4.132  15.450  0.00  0.00    +0.000 NA
ATOM      2  C   UNL     1       4.518   4.853  16.443  0.00  0.00    +0.000 A 
ATOM      3  C   UNL     1       4.765   6.308  16.591  0.00  0.00    +0.000 A 
ATOM      4  C   UNL     1       4.212   6.958  17.611  0.00  0.00    +0.000 A 
ATOM      5  N   UNL     1       3.408   6.403  18.589  0.00  0.00    +0.000 N 
ATOM      6  C   UNL     1       3.214   4.998  18.602  0.00  0.00    +0.000 A 
ATOM      7  C   UNL     1       2.543   4.324  19.641  0.00  0.00    +0.000 A 
ATOM      8  C   UNL     1       2.441   2.931  19.657  0.00  0.00    +0.000 A 
ATOM      9 CL   UNL     1       1.667   2.151  20.984  0.00  0.00    +0.000 Cl
ATOM     10  C   UNL     1       2.975   2.167  18.628  0.00  0.00    +0.000 A 
ATOM     11  C   UNL     1       3.624   2.805  17.571  0.00  0.00    +0.000 A 
ATOM     12  C   UNL     1       3.756   4.205  17.560  0.00  0.00    +0.000 A 
ENDROOT
BRANCH   1  13
ATOM     13  C   UNL     1       5.643   4.787  14.362  0.00  0.00    +0.000 C 
BRANCH  13  14
ATOM     14  C   UNL     1       6.594   3.793  13.708  0.00  0.00    +0.000 C 
BRANCH  14  15
ATOM     15  C   UNL     1       5.983   3.150  12.463  0.00  0.00    +0.000 C 
BRANCH  15  16
ATOM     16  C   UNL     1       4.713   3.880  12.046  0.00  0.00    +0.000 C 
BRANCH  16  18
ATOM     17  C   UNL     1       3.196   3.988  10.053  0.00  0.00    +0.000 C 
ATOM     18  C   UNL     1       3.923   3.073  11.022  0.00  0.00    +0.000 C 
ENDBRANCH  16  18
ENDBRANCH  15  16
ENDBRANCH  14  15
ENDBRANCH  13  14
ENDBRANCH   1  13
BRANCH   5  19
ATOM     19  C   UNL     1       2.919   7.233  19.707  0.00  0.00    +0.000 C 
BRANCH  19  20
ATOM     20  C   UNL     1       1.847   8.233  19.314  0.00  0.00    +0.000 A 
ATOM     21  C   UNL     1       1.628   8.642  17.988  0.00  0.00    +0.000 A 
ATOM     22  C   UNL     1       0.718   9.655  17.693  0.00  0.00    +0.000 A 
ATOM     23  C   UNL     1      -0.014  10.250  18.715  0.00  0.00    +0.000 A 
ATOM     24  C   UNL     1       0.141   9.811  20.026  0.00  0.00    +0.000 A 
ATOM     25  C   UNL     1       1.063   8.809  20.326  0.00  0.00    +0.000 A 
ENDBRANCH  19  20
ENDBRANCH   5  19
TORSDOF 7
ENDMDL
