MODEL 1
REMARK VINA RESULT:      -8.7      0.000      0.000
REMARK  Name = 
REMARK  9 active torsions:
REMARK  status: ('A' for Active; 'I' for Inactive)
REMARK    1  A    between atoms: C_2  and  C_3
REMARK    2  A    between atoms: C_3  and  O_4
REMARK    3  A    between atoms: O_4  and  C_5
REMARK    4  A    between atoms: C_5  and  C_7
REMARK    5  A    between atoms: C_9  and  N_10
REMARK    6  A    between atoms: C_15  and  N_16
REMARK    7  A    between atoms: N_16  and  C_17
REMARK    8  A    between atoms: C_17  and  C_18
REMARK    9  A    between atoms: N_24  and  C_25
REMARK                            x       y       z     vdW  Elec       q    Type
REMARK                         _______ _______ _______ _____ _____    ______ ____
ROOT
ATOM      1  C   UNL     1       6.951   4.861  16.736  0.00  0.00    +0.000 A 
ATOM      2  C   UNL     1       7.467   5.085  15.442  0.00  0.00    +0.000 A 
ATOM      3  C   UNL     1       6.827   4.554  14.322  0.00  0.00    +0.000 A 
ATOM      4  C   UNL     1       5.678   3.784  14.474  0.00  0.00    +0.000 A 
ATOM      5  C   UNL     1       5.170   3.558  15.756  0.00  0.00    +0.000 A 
ATOM      6  C   UNL     1       5.769   4.096  16.910  0.00  0.00    +0.000 A 
ENDROOT
BRANCH   3   7
ATOM      7  N   UNL     1       7.350   4.833  12.981  0.00  0.00    +0.000 N 
ATOM      8  O   UNL     1       8.139   5.774  12.854  0.00  0.00    +0.000 OA
ATOM      9  O   UNL     1       6.967   4.104  12.052  0.00  0.00    +0.000 OA
ENDBRANCH   3   7
BRANCH   1  10
ATOM     10  C   UNL     1       7.653   5.528  17.887  0.00  0.00    +0.000 C 
ATOM     11  O   UNL     1       7.793   5.049  18.999  0.00  0.00    +0.000 OA
BRANCH  10  12
ATOM     12  O   UNL     1       7.959   6.801  17.529  0.00  0.00    +0.000 OA
BRANCH  12  13
ATOM     13  C   UNL     1       8.393   7.694  18.565  0.00  0.00    +0.000 C 
BRANCH  13  15
ATOM     14  O   UNL     1       7.381   9.584  17.423  0.00  0.00    +0.000 OA
ATOM     15  C   UNL     1       8.273   9.172  18.157  0.00  0.00    +0.000 C 
ATOM     16  N   UNL     1       9.252   9.970  18.702  0.00  0.00    +0.000 N 
ATOM     17  H   UNL     1      10.023   9.486  19.161  0.00  0.00    +0.000 HD
BRANCH  16  18
ATOM     18  C   UNL     1       9.391  11.406  18.497  0.00  0.00    +0.000 C 
ATOM     19  C   UNL     1       9.282  12.222  19.794  0.00  0.00    +0.000 C 
ATOM     20  C   UNL     1      10.412  11.898  20.766  0.00  0.00    +0.000 C 
ATOM     21  C   UNL     1      11.781  12.125  20.128  0.00  0.00    +0.000 C 
ATOM     22  C   UNL     1      11.927  11.421  18.782  0.00  0.00    +0.000 C 
ATOM     23  C   UNL     1      10.749  11.693  17.837  0.00  0.00    +0.000 C 
ENDBRANCH  16  18
ENDBRANCH  13  15
ENDBRANCH  12  13
ENDBRANCH  10  12
ENDBRANCH   1  10
BRANCH   6  24
ATOM     24  N   UNL     1       5.230   3.840  18.179  0.00  0.00    +0.000 N 
ATOM     25  H   UNL     1       5.956   3.568  18.848  0.00  0.00    +0.000 HD
BRANCH  24  26
ATOM     26  C   UNL     1       4.234   4.745  18.754  0.00  0.00    +0.000 C 
BRANCH  26  27
ATOM     27  C   UNL     1       2.940   4.057  19.120  0.00  0.00    +0.000 A 
ATOM     28  C   UNL     1       2.072   4.696  20.024  0.00  0.00    +0.000 A 
ATOM     29  C   UNL     1       0.878   4.092  20.419  0.00  0.00    +0.000 A 
ATOM     30  C   UNL     1       0.525   2.851  19.899  0.00  0.00    +0.000 A 
ATOM     31  C   UNL     1       1.347   2.231  18.957  0.00  0.00    +0.000 A 
ATOM     32  C   UNL     1       2.541   2.838  18.560  0.00  0.00    +0.000 A 
ENDBRANCH  26  27
ENDBRANCH  24  26
ENDBRANCH   6  24
TORSDOF 9
ENDMDL
MODEL 2
REMARK VINA RESULT:      -8.4      0.952      1.315
REMARK  Name = 
REMARK  9 active torsions:
REMARK  status: ('A' for Active; 'I' for Inactive)
REMARK    1  A    between atoms: C_2  and  C_3
REMARK    2  A    between atoms: C_3  and  O_4
REMARK    3  A    between atoms: O_4  and  C_5
REMARK    4  A    between atoms: C_5  and  C_7
REMARK    5  A    between atoms: C_9  and  N_10
REMARK    6  A    between atoms: C_15  and  N_16
REMARK    7  A    between atoms: N_16  and  C_17
REMARK    8  A    between atoms: C_17  and  C_18
REMARK    9  A    between atoms: N_24  and  C_25
REMARK                            x       y       z     vdW  Elec       q    Type
REMARK                         _______ _______ _______ _____ _____    ______ ____
ROOT
ATOM      1  C   UNL     1       6.693   5.367  16.781  0.00  0.00    +0.000 A 
ATOM      2  C   UNL     1       7.446   5.582  15.607  0.00  0.00    +0.000 A 
ATOM      3  C   UNL     1       7.096   4.948  14.414  0.00  0.00    +0.000 A 
ATOM      4  C   UNL     1       6.005   4.084  14.377  0.00  0.00    +0.000 A 
ATOM      5  C   UNL     1       5.263   3.867  15.541  0.00  0.00    +0.000 A 
ATOM      6  C   UNL     1       5.566   4.506  16.758  0.00  0.00    +0.000 A 
ENDROOT
BRANCH   3   7
ATOM      7  N   UNL     1       7.860   5.216  13.193  0.00  0.00    +0.000 N 
ATOM      8  O   UNL     1       7.501   4.655  12.153  0.00  0.00    +0.000 OA
ATOM      9  O   UNL     1       8.826   5.991  13.278  0.00  0.00    +0.000 OA
ENDBRANCH   3   7
BRANCH   1  10
ATOM     10  C   UNL     1       7.086   6.143  18.008  0.00  0.00    +0.000 C 
ATOM     11  O   UNL     1       6.949   5.761  19.156  0.00  0.00    +0.000 OA
BRANCH  10  12
ATOM     12  O   UNL     1       7.467   7.390  17.628  0.00  0.00    +0.000 OA
BRANCH  12  13
ATOM     13  C   UNL     1       8.478   8.041  18.411  0.00  0.00    +0.000 C 
BRANCH  13  15
ATOM     14  O   UNL     1       7.696  10.150  17.492  0.00  0.00    +0.000 OA
ATOM     15  C   UNL     1       8.404   9.574  18.312  0.00  0.00    +0.000 C 
ATOM     16  N   UNL     1       9.199  10.219  19.231  0.00  0.00    +0.000 N 
ATOM     17  H   UNL     1       9.857   9.634  19.745  0.00  0.00    +0.000 HD
BRANCH  16  18
ATOM     18  C   UNL     1       9.331  11.663  19.376  0.00  0.00    +0.000 C 
ATOM     19  C   UNL     1      10.356  12.079  20.442  0.00  0.00    +0.000 C 
ATOM     20  C   UNL     1      11.769  11.634  20.077  0.00  0.00    +0.000 C 
ATOM     21  C   UNL     1      12.193  12.180  18.715  0.00  0.00    +0.000 C 
ATOM     22  C   UNL     1      11.170  11.889  17.620  0.00  0.00    +0.000 C 
ATOM     23  C   UNL     1       9.740  12.271  18.025  0.00  0.00    +0.000 C 
ENDBRANCH  16  18
ENDBRANCH  13  15
ENDBRANCH  12  13
ENDBRANCH  10  12
ENDBRANCH   1  10
BRANCH   6  24
ATOM     24  N   UNL     1       4.799   4.256  17.905  0.00  0.00    +0.000 N 
ATOM     25  H   UNL     1       4.371   5.115  18.265  0.00  0.00    +0.000 HD
BRANCH  24  26
ATOM     26  C   UNL     1       3.896   3.106  17.952  0.00  0.00    +0.000 C 
BRANCH  26  27
ATOM     27  C   UNL     1       2.965   3.122  19.142  0.00  0.00    +0.000 A 
ATOM     28  C   UNL     1       3.466   2.719  20.392  0.00  0.00    +0.000 A 
ATOM     29  C   UNL     1       2.641   2.687  21.517  0.00  0.00    +0.000 A 
ATOM     30  C   UNL     1       1.310   3.079  21.411  0.00  0.00    +0.000 A 
ATOM     31  C   UNL     1       0.814   3.537  20.190  0.00  0.00    +0.000 A 
ATOM     32  C   UNL     1       1.641   3.572  19.065  0.00  0.00    +0.000 A 
ENDBRANCH  26  27
ENDBRANCH  24  26
ENDBRANCH   6  24
TORSDOF 9
ENDMDL
MODEL 3
REMARK VINA RESULT:      -8.4      0.794      1.190
REMARK  Name = 
REMARK  9 active torsions:
REMARK  status: ('A' for Active; 'I' for Inactive)
REMARK    1  A    between atoms: C_2  and  C_3
REMARK    2  A    between atoms: C_3  and  O_4
REMARK    3  A    between atoms: O_4  and  C_5
REMARK    4  A    between atoms: C_5  and  C_7
REMARK    5  A    between atoms: C_9  and  N_10
REMARK    6  A    between atoms: C_15  and  N_16
REMARK    7  A    between atoms: N_16  and  C_17
REMARK    8  A    between atoms: C_17  and  C_18
REMARK    9  A    between atoms: N_24  and  C_25
REMARK                            x       y       z     vdW  Elec       q    Type
REMARK                         _______ _______ _______ _____ _____    ______ ____
ROOT
ATOM      1  C   UNL     1       6.831   5.325  17.489  0.00  0.00    +0.000 A 
ATOM      2  C   UNL     1       7.361   5.328  16.181  0.00  0.00    +0.000 A 
ATOM      3  C   UNL     1       6.611   4.841  15.111  0.00  0.00    +0.000 A 
ATOM      4  C   UNL     1       5.334   4.331  15.328  0.00  0.00    +0.000 A 
ATOM      5  C   UNL     1       4.812   4.322  16.624  0.00  0.00    +0.000 A 
ATOM      6  C   UNL     1       5.524   4.829  17.728  0.00  0.00    +0.000 A 
ENDROOT
BRANCH   3   7
ATOM      7  N   UNL     1       7.157   4.893  13.751  0.00  0.00    +0.000 N 
ATOM      8  O   UNL     1       8.087   5.675  13.533  0.00  0.00    +0.000 OA
ATOM      9  O   UNL     1       6.649   4.146  12.899  0.00  0.00    +0.000 OA
ENDBRANCH   3   7
BRANCH   1  10
ATOM     10  C   UNL     1       7.671   5.936  18.578  0.00  0.00    +0.000 C 
ATOM     11  O   UNL     1       7.684   5.575  19.741  0.00  0.00    +0.000 OA
BRANCH  10  12
ATOM     12  O   UNL     1       8.280   7.044  18.084  0.00  0.00    +0.000 OA
BRANCH  12  13
ATOM     13  C   UNL     1       8.611   8.087  19.013  0.00  0.00    +0.000 C 
BRANCH  13  15
ATOM     14  O   UNL     1       7.717   9.749  17.483  0.00  0.00    +0.000 OA
ATOM     15  C   UNL     1       8.502   9.488  18.390  0.00  0.00    +0.000 C 
ATOM     16  N   UNL     1       9.360  10.404  18.953  0.00  0.00    +0.000 N 
ATOM     17  H   UNL     1      10.070  10.028  19.581  0.00  0.00    +0.000 HD
BRANCH  16  18
ATOM     18  C   UNL     1       9.479  11.805  18.570  0.00  0.00    +0.000 C 
ATOM     19  C   UNL     1       9.602  12.757  19.769  0.00  0.00    +0.000 C 
ATOM     20  C   UNL     1      10.877  12.504  20.568  0.00  0.00    +0.000 C 
ATOM     21  C   UNL     1      12.120  12.621  19.689  0.00  0.00    +0.000 C 
ATOM     22  C   UNL     1      12.027  11.773  18.422  0.00  0.00    +0.000 C 
ATOM     23  C   UNL     1      10.709  11.979  17.664  0.00  0.00    +0.000 C 
ENDBRANCH  16  18
ENDBRANCH  13  15
ENDBRANCH  12  13
ENDBRANCH  10  12
ENDBRANCH   1  10
BRANCH   6  24
ATOM     24  N   UNL     1       4.966   4.796  19.013  0.00  0.00    +0.000 N 
ATOM     25  H   UNL     1       4.246   5.516  19.129  0.00  0.00    +0.000 HD
BRANCH  24  26
ATOM     26  C   UNL     1       4.598   3.519  19.625  0.00  0.00    +0.000 C 
BRANCH  26  27
ATOM     27  C   UNL     1       3.105   3.295  19.695  0.00  0.00    +0.000 A 
ATOM     28  C   UNL     1       2.526   2.356  18.824  0.00  0.00    +0.000 A 
ATOM     29  C   UNL     1       1.148   2.132  18.827  0.00  0.00    +0.000 A 
ATOM     30  C   UNL     1       0.336   2.826  19.717  0.00  0.00    +0.000 A 
ATOM     31  C   UNL     1       0.904   3.718  20.629  0.00  0.00    +0.000 A 
ATOM     32  C   UNL     1       2.282   3.940  20.627  0.00  0.00    +0.000 A 
ENDBRANCH  26  27
ENDBRANCH  24  26
ENDBRANCH   6  24
TORSDOF 9
ENDMDL
MODEL 4
REMARK VINA RESULT:      -8.3      2.169      5.314
REMARK  Name = 
REMARK  9 active torsions:
REMARK  status: ('A' for Active; 'I' for Inactive)
REMARK    1  A    between atoms: C_2  and  C_3
REMARK    2  A    between atoms: C_3  and  O_4
REMARK    3  A    between atoms: O_4  and  C_5
REMARK    4  A    between atoms: C_5  and  C_7
REMARK    5  A    between atoms: C_9  and  N_10
REMARK    6  A    between atoms: C_15  and  N_16
REMARK    7  A    between atoms: N_16  and  C_17
REMARK    8  A    between atoms: C_17  and  C_18
REMARK    9  A    between atoms: N_24  and  C_25
REMARK                            x       y       z     vdW  Elec       q    Type
REMARK                         _______ _______ _______ _____ _____    ______ ____
ROOT
ATOM      1  C   UNL     1       5.657   5.132  18.783  0.00  0.00    +0.000 A 
ATOM      2  C   UNL     1       4.592   5.202  19.706  0.00  0.00    +0.000 A 
ATOM      3  C   UNL     1       3.346   4.658  19.394  0.00  0.00    +0.000 A 
ATOM      4  C   UNL     1       3.138   4.053  18.158  0.00  0.00    +0.000 A 
ATOM      5  C   UNL     1       4.191   3.990  17.241  0.00  0.00    +0.000 A 
ATOM      6  C   UNL     1       5.471   4.502  17.526  0.00  0.00    +0.000 A 
ENDROOT
BRANCH   3   7
ATOM      7  N   UNL     1       2.263   4.698  20.382  0.00  0.00    +0.000 N 
ATOM      8  O   UNL     1       2.022   3.665  21.014  0.00  0.00    +0.000 OA
ATOM      9  O   UNL     1       1.653   5.770  20.521  0.00  0.00    +0.000 OA
ENDBRANCH   3   7
BRANCH   1  10
ATOM     10  C   UNL     1       6.990   5.674  19.220  0.00  0.00    +0.000 C 
ATOM     11  O   UNL     1       7.568   5.373  20.249  0.00  0.00    +0.000 OA
BRANCH  10  12
ATOM     12  O   UNL     1       7.358   6.662  18.365  0.00  0.00    +0.000 OA
BRANCH  12  13
ATOM     13  C   UNL     1       8.466   7.490  18.747  0.00  0.00    +0.000 C 
BRANCH  13  15
ATOM     14  O   UNL     1       7.653   9.200  17.225  0.00  0.00    +0.000 OA
ATOM     15  C   UNL     1       8.352   8.920  18.194  0.00  0.00    +0.000 C 
ATOM     16  N   UNL     1       9.099   9.838  18.895  0.00  0.00    +0.000 N 
ATOM     17  H   UNL     1       9.758   9.457  19.573  0.00  0.00    +0.000 HD
BRANCH  16  18
ATOM     18  C   UNL     1       9.186  11.264  18.605  0.00  0.00    +0.000 C 
ATOM     19  C   UNL     1       9.162  12.145  19.863  0.00  0.00    +0.000 C 
ATOM     20  C   UNL     1      10.374  11.896  20.755  0.00  0.00    +0.000 C 
ATOM     21  C   UNL     1      11.681  12.117  19.997  0.00  0.00    +0.000 C 
ATOM     22  C   UNL     1      11.736  11.344  18.682  0.00  0.00    +0.000 C 
ATOM     23  C   UNL     1      10.480  11.542  17.823  0.00  0.00    +0.000 C 
ENDBRANCH  16  18
ENDBRANCH  13  15
ENDBRANCH  12  13
ENDBRANCH  10  12
ENDBRANCH   1  10
BRANCH   6  24
ATOM     24  N   UNL     1       6.498   4.422  16.575  0.00  0.00    +0.000 N 
ATOM     25  H   UNL     1       6.660   3.456  16.277  0.00  0.00    +0.000 HD
BRANCH  24  26
ATOM     26  C   UNL     1       6.555   5.378  15.469  0.00  0.00    +0.000 C 
BRANCH  26  27
ATOM     27  C   UNL     1       6.535   4.723  14.108  0.00  0.00    +0.000 A 
ATOM     28  C   UNL     1       7.546   5.054  13.189  0.00  0.00    +0.000 A 
ATOM     29  C   UNL     1       7.557   4.500  11.908  0.00  0.00    +0.000 A 
ATOM     30  C   UNL     1       6.571   3.592  11.538  0.00  0.00    +0.000 A 
ATOM     31  C   UNL     1       5.595   3.210  12.459  0.00  0.00    +0.000 A 
ATOM     32  C   UNL     1       5.585   3.762  13.741  0.00  0.00    +0.000 A 
ENDBRANCH  26  27
ENDBRANCH  24  26
ENDBRANCH   6  24
TORSDOF 9
ENDMDL
MODEL 5
REMARK VINA RESULT:      -8.3      2.169      5.267
REMARK  Name = 
REMARK  9 active torsions:
REMARK  status: ('A' for Active; 'I' for Inactive)
REMARK    1  A    between atoms: C_2  and  C_3
REMARK    2  A    between atoms: C_3  and  O_4
REMARK    3  A    between atoms: O_4  and  C_5
REMARK    4  A    between atoms: C_5  and  C_7
REMARK    5  A    between atoms: C_9  and  N_10
REMARK    6  A    between atoms: C_15  and  N_16
REMARK    7  A    between atoms: N_16  and  C_17
REMARK    8  A    between atoms: C_17  and  C_18
REMARK    9  A    between atoms: N_24  and  C_25
REMARK                            x       y       z     vdW  Elec       q    Type
REMARK                         _______ _______ _______ _____ _____    ______ ____
ROOT
ATOM      1  C   UNL     1       5.688   4.950  18.756  0.00  0.00    +0.000 A 
ATOM      2  C   UNL     1       4.640   4.810  19.691  0.00  0.00    +0.000 A 
ATOM      3  C   UNL     1       3.473   4.126  19.351  0.00  0.00    +0.000 A 
ATOM      4  C   UNL     1       3.325   3.588  18.076  0.00  0.00    +0.000 A 
ATOM      5  C   UNL     1       4.360   3.733  17.148  0.00  0.00    +0.000 A 
ATOM      6  C   UNL     1       5.565   4.391  17.458  0.00  0.00    +0.000 A 
ENDROOT
BRANCH   3   7
ATOM      7  N   UNL     1       2.413   3.949  20.347  0.00  0.00    +0.000 N 
ATOM      8  O   UNL     1       2.298   4.809  21.226  0.00  0.00    +0.000 OA
ATOM      9  O   UNL     1       1.694   2.941  20.249  0.00  0.00    +0.000 OA
ENDBRANCH   3   7
BRANCH   1  10
ATOM     10  C   UNL     1       6.944   5.635  19.221  0.00  0.00    +0.000 C 
ATOM     11  O   UNL     1       7.554   5.367  20.241  0.00  0.00    +0.000 OA
BRANCH  10  12
ATOM     12  O   UNL     1       7.188   6.692  18.406  0.00  0.00    +0.000 OA
BRANCH  12  13
ATOM     13  C   UNL     1       8.376   7.459  18.653  0.00  0.00    +0.000 C 
BRANCH  13  15
ATOM     14  O   UNL     1       7.515   9.221  17.220  0.00  0.00    +0.000 OA
ATOM     15  C   UNL     1       8.263   8.904  18.139  0.00  0.00    +0.000 C 
ATOM     16  N   UNL     1       9.072   9.788  18.815  0.00  0.00    +0.000 N 
ATOM     17  H   UNL     1       9.760   9.377  19.445  0.00  0.00    +0.000 HD
BRANCH  16  18
ATOM     18  C   UNL     1       9.175  11.218  18.551  0.00  0.00    +0.000 C 
ATOM     19  C   UNL     1       9.153  12.076  19.825  0.00  0.00    +0.000 C 
ATOM     20  C   UNL     1      10.357  11.798  20.719  0.00  0.00    +0.000 C 
ATOM     21  C   UNL     1      11.671  12.019  19.972  0.00  0.00    +0.000 C 
ATOM     22  C   UNL     1      11.725  11.270  18.643  0.00  0.00    +0.000 C 
ATOM     23  C   UNL     1      10.476  11.497  17.781  0.00  0.00    +0.000 C 
ENDBRANCH  16  18
ENDBRANCH  13  15
ENDBRANCH  12  13
ENDBRANCH  10  12
ENDBRANCH   1  10
BRANCH   6  24
ATOM     24  N   UNL     1       6.576   4.519  16.496  0.00  0.00    +0.000 N 
ATOM     25  H   UNL     1       6.947   3.606  16.217  0.00  0.00    +0.000 HD
BRANCH  24  26
ATOM     26  C   UNL     1       6.409   5.436  15.368  0.00  0.00    +0.000 C 
BRANCH  26  27
ATOM     27  C   UNL     1       6.469   4.751  14.023  0.00  0.00    +0.000 A 
ATOM     28  C   UNL     1       5.416   3.892  13.660  0.00  0.00    +0.000 A 
ATOM     29  C   UNL     1       5.436   3.212  12.442  0.00  0.00    +0.000 A 
ATOM     30  C   UNL     1       6.497   3.398  11.562  0.00  0.00    +0.000 A 
ATOM     31  C   UNL     1       7.520   4.291  11.883  0.00  0.00    +0.000 A 
ATOM     32  C   UNL     1       7.498   4.974  13.100  0.00  0.00    +0.000 A 
ENDBRANCH  26  27
ENDBRANCH  24  26
ENDBRANCH   6  24
TORSDOF 9
ENDMDL
MODEL 6
REMARK VINA RESULT:      -8.2      0.962      1.038
REMARK  Name = 
REMARK  9 active torsions:
REMARK  status: ('A' for Active; 'I' for Inactive)
REMARK    1  A    between atoms: C_2  and  C_3
REMARK    2  A    between atoms: C_3  and  O_4
REMARK    3  A    between atoms: O_4  and  C_5
REMARK    4  A    between atoms: C_5  and  C_7
REMARK    5  A    between atoms: C_9  and  N_10
REMARK    6  A    between atoms: C_15  and  N_16
REMARK    7  A    between atoms: N_16  and  C_17
REMARK    8  A    between atoms: C_17  and  C_18
REMARK    9  A    between atoms: N_24  and  C_25
REMARK                            x       y       z     vdW  Elec       q    Type
REMARK                         _______ _______ _______ _____ _____    ______ ____
ROOT
ATOM      1  C   UNL     1       6.764   5.645  17.048  0.00  0.00    +0.000 A 
ATOM      2  C   UNL     1       7.380   5.520  15.785  0.00  0.00    +0.000 A 
ATOM      3  C   UNL     1       6.699   4.932  14.719  0.00  0.00    +0.000 A 
ATOM      4  C   UNL     1       5.407   4.447  14.898  0.00  0.00    +0.000 A 
ATOM      5  C   UNL     1       4.799   4.565  16.151  0.00  0.00    +0.000 A 
ATOM      6  C   UNL     1       5.440   5.176  17.245  0.00  0.00    +0.000 A 
ENDROOT
BRANCH   3   7
ATOM      7  N   UNL     1       7.336   4.850  13.401  0.00  0.00    +0.000 N 
ATOM      8  O   UNL     1       8.261   5.631  13.158  0.00  0.00    +0.000 OA
ATOM      9  O   UNL     1       6.904   3.999  12.606  0.00  0.00    +0.000 OA
ENDBRANCH   3   7
BRANCH   1  10
ATOM     10  C   UNL     1       7.533   6.358  18.127  0.00  0.00    +0.000 C 
ATOM     11  O   UNL     1       7.729   5.931  19.250  0.00  0.00    +0.000 OA
BRANCH  10  12
ATOM     12  O   UNL     1       7.829   7.610  17.692  0.00  0.00    +0.000 OA
BRANCH  12  13
ATOM     13  C   UNL     1       8.513   8.482  18.603  0.00  0.00    +0.000 C 
BRANCH  13  15
ATOM     14  O   UNL     1       7.655  10.500  17.557  0.00  0.00    +0.000 OA
ATOM     15  C   UNL     1       8.605   9.926  18.081  0.00  0.00    +0.000 C 
ATOM     16  N   UNL     1       9.842  10.497  18.268  0.00  0.00    +0.000 N 
ATOM     17  H   UNL     1      10.587   9.868  18.566  0.00  0.00    +0.000 HD
BRANCH  16  18
ATOM     18  C   UNL     1      10.222  11.849  17.879  0.00  0.00    +0.000 C 
ATOM     19  C   UNL     1       9.401  12.941  18.580  0.00  0.00    +0.000 C 
ATOM     20  C   UNL     1       9.623  12.938  20.090  0.00  0.00    +0.000 C 
ATOM     21  C   UNL     1      11.100  13.101  20.438  0.00  0.00    +0.000 C 
ATOM     22  C   UNL     1      11.992  12.108  19.699  0.00  0.00    +0.000 C 
ATOM     23  C   UNL     1      11.712  12.064  18.191  0.00  0.00    +0.000 C 
ENDBRANCH  16  18
ENDBRANCH  13  15
ENDBRANCH  12  13
ENDBRANCH  10  12
ENDBRANCH   1  10
BRANCH   6  24
ATOM     24  N   UNL     1       4.796   5.270  18.487  0.00  0.00    +0.000 N 
ATOM     25  H   UNL     1       5.370   5.772  19.171  0.00  0.00    +0.000 HD
BRANCH  24  26
ATOM     26  C   UNL     1       3.379   5.628  18.558  0.00  0.00    +0.000 C 
BRANCH  26  27
ATOM     27  C   UNL     1       2.545   4.627  19.323  0.00  0.00    +0.000 A 
ATOM     28  C   UNL     1       2.731   4.521  20.713  0.00  0.00    +0.000 A 
ATOM     29  C   UNL     1       2.008   3.592  21.463  0.00  0.00    +0.000 A 
ATOM     30  C   UNL     1       1.073   2.775  20.837  0.00  0.00    +0.000 A 
ATOM     31  C   UNL     1       0.835   2.910  19.469  0.00  0.00    +0.000 A 
ATOM     32  C   UNL     1       1.557   3.840  18.719  0.00  0.00    +0.000 A 
ENDBRANCH  26  27
ENDBRANCH  24  26
ENDBRANCH   6  24
TORSDOF 9
ENDMDL
MODEL 7
REMARK VINA RESULT:      -8.2      1.684      2.395
REMARK  Name = 
REMARK  9 active torsions:
REMARK  status: ('A' for Active; 'I' for Inactive)
REMARK    1  A    between atoms: C_2  and  C_3
REMARK    2  A    between atoms: C_3  and  O_4
REMARK    3  A    between atoms: O_4  and  C_5
REMARK    4  A    between atoms: C_5  and  C_7
REMARK    5  A    between atoms: C_9  and  N_10
REMARK    6  A    between atoms: C_15  and  N_16
REMARK    7  A    between atoms: N_16  and  C_17
REMARK    8  A    between atoms: C_17  and  C_18
REMARK    9  A    between atoms: N_24  and  C_25
REMARK                            x       y       z     vdW  Elec       q    Type
REMARK                         _______ _______ _______ _____ _____    ______ ____
ROOT
ATOM      1  C   UNL     1       6.362   5.108  17.896  0.00  0.00    +0.000 A 
ATOM      2  C   UNL     1       6.951   5.032  16.616  0.00  0.00    +0.000 A 
ATOM      3  C   UNL     1       6.236   4.514  15.536  0.00  0.00    +0.000 A 
ATOM      4  C   UNL     1       4.935   4.053  15.716  0.00  0.00    +0.000 A 
ATOM      5  C   UNL     1       4.354   4.123  16.984  0.00  0.00    +0.000 A 
ATOM      6  C   UNL     1       5.030   4.663  18.095  0.00  0.00    +0.000 A 
ENDROOT
BRANCH   3   7
ATOM      7  N   UNL     1       6.846   4.483  14.203  0.00  0.00    +0.000 N 
ATOM      8  O   UNL     1       6.415   3.659  13.390  0.00  0.00    +0.000 OA
ATOM      9  O   UNL     1       7.763   5.288  13.972  0.00  0.00    +0.000 OA
ENDBRANCH   3   7
BRANCH   1  10
ATOM     10  C   UNL     1       7.168   5.747  18.993  0.00  0.00    +0.000 C 
ATOM     11  O   UNL     1       7.608   5.168  19.971  0.00  0.00    +0.000 OA
BRANCH  10  12
ATOM     12  O   UNL     1       7.185   7.089  18.793  0.00  0.00    +0.000 OA
BRANCH  12  13
ATOM     13  C   UNL     1       8.458   7.708  18.556  0.00  0.00    +0.000 C 
BRANCH  13  15
ATOM     14  O   UNL     1       7.531   9.563  17.292  0.00  0.00    +0.000 OA
ATOM     15  C   UNL     1       8.330   9.183  18.142  0.00  0.00    +0.000 C 
ATOM     16  N   UNL     1       9.188  10.017  18.819  0.00  0.00    +0.000 N 
ATOM     17  H   UNL     1       9.910   9.562  19.378  0.00  0.00    +0.000 HD
BRANCH  16  18
ATOM     18  C   UNL     1       9.291  11.460  18.640  0.00  0.00    +0.000 C 
ATOM     19  C   UNL     1       9.279  12.242  19.962  0.00  0.00    +0.000 C 
ATOM     20  C   UNL     1      10.490  11.911  20.829  0.00  0.00    +0.000 C 
ATOM     21  C   UNL     1      11.798  12.175  20.088  0.00  0.00    +0.000 C 
ATOM     22  C   UNL     1      11.842  11.506  18.716  0.00  0.00    +0.000 C 
ATOM     23  C   UNL     1      10.587  11.783  17.878  0.00  0.00    +0.000 C 
ENDBRANCH  16  18
ENDBRANCH  13  15
ENDBRANCH  12  13
ENDBRANCH  10  12
ENDBRANCH   1  10
BRANCH   6  24
ATOM     24  N   UNL     1       4.411   4.709  19.352  0.00  0.00    +0.000 N 
ATOM     25  H   UNL     1       4.905   5.340  19.991  0.00  0.00    +0.000 HD
BRANCH  24  26
ATOM     26  C   UNL     1       2.956   4.818  19.455  0.00  0.00    +0.000 C 
BRANCH  26  27
ATOM     27  C   UNL     1       2.457   6.243  19.424  0.00  0.00    +0.000 A 
ATOM     28  C   UNL     1       2.539   6.957  18.216  0.00  0.00    +0.000 A 
ATOM     29  C   UNL     1       2.119   8.286  18.140  0.00  0.00    +0.000 A 
ATOM     30  C   UNL     1       1.591   8.910  19.265  0.00  0.00    +0.000 A 
ATOM     31  C   UNL     1       1.449   8.197  20.455  0.00  0.00    +0.000 A 
ATOM     32  C   UNL     1       1.866   6.867  20.530  0.00  0.00    +0.000 A 
ENDBRANCH  26  27
ENDBRANCH  24  26
ENDBRANCH   6  24
TORSDOF 9
ENDMDL
MODEL 8
REMARK VINA RESULT:      -8.2      4.657      6.470
REMARK  Name = 
REMARK  9 active torsions:
REMARK  status: ('A' for Active; 'I' for Inactive)
REMARK    1  A    between atoms: C_2  and  C_3
REMARK    2  A    between atoms: C_3  and  O_4
REMARK    3  A    between atoms: O_4  and  C_5
REMARK    4  A    between atoms: C_5  and  C_7
REMARK    5  A    between atoms: C_9  and  N_10
REMARK    6  A    between atoms: C_15  and  N_16
REMARK    7  A    between atoms: N_16  and  C_17
REMARK    8  A    between atoms: C_17  and  C_18
REMARK    9  A    between atoms: N_24  and  C_25
REMARK                            x       y       z     vdW  Elec       q    Type
REMARK                         _______ _______ _______ _____ _____    ______ ____
ROOT
ATOM      1  C   UNL     1       4.013   5.507  17.711  0.00  0.00    +0.000 A 
ATOM      2  C   UNL     1       5.123   6.347  17.941  0.00  0.00    +0.000 A 
ATOM      3  C   UNL     1       6.399   5.965  17.525  0.00  0.00    +0.000 A 
ATOM      4  C   UNL     1       6.589   4.741  16.890  0.00  0.00    +0.000 A 
ATOM      5  C   UNL     1       5.491   3.907  16.668  0.00  0.00    +0.000 A 
ATOM      6  C   UNL     1       4.183   4.265  17.048  0.00  0.00    +0.000 A 
ENDROOT
BRANCH   3   7
ATOM      7  N   UNL     1       7.535   6.868  17.730  0.00  0.00    +0.000 N 
ATOM      8  O   UNL     1       8.173   6.763  18.783  0.00  0.00    +0.000 OA
ATOM      9  O   UNL     1       7.787   7.688  16.832  0.00  0.00    +0.000 OA
ENDBRANCH   3   7
BRANCH   1  10
ATOM     10  C   UNL     1       2.659   6.020  18.122  0.00  0.00    +0.000 C 
ATOM     11  O   UNL     1       1.592   5.568  17.747  0.00  0.00    +0.000 OA
BRANCH  10  12
ATOM     12  O   UNL     1       2.829   7.158  18.842  0.00  0.00    +0.000 OA
BRANCH  12  13
ATOM     13  C   UNL     1       2.105   8.323  18.419  0.00  0.00    +0.000 C 
BRANCH  13  15
ATOM     14  O   UNL     1       1.378   8.581  20.723  0.00  0.00    +0.000 OA
ATOM     15  C   UNL     1       1.286   8.955  19.557  0.00  0.00    +0.000 C 
ATOM     16  N   UNL     1       0.459   9.970  19.137  0.00  0.00    +0.000 N 
ATOM     17  H   UNL     1       0.354  10.076  18.128  0.00  0.00    +0.000 HD
BRANCH  16  18
ATOM     18  C   UNL     1      -0.429  10.751  19.988  0.00  0.00    +0.000 C 
ATOM     19  C   UNL     1       0.260  11.953  20.651  0.00  0.00    +0.000 C 
ATOM     20  C   UNL     1       0.741  12.971  19.622  0.00  0.00    +0.000 C 
ATOM     21  C   UNL     1      -0.405  13.458  18.739  0.00  0.00    +0.000 C 
ATOM     22  C   UNL     1      -1.201  12.311  18.121  0.00  0.00    +0.000 C 
ATOM     23  C   UNL     1      -1.617  11.253  19.152  0.00  0.00    +0.000 C 
ENDBRANCH  16  18
ENDBRANCH  13  15
ENDBRANCH  12  13
ENDBRANCH  10  12
ENDBRANCH   1  10
BRANCH   6  24
ATOM     24  N   UNL     1       3.109   3.396  16.811  0.00  0.00    +0.000 N 
ATOM     25  H   UNL     1       2.970   3.235  15.809  0.00  0.00    +0.000 HD
BRANCH  24  26
ATOM     26  C   UNL     1       2.952   2.182  17.611  0.00  0.00    +0.000 C 
BRANCH  26  27
ATOM     27  C   UNL     1       2.526   2.453  19.035  0.00  0.00    +0.000 A 
ATOM     28  C   UNL     1       1.172   2.734  19.289  0.00  0.00    +0.000 A 
ATOM     29  C   UNL     1       0.731   3.020  20.582  0.00  0.00    +0.000 A 
ATOM     30  C   UNL     1       1.634   3.007  21.640  0.00  0.00    +0.000 A 
ATOM     31  C   UNL     1       2.969   2.672  21.413  0.00  0.00    +0.000 A 
ATOM     32  C   UNL     1       3.409   2.383  20.120  0.00  0.00    +0.000 A 
ENDBRANCH  26  27
ENDBRANCH  24  26
ENDBRANCH   6  24
TORSDOF 9
ENDMDL
MODEL 9
REMARK VINA RESULT:      -8.1      1.175      1.775
REMARK  Name = 
REMARK  9 active torsions:
REMARK  status: ('A' for Active; 'I' for Inactive)
REMARK    1  A    between atoms: C_2  and  C_3
REMARK    2  A    between atoms: C_3  and  O_4
REMARK    3  A    between atoms: O_4  and  C_5
REMARK    4  A    between atoms: C_5  and  C_7
REMARK    5  A    between atoms: C_9  and  N_10
REMARK    6  A    between atoms: C_15  and  N_16
REMARK    7  A    between atoms: N_16  and  C_17
REMARK    8  A    between atoms: C_17  and  C_18
REMARK    9  A    between atoms: N_24  and  C_25
REMARK                            x       y       z     vdW  Elec       q    Type
REMARK                         _______ _______ _______ _____ _____    ______ ____
ROOT
ATOM      1  C   UNL     1       6.798   5.829  16.830  0.00  0.00    +0.000 A 
ATOM      2  C   UNL     1       7.324   5.607  15.539  0.00  0.00    +0.000 A 
ATOM      3  C   UNL     1       6.597   4.887  14.591  0.00  0.00    +0.000 A 
ATOM      4  C   UNL     1       5.348   4.366  14.918  0.00  0.00    +0.000 A 
ATOM      5  C   UNL     1       4.830   4.580  16.198  0.00  0.00    +0.000 A 
ATOM      6  C   UNL     1       5.519   5.324  17.175  0.00  0.00    +0.000 A 
ENDROOT
BRANCH   3   7
ATOM      7  N   UNL     1       7.136   4.703  13.241  0.00  0.00    +0.000 N 
ATOM      8  O   UNL     1       6.696   3.768  12.566  0.00  0.00    +0.000 OA
ATOM      9  O   UNL     1       8.006   5.502  12.857  0.00  0.00    +0.000 OA
ENDBRANCH   3   7
BRANCH   1  10
ATOM     10  C   UNL     1       7.608   6.678  17.771  0.00  0.00    +0.000 C 
ATOM     11  O   UNL     1       7.751   6.467  18.962  0.00  0.00    +0.000 OA
BRANCH  10  12
ATOM     12  O   UNL     1       8.015   7.791  17.109  0.00  0.00    +0.000 OA
BRANCH  12  13
ATOM     13  C   UNL     1       7.674   9.062  17.680  0.00  0.00    +0.000 C 
BRANCH  13  15
ATOM     14  O   UNL     1       9.094   9.147  19.649  0.00  0.00    +0.000 OA
ATOM     15  C   UNL     1       8.797   9.633  18.562  0.00  0.00    +0.000 C 
ATOM     16  N   UNL     1       9.426  10.723  18.008  0.00  0.00    +0.000 N 
ATOM     17  H   UNL     1       8.984  11.126  17.182  0.00  0.00    +0.000 HD
BRANCH  16  18
ATOM     18  C   UNL     1      10.524  11.469  18.610  0.00  0.00    +0.000 C 
ATOM     19  C   UNL     1      11.303  12.328  17.603  0.00  0.00    +0.000 C 
ATOM     20  C   UNL     1      10.431  13.422  16.994  0.00  0.00    +0.000 C 
ATOM     21  C   UNL     1       9.823  14.316  18.071  0.00  0.00    +0.000 C 
ATOM     22  C   UNL     1       9.112  13.521  19.164  0.00  0.00    +0.000 C 
ATOM     23  C   UNL     1       9.970  12.377  19.720  0.00  0.00    +0.000 C 
ENDBRANCH  16  18
ENDBRANCH  13  15
ENDBRANCH  12  13
ENDBRANCH  10  12
ENDBRANCH   1  10
BRANCH   6  24
ATOM     24  N   UNL     1       4.965   5.511  18.450  0.00  0.00    +0.000 N 
ATOM     25  H   UNL     1       4.125   6.095  18.412  0.00  0.00    +0.000 HD
BRANCH  24  26
ATOM     26  C   UNL     1       4.834   4.381  19.370  0.00  0.00    +0.000 C 
BRANCH  26  27
ATOM     27  C   UNL     1       3.409   3.909  19.542  0.00  0.00    +0.000 A 
ATOM     28  C   UNL     1       2.537   4.682  20.330  0.00  0.00    +0.000 A 
ATOM     29  C   UNL     1       1.220   4.276  20.545  0.00  0.00    +0.000 A 
ATOM     30  C   UNL     1       0.751   3.106  19.958  0.00  0.00    +0.000 A 
ATOM     31  C   UNL     1       1.587   2.360  19.127  0.00  0.00    +0.000 A 
ATOM     32  C   UNL     1       2.904   2.767  18.909  0.00  0.00    +0.000 A 
ENDBRANCH  26  27
ENDBRANCH  24  26
ENDBRANCH   6  24
TORSDOF 9
ENDMDL
