MODEL 1
REMARK VINA RESULT:      -8.9      0.000      0.000
REMARK  Name = 
REMARK  7 active torsions:
REMARK  status: ('A' for Active; 'I' for Inactive)
REMARK    1  A    between atoms: C_1  and  C_2
REMARK    2  A    between atoms: C_6  and  C_7
REMARK    3  A    between atoms: C_8  and  N_9
REMARK    4  A    between atoms: C_10  and  C_12
REMARK    5  A    between atoms: C_12  and  C_13
REMARK    6  A    between atoms: C_12  and  N_19
REMARK    7  A    between atoms: C_22  and  C_23
REMARK                            x       y       z     vdW  Elec       q    Type
REMARK                         _______ _______ _______ _____ _____    ______ ____
ROOT
ATOM      1  C   UNL     1      -0.457  10.988  18.294  0.00  0.00    +0.000 C 
ENDROOT
BRANCH   1   2
ATOM      2  N   UNL     1       0.328   9.993  19.061  0.00  0.00    +0.000 N 
ATOM      3  C   UNL     1       1.324   9.284  18.405  0.00  0.00    +0.000 A 
ATOM      4  O   UNL     1       1.825   9.651  17.351  0.00  0.00    +0.000 OA
ATOM      5  C   UNL     1       1.871   8.043  19.103  0.00  0.00    +0.000 A 
ATOM      6  N   UNL     1       1.634   7.811  20.361  0.00  0.00    +0.000 NA
ATOM      7  C   UNL     1       0.878   8.747  21.085  0.00  0.00    +0.000 A 
ATOM      8  C   UNL     1       0.804   8.568  22.472  0.00  0.00    +0.000 A 
ATOM      9  C   UNL     1       0.164   9.506  23.278  0.00  0.00    +0.000 A 
ATOM     10  C   UNL     1      -0.405  10.634  22.696  0.00  0.00    +0.000 A 
ATOM     11  C   UNL     1      -0.383  10.802  21.305  0.00  0.00    +0.000 A 
ATOM     12  C   UNL     1       0.237   9.851  20.482  0.00  0.00    +0.000 A 
BRANCH   5  13
ATOM     13  C   UNL     1       2.739   7.119  18.316  0.00  0.00    +0.000 A 
ATOM     14  C   UNL     1       2.410   5.760  18.246  0.00  0.00    +0.000 A 
ATOM     15  C   UNL     1       3.277   4.861  17.618  0.00  0.00    +0.000 A 
ATOM     16  C   UNL     1       4.471   5.315  17.056  0.00  0.00    +0.000 A 
ATOM     17  C   UNL     1       4.787   6.670  17.092  0.00  0.00    +0.000 A 
ATOM     18  C   UNL     1       3.916   7.570  17.701  0.00  0.00    +0.000 A 
ENDBRANCH   5  13
ENDBRANCH   1   2
BRANCH   1  19
ATOM     19  C   UNL     1      -0.053  12.444  18.600  0.00  0.00    +0.000 A 
ATOM     20  C   UNL     1       1.260  12.894  18.416  0.00  0.00    +0.000 A 
ATOM     21  C   UNL     1       1.589  14.208  18.719  0.00  0.00    +0.000 A 
ATOM     22  N   UNL     1       0.704  15.103  19.196  0.00  0.00    +0.000 NA
ATOM     23  C   UNL     1      -0.560  14.663  19.374  0.00  0.00    +0.000 A 
ATOM     24  C   UNL     1      -0.984  13.372  19.085  0.00  0.00    +0.000 A 
ENDBRANCH   1  19
BRANCH   1  26
ATOM     25  N   UNL     1      -2.726  11.960  18.548  0.00  0.00    +0.000 N 
ATOM     26  C   UNL     1      -2.005  10.798  18.337  0.00  0.00    +0.000 C 
ATOM     27  O   UNL     1      -2.508   9.683  18.204  0.00  0.00    +0.000 OA
ATOM     28  H   UNL     1      -2.208  12.701  18.997  0.00  0.00    +0.000 HD
BRANCH  25  36
ATOM     29  C   UNL     1      -4.520  11.456  16.190  0.00  0.00    +0.000 C 
ATOM     30  C   UNL     1      -4.995  11.771  17.582  0.00  0.00    +0.000 A 
ATOM     31  C   UNL     1      -6.382  11.893  17.782  0.00  0.00    +0.000 A 
ATOM     32  C   UNL     1      -6.898  12.285  19.014  0.00  0.00    +0.000 A 
ATOM     33  C   UNL     1      -6.037  12.565  20.069  0.00  0.00    +0.000 A 
ATOM     34  C   UNL     1      -4.651  12.444  19.911  0.00  0.00    +0.000 A 
ATOM     35  C   UNL     1      -3.762  12.700  21.099  0.00  0.00    +0.000 C 
ATOM     36  C   UNL     1      -4.130  12.024  18.669  0.00  0.00    +0.000 A 
ENDBRANCH  25  36
ENDBRANCH   1  26
TORSDOF 5
ENDMDL
MODEL 2
REMARK VINA RESULT:      -8.9      1.478      2.325
REMARK  Name = 
REMARK  7 active torsions:
REMARK  status: ('A' for Active; 'I' for Inactive)
REMARK    1  A    between atoms: C_1  and  C_2
REMARK    2  A    between atoms: C_6  and  C_7
REMARK    3  A    between atoms: C_8  and  N_9
REMARK    4  A    between atoms: C_10  and  C_12
REMARK    5  A    between atoms: C_12  and  C_13
REMARK    6  A    between atoms: C_12  and  N_19
REMARK    7  A    between atoms: C_22  and  C_23
REMARK                            x       y       z     vdW  Elec       q    Type
REMARK                         _______ _______ _______ _____ _____    ______ ____
ROOT
ATOM      1  C   UNL     1       0.830  11.605  18.594  0.00  0.00    +0.000 C 
ENDROOT
BRANCH   1   2
ATOM      2  N   UNL     1       0.914  10.427  19.488  0.00  0.00    +0.000 N 
ATOM      3  C   UNL     1       1.766   9.388  19.139  0.00  0.00    +0.000 A 
ATOM      4  O   UNL     1       2.689   9.515  18.346  0.00  0.00    +0.000 OA
ATOM      5  C   UNL     1       1.582   8.060  19.867  0.00  0.00    +0.000 A 
ATOM      6  N   UNL     1       0.866   7.973  20.951  0.00  0.00    +0.000 NA
ATOM      7  C   UNL     1       0.280   9.142  21.463  0.00  0.00    +0.000 A 
ATOM      8  C   UNL     1      -0.317   9.052  22.726  0.00  0.00    +0.000 A 
ATOM      9  C   UNL     1      -0.829  10.185  23.354  0.00  0.00    +0.000 A 
ATOM     10  C   UNL     1      -0.742  11.419  22.717  0.00  0.00    +0.000 A 
ATOM     11  C   UNL     1      -0.194  11.516  21.433  0.00  0.00    +0.000 A 
ATOM     12  C   UNL     1       0.303  10.378  20.781  0.00  0.00    +0.000 A 
BRANCH   5  13
ATOM     13  C   UNL     1       2.292   6.861  19.334  0.00  0.00    +0.000 A 
ATOM     14  C   UNL     1       2.391   5.712  20.127  0.00  0.00    +0.000 A 
ATOM     15  C   UNL     1       3.156   4.626  19.693  0.00  0.00    +0.000 A 
ATOM     16  C   UNL     1       3.822   4.682  18.468  0.00  0.00    +0.000 A 
ATOM     17  C   UNL     1       3.699   5.808  17.660  0.00  0.00    +0.000 A 
ATOM     18  C   UNL     1       2.921   6.884  18.081  0.00  0.00    +0.000 A 
ENDBRANCH   5  13
ENDBRANCH   1   2
BRANCH   1  19
ATOM     19  C   UNL     1       1.856  12.702  18.940  0.00  0.00    +0.000 A 
ATOM     20  C   UNL     1       2.672  13.278  17.958  0.00  0.00    +0.000 A 
ATOM     21  C   UNL     1       3.596  14.250  18.311  0.00  0.00    +0.000 A 
ATOM     22  N   UNL     1       3.769  14.687  19.572  0.00  0.00    +0.000 NA
ATOM     23  C   UNL     1       2.982  14.126  20.516  0.00  0.00    +0.000 A 
ATOM     24  C   UNL     1       2.021  13.158  20.254  0.00  0.00    +0.000 A 
ENDBRANCH   1  19
BRANCH   1  26
ATOM     25  N   UNL     1      -1.614  11.255  18.340  0.00  0.00    +0.000 N 
ATOM     26  C   UNL     1      -0.601  12.196  18.398  0.00  0.00    +0.000 C 
ATOM     27  O   UNL     1      -0.775  13.410  18.294  0.00  0.00    +0.000 OA
ATOM     28  H   UNL     1      -1.313  10.329  18.070  0.00  0.00    +0.000 HD
BRANCH  25  36
ATOM     29  C   UNL     1      -3.316  12.443  20.513  0.00  0.00    +0.000 C 
ATOM     30  C   UNL     1      -3.792  12.129  19.120  0.00  0.00    +0.000 A 
ATOM     31  C   UNL     1      -5.149  12.359  18.831  0.00  0.00    +0.000 A 
ATOM     32  C   UNL     1      -5.692  11.997  17.602  0.00  0.00    +0.000 A 
ATOM     33  C   UNL     1      -4.889  11.397  16.639  0.00  0.00    +0.000 A 
ATOM     34  C   UNL     1      -3.530  11.163  16.886  0.00  0.00    +0.000 A 
ATOM     35  C   UNL     1      -2.687  10.566  15.790  0.00  0.00    +0.000 C 
ATOM     36  C   UNL     1      -2.976  11.552  18.124  0.00  0.00    +0.000 A 
ENDBRANCH  25  36
ENDBRANCH   1  26
TORSDOF 5
ENDMDL
MODEL 3
REMARK VINA RESULT:      -8.8      0.193      1.148
REMARK  Name = 
REMARK  7 active torsions:
REMARK  status: ('A' for Active; 'I' for Inactive)
REMARK    1  A    between atoms: C_1  and  C_2
REMARK    2  A    between atoms: C_6  and  C_7
REMARK    3  A    between atoms: C_8  and  N_9
REMARK    4  A    between atoms: C_10  and  C_12
REMARK    5  A    between atoms: C_12  and  C_13
REMARK    6  A    between atoms: C_12  and  N_19
REMARK    7  A    between atoms: C_22  and  C_23
REMARK                            x       y       z     vdW  Elec       q    Type
REMARK                         _______ _______ _______ _____ _____    ______ ____
ROOT
ATOM      1  C   UNL     1      -0.324  10.913  18.244  0.00  0.00    +0.000 C 
ENDROOT
BRANCH   1   2
ATOM      2  N   UNL     1       0.422   9.928  19.061  0.00  0.00    +0.000 N 
ATOM      3  C   UNL     1       1.431   9.192  18.457  0.00  0.00    +0.000 A 
ATOM      4  O   UNL     1       1.972   9.528  17.412  0.00  0.00    +0.000 OA
ATOM      5  C   UNL     1       1.939   7.962  19.202  0.00  0.00    +0.000 A 
ATOM      6  N   UNL     1       1.656   7.762  20.456  0.00  0.00    +0.000 NA
ATOM      7  C   UNL     1       0.887   8.724  21.131  0.00  0.00    +0.000 A 
ATOM      8  C   UNL     1       0.764   8.579  22.518  0.00  0.00    +0.000 A 
ATOM      9  C   UNL     1       0.108   9.543  23.280  0.00  0.00    +0.000 A 
ATOM     10  C   UNL     1      -0.428  10.664  22.652  0.00  0.00    +0.000 A 
ATOM     11  C   UNL     1      -0.356  10.797  21.260  0.00  0.00    +0.000 A 
ATOM     12  C   UNL     1       0.281   9.821  20.480  0.00  0.00    +0.000 A 
BRANCH   5  13
ATOM     13  C   UNL     1       2.823   7.009  18.467  0.00  0.00    +0.000 A 
ATOM     14  C   UNL     1       3.904   7.505  17.729  0.00  0.00    +0.000 A 
ATOM     15  C   UNL     1       4.666   6.642  16.938  0.00  0.00    +0.000 A 
ATOM     16  C   UNL     1       4.354   5.283  16.881  0.00  0.00    +0.000 A 
ATOM     17  C   UNL     1       3.301   4.778  17.639  0.00  0.00    +0.000 A 
ATOM     18  C   UNL     1       2.552   5.634  18.444  0.00  0.00    +0.000 A 
ENDBRANCH   5  13
ENDBRANCH   1   2
BRANCH   1  19
ATOM     19  C   UNL     1       0.108  12.369  18.506  0.00  0.00    +0.000 A 
ATOM     20  C   UNL     1      -0.830  13.378  18.759  0.00  0.00    +0.000 A 
ATOM     21  C   UNL     1      -0.403  14.680  18.973  0.00  0.00    +0.000 A 
ATOM     22  N   UNL     1       0.891  15.050  18.950  0.00  0.00    +0.000 NA
ATOM     23  C   UNL     1       1.791  14.075  18.703  0.00  0.00    +0.000 A 
ATOM     24  C   UNL     1       1.458  12.742  18.491  0.00  0.00    +0.000 A 
ENDBRANCH   1  19
BRANCH   1  26
ATOM     25  N   UNL     1      -2.572  11.936  18.486  0.00  0.00    +0.000 N 
ATOM     26  C   UNL     1      -1.877  10.761  18.263  0.00  0.00    +0.000 C 
ATOM     27  O   UNL     1      -2.406   9.661  18.101  0.00  0.00    +0.000 OA
ATOM     28  H   UNL     1      -2.042  12.655  18.957  0.00  0.00    +0.000 HD
BRANCH  25  36
ATOM     29  C   UNL     1      -4.351  11.421  16.120  0.00  0.00    +0.000 C 
ATOM     30  C   UNL     1      -4.834  11.776  17.500  0.00  0.00    +0.000 A 
ATOM     31  C   UNL     1      -6.220  11.931  17.682  0.00  0.00    +0.000 A 
ATOM     32  C   UNL     1      -6.741  12.361  18.899  0.00  0.00    +0.000 A 
ATOM     33  C   UNL     1      -5.886  12.644  19.957  0.00  0.00    +0.000 A 
ATOM     34  C   UNL     1      -4.500  12.490  19.817  0.00  0.00    +0.000 A 
ATOM     35  C   UNL     1      -3.619  12.752  21.010  0.00  0.00    +0.000 C 
ATOM     36  C   UNL     1      -3.976  12.032  18.590  0.00  0.00    +0.000 A 
ENDBRANCH  25  36
ENDBRANCH   1  26
TORSDOF 5
ENDMDL
MODEL 4
REMARK VINA RESULT:      -8.8      0.187      1.480
REMARK  Name = 
REMARK  7 active torsions:
REMARK  status: ('A' for Active; 'I' for Inactive)
REMARK    1  A    between atoms: C_1  and  C_2
REMARK    2  A    between atoms: C_6  and  C_7
REMARK    3  A    between atoms: C_8  and  N_9
REMARK    4  A    between atoms: C_10  and  C_12
REMARK    5  A    between atoms: C_12  and  C_13
REMARK    6  A    between atoms: C_12  and  N_19
REMARK    7  A    between atoms: C_22  and  C_23
REMARK                            x       y       z     vdW  Elec       q    Type
REMARK                         _______ _______ _______ _____ _____    ______ ____
ROOT
ATOM      1  C   UNL     1      -0.430  11.004  18.320  0.00  0.00    +0.000 C 
ENDROOT
BRANCH   1   2
ATOM      2  N   UNL     1       0.355  10.001  19.078  0.00  0.00    +0.000 N 
ATOM      3  C   UNL     1       1.347   9.294  18.413  0.00  0.00    +0.000 A 
ATOM      4  O   UNL     1       1.846   9.668  17.361  0.00  0.00    +0.000 OA
ATOM      5  C   UNL     1       1.894   8.046  19.100  0.00  0.00    +0.000 A 
ATOM      6  N   UNL     1       1.659   7.805  20.357  0.00  0.00    +0.000 NA
ATOM      7  C   UNL     1       0.907   8.737  21.090  0.00  0.00    +0.000 A 
ATOM      8  C   UNL     1       0.837   8.547  22.476  0.00  0.00    +0.000 A 
ATOM      9  C   UNL     1       0.201   9.480  23.291  0.00  0.00    +0.000 A 
ATOM     10  C   UNL     1      -0.368  10.614  22.719  0.00  0.00    +0.000 A 
ATOM     11  C   UNL     1      -0.349  10.793  21.330  0.00  0.00    +0.000 A 
ATOM     12  C   UNL     1       0.267   9.847  20.497  0.00  0.00    +0.000 A 
BRANCH   5  13
ATOM     13  C   UNL     1       2.758   7.127  18.303  0.00  0.00    +0.000 A 
ATOM     14  C   UNL     1       2.418   5.772  18.212  0.00  0.00    +0.000 A 
ATOM     15  C   UNL     1       3.280   4.876  17.574  0.00  0.00    +0.000 A 
ATOM     16  C   UNL     1       4.480   5.328  17.025  0.00  0.00    +0.000 A 
ATOM     17  C   UNL     1       4.807   6.679  17.082  0.00  0.00    +0.000 A 
ATOM     18  C   UNL     1       3.940   7.577  17.700  0.00  0.00    +0.000 A 
ENDBRANCH   5  13
ENDBRANCH   1   2
BRANCH   1  19
ATOM     19  C   UNL     1      -0.010  12.455  18.622  0.00  0.00    +0.000 A 
ATOM     20  C   UNL     1       1.289  12.911  18.363  0.00  0.00    +0.000 A 
ATOM     21  C   UNL     1       1.635  14.220  18.665  0.00  0.00    +0.000 A 
ATOM     22  N   UNL     1       0.781  15.106  19.210  0.00  0.00    +0.000 NA
ATOM     23  C   UNL     1      -0.469  14.661  19.461  0.00  0.00    +0.000 A 
ATOM     24  C   UNL     1      -0.909  13.374  19.180  0.00  0.00    +0.000 A 
ENDBRANCH   1  19
BRANCH   1  26
ATOM     25  N   UNL     1      -2.698  12.009  18.375  0.00  0.00    +0.000 N 
ATOM     26  C   UNL     1      -1.979  10.827  18.382  0.00  0.00    +0.000 C 
ATOM     27  O   UNL     1      -2.486   9.707  18.444  0.00  0.00    +0.000 OA
ATOM     28  H   UNL     1      -2.181  12.818  18.690  0.00  0.00    +0.000 HD
BRANCH  25  36
ATOM     29  C   UNL     1      -4.046  12.737  20.961  0.00  0.00    +0.000 C 
ATOM     30  C   UNL     1      -4.760  12.457  19.666  0.00  0.00    +0.000 A 
ATOM     31  C   UNL     1      -6.166  12.485  19.681  0.00  0.00    +0.000 A 
ATOM     32  C   UNL     1      -6.903  12.134  18.554  0.00  0.00    +0.000 A 
ATOM     33  C   UNL     1      -6.248  11.748  17.390  0.00  0.00    +0.000 A 
ATOM     34  C   UNL     1      -4.849  11.719  17.333  0.00  0.00    +0.000 A 
ATOM     35  C   UNL     1      -4.185  11.352  16.033  0.00  0.00    +0.000 C 
ATOM     36  C   UNL     1      -4.103  12.097  18.470  0.00  0.00    +0.000 A 
ENDBRANCH  25  36
ENDBRANCH   1  26
TORSDOF 5
ENDMDL
MODEL 5
REMARK VINA RESULT:      -8.8      1.333      2.270
REMARK  Name = 
REMARK  7 active torsions:
REMARK  status: ('A' for Active; 'I' for Inactive)
REMARK    1  A    between atoms: C_1  and  C_2
REMARK    2  A    between atoms: C_6  and  C_7
REMARK    3  A    between atoms: C_8  and  N_9
REMARK    4  A    between atoms: C_10  and  C_12
REMARK    5  A    between atoms: C_12  and  C_13
REMARK    6  A    between atoms: C_12  and  N_19
REMARK    7  A    between atoms: C_22  and  C_23
REMARK                            x       y       z     vdW  Elec       q    Type
REMARK                         _______ _______ _______ _____ _____    ______ ____
ROOT
ATOM      1  C   UNL     1       0.908  11.799  18.422  0.00  0.00    +0.000 C 
ENDROOT
BRANCH   1   2
ATOM      2  N   UNL     1       1.096  10.509  19.124  0.00  0.00    +0.000 N 
ATOM      3  C   UNL     1       1.949   9.567  18.566  0.00  0.00    +0.000 A 
ATOM      4  O   UNL     1       2.804   9.845  17.736  0.00  0.00    +0.000 OA
ATOM      5  C   UNL     1       1.861   8.142  19.102  0.00  0.00    +0.000 A 
ATOM      6  N   UNL     1       1.234   7.870  20.209  0.00  0.00    +0.000 NA
ATOM      7  C   UNL     1       0.654   8.927  20.929  0.00  0.00    +0.000 A 
ATOM      8  C   UNL     1       0.159   8.631  22.204  0.00  0.00    +0.000 A 
ATOM      9  C   UNL     1      -0.338   9.640  23.027  0.00  0.00    +0.000 A 
ATOM     10  C   UNL     1      -0.337  10.955  22.574  0.00  0.00    +0.000 A 
ATOM     11  C   UNL     1       0.108  11.259  21.282  0.00  0.00    +0.000 A 
ATOM     12  C   UNL     1       0.588  10.249  20.436  0.00  0.00    +0.000 A 
BRANCH   5  13
ATOM     13  C   UNL     1       2.564   7.062  18.349  0.00  0.00    +0.000 A 
ATOM     14  C   UNL     1       2.037   5.765  18.354  0.00  0.00    +0.000 A 
ATOM     15  C   UNL     1       2.746   4.719  17.757  0.00  0.00    +0.000 A 
ATOM     16  C   UNL     1       3.980   4.963  17.153  0.00  0.00    +0.000 A 
ATOM     17  C   UNL     1       4.494   6.256  17.116  0.00  0.00    +0.000 A 
ATOM     18  C   UNL     1       3.779   7.304  17.692  0.00  0.00    +0.000 A 
ENDBRANCH   5  13
ENDBRANCH   1   2
BRANCH   1  19
ATOM     19  C   UNL     1       1.905  12.885  18.872  0.00  0.00    +0.000 A 
ATOM     20  C   UNL     1       2.068  13.216  20.223  0.00  0.00    +0.000 A 
ATOM     21  C   UNL     1       2.963  14.211  20.587  0.00  0.00    +0.000 A 
ATOM     22  N   UNL     1       3.705  14.902  19.702  0.00  0.00    +0.000 NA
ATOM     23  C   UNL     1       3.542  14.582  18.401  0.00  0.00    +0.000 A 
ATOM     24  C   UNL     1       2.681  13.592  17.944  0.00  0.00    +0.000 A 
ENDBRANCH   1  19
BRANCH   1  26
ATOM     25  N   UNL     1      -1.532  11.363  18.288  0.00  0.00    +0.000 N 
ATOM     26  C   UNL     1      -0.556  12.339  18.393  0.00  0.00    +0.000 C 
ATOM     27  O   UNL     1      -0.786  13.547  18.447  0.00  0.00    +0.000 OA
ATOM     28  H   UNL     1      -1.214  10.491  17.888  0.00  0.00    +0.000 HD
BRANCH  25  36
ATOM     29  C   UNL     1      -3.081  12.409  20.640  0.00  0.00    +0.000 C 
ATOM     30  C   UNL     1      -3.663  12.128  19.282  0.00  0.00    +0.000 A 
ATOM     31  C   UNL     1      -5.047  12.317  19.117  0.00  0.00    +0.000 A 
ATOM     32  C   UNL     1      -5.681  11.979  17.926  0.00  0.00    +0.000 A 
ATOM     33  C   UNL     1      -4.944  11.445  16.875  0.00  0.00    +0.000 A 
ATOM     34  C   UNL     1      -3.561  11.252  16.998  0.00  0.00    +0.000 A 
ATOM     35  C   UNL     1      -2.796  10.726  15.812  0.00  0.00    +0.000 C 
ATOM     36  C   UNL     1      -2.916  11.617  18.198  0.00  0.00    +0.000 A 
ENDBRANCH  25  36
ENDBRANCH   1  26
TORSDOF 5
ENDMDL
MODEL 6
REMARK VINA RESULT:      -8.8      2.276      5.469
REMARK  Name = 
REMARK  7 active torsions:
REMARK  status: ('A' for Active; 'I' for Inactive)
REMARK    1  A    between atoms: C_1  and  C_2
REMARK    2  A    between atoms: C_6  and  C_7
REMARK    3  A    between atoms: C_8  and  N_9
REMARK    4  A    between atoms: C_10  and  C_12
REMARK    5  A    between atoms: C_12  and  C_13
REMARK    6  A    between atoms: C_12  and  N_19
REMARK    7  A    between atoms: C_22  and  C_23
REMARK                            x       y       z     vdW  Elec       q    Type
REMARK                         _______ _______ _______ _____ _____    ______ ____
ROOT
ATOM      1  C   UNL     1       0.276  12.260  21.268  0.00  0.00    +0.000 C 
ENDROOT
BRANCH   1   2
ATOM      2  N   UNL     1       0.090  11.237  20.213  0.00  0.00    +0.000 N 
ATOM      3  C   UNL     1       0.898  10.109  20.232  0.00  0.00    +0.000 A 
ATOM      4  O   UNL     1       1.505   9.736  21.227  0.00  0.00    +0.000 OA
ATOM      5  C   UNL     1       0.936   9.256  18.968  0.00  0.00    +0.000 A 
ATOM      6  N   UNL     1       0.054   9.403  18.023  0.00  0.00    +0.000 NA
ATOM      7  C   UNL     1      -0.965  10.354  18.198  0.00  0.00    +0.000 A 
ATOM      8  C   UNL     1      -2.003  10.354  17.259  0.00  0.00    +0.000 A 
ATOM      9  C   UNL     1      -3.105  11.191  17.414  0.00  0.00    +0.000 A 
ATOM     10  C   UNL     1      -3.173  12.035  18.518  0.00  0.00    +0.000 A 
ATOM     11  C   UNL     1      -2.119  12.083  19.439  0.00  0.00    +0.000 A 
ATOM     12  C   UNL     1      -0.993  11.262  19.280  0.00  0.00    +0.000 A 
BRANCH   5  13
ATOM     13  C   UNL     1       1.986   8.201  18.862  0.00  0.00    +0.000 A 
ATOM     14  C   UNL     1       2.860   8.209  17.769  0.00  0.00    +0.000 A 
ATOM     15  C   UNL     1       3.768   7.161  17.591  0.00  0.00    +0.000 A 
ATOM     16  C   UNL     1       3.806   6.104  18.501  0.00  0.00    +0.000 A 
ATOM     17  C   UNL     1       2.963   6.108  19.609  0.00  0.00    +0.000 A 
ATOM     18  C   UNL     1       2.071   7.161  19.799  0.00  0.00    +0.000 A 
ENDBRANCH   5  13
ENDBRANCH   1   2
BRANCH   1  19
ATOM     19  C   UNL     1      -1.019  12.570  22.044  0.00  0.00    +0.000 A 
ATOM     20  C   UNL     1      -1.603  13.843  22.017  0.00  0.00    +0.000 A 
ATOM     21  C   UNL     1      -2.760  14.088  22.742  0.00  0.00    +0.000 A 
ATOM     22  N   UNL     1      -3.374  13.158  23.497  0.00  0.00    +0.000 NA
ATOM     23  C   UNL     1      -2.806  11.934  23.523  0.00  0.00    +0.000 A 
ATOM     24  C   UNL     1      -1.658  11.593  22.818  0.00  0.00    +0.000 A 
ENDBRANCH   1  19
BRANCH   1  26
ATOM     25  N   UNL     1       0.832  13.893  19.484  0.00  0.00    +0.000 N 
ATOM     26  C   UNL     1       1.003  13.564  20.817  0.00  0.00    +0.000 C 
ATOM     27  O   UNL     1       1.680  14.217  21.611  0.00  0.00    +0.000 OA
ATOM     28  H   UNL     1       0.585  13.116  18.888  0.00  0.00    +0.000 HD
BRANCH  25  36
ATOM     29  C   UNL     1      -0.591  16.531  19.275  0.00  0.00    +0.000 C 
ATOM     30  C   UNL     1       0.792  16.254  18.751  0.00  0.00    +0.000 A 
ATOM     31  C   UNL     1       1.446  17.293  18.065  0.00  0.00    +0.000 A 
ATOM     32  C   UNL     1       2.681  17.087  17.458  0.00  0.00    +0.000 A 
ATOM     33  C   UNL     1       3.287  15.838  17.526  0.00  0.00    +0.000 A 
ATOM     34  C   UNL     1       2.672  14.782  18.211  0.00  0.00    +0.000 A 
ATOM     35  C   UNL     1       3.394  13.464  18.308  0.00  0.00    +0.000 C 
ATOM     36  C   UNL     1       1.430  14.999  18.845  0.00  0.00    +0.000 A 
ENDBRANCH  25  36
ENDBRANCH   1  26
TORSDOF 5
ENDMDL
MODEL 7
REMARK VINA RESULT:      -8.7      3.249      8.232
REMARK  Name = 
REMARK  7 active torsions:
REMARK  status: ('A' for Active; 'I' for Inactive)
REMARK    1  A    between atoms: C_1  and  C_2
REMARK    2  A    between atoms: C_6  and  C_7
REMARK    3  A    between atoms: C_8  and  N_9
REMARK    4  A    between atoms: C_10  and  C_12
REMARK    5  A    between atoms: C_12  and  C_13
REMARK    6  A    between atoms: C_12  and  N_19
REMARK    7  A    between atoms: C_22  and  C_23
REMARK                            x       y       z     vdW  Elec       q    Type
REMARK                         _______ _______ _______ _____ _____    ______ ____
ROOT
ATOM      1  C   UNL     1      -0.432  11.889  19.944  0.00  0.00    +0.000 C 
ENDROOT
BRANCH   1   2
ATOM      2  N   UNL     1      -1.865  12.111  19.643  0.00  0.00    +0.000 N 
ATOM      3  C   UNL     1      -2.564  13.047  20.393  0.00  0.00    +0.000 A 
ATOM      4  O   UNL     1      -2.018  13.930  21.040  0.00  0.00    +0.000 OA
ATOM      5  C   UNL     1      -4.087  13.011  20.311  0.00  0.00    +0.000 A 
ATOM      6  N   UNL     1      -4.701  12.339  19.381  0.00  0.00    +0.000 NA
ATOM      7  C   UNL     1      -3.930  11.660  18.423  0.00  0.00    +0.000 A 
ATOM      8  C   UNL     1      -4.612  11.111  17.331  0.00  0.00    +0.000 A 
ATOM      9  C   UNL     1      -3.916  10.512  16.284  0.00  0.00    +0.000 A 
ATOM     10  C   UNL     1      -2.526  10.462  16.326  0.00  0.00    +0.000 A 
ATOM     11  C   UNL     1      -1.832  10.962  17.436  0.00  0.00    +0.000 A 
ATOM     12  C   UNL     1      -2.525  11.545  18.507  0.00  0.00    +0.000 A 
BRANCH   5  13
ATOM     13  C   UNL     1      -4.864  13.816  21.298  0.00  0.00    +0.000 A 
ATOM     14  C   UNL     1      -5.128  13.281  22.564  0.00  0.00    +0.000 A 
ATOM     15  C   UNL     1      -5.956  13.969  23.455  0.00  0.00    +0.000 A 
ATOM     16  C   UNL     1      -6.522  15.190  23.087  0.00  0.00    +0.000 A 
ATOM     17  C   UNL     1      -6.235  15.744  21.843  0.00  0.00    +0.000 A 
ATOM     18  C   UNL     1      -5.394  15.069  20.960  0.00  0.00    +0.000 A 
ENDBRANCH   5  13
ENDBRANCH   1   2
BRANCH   1  19
ATOM     19  C   UNL     1      -0.204  11.013  21.191  0.00  0.00    +0.000 A 
ATOM     20  C   UNL     1      -1.036  11.106  22.314  0.00  0.00    +0.000 A 
ATOM     21  C   UNL     1      -0.788  10.314  23.425  0.00  0.00    +0.000 A 
ATOM     22  N   UNL     1       0.232   9.439  23.500  0.00  0.00    +0.000 NA
ATOM     23  C   UNL     1       1.033   9.355  22.417  0.00  0.00    +0.000 A 
ATOM     24  C   UNL     1       0.854  10.097  21.256  0.00  0.00    +0.000 A 
ENDBRANCH   1  19
BRANCH   1  26
ATOM     25  N   UNL     1       0.497  13.873  18.778  0.00  0.00    +0.000 N 
ATOM     26  C   UNL     1       0.454  13.173  19.970  0.00  0.00    +0.000 C 
ATOM     27  O   UNL     1       1.064  13.498  20.989  0.00  0.00    +0.000 OA
ATOM     28  H   UNL     1       0.274  13.325  17.960  0.00  0.00    +0.000 HD
BRANCH  25  36
ATOM     29  C   UNL     1      -0.733  16.610  18.934  0.00  0.00    +0.000 C 
ATOM     30  C   UNL     1       0.717  16.333  18.642  0.00  0.00    +0.000 A 
ATOM     31  C   UNL     1       1.546  17.435  18.369  0.00  0.00    +0.000 A 
ATOM     32  C   UNL     1       2.873  17.258  17.986  0.00  0.00    +0.000 A 
ATOM     33  C   UNL     1       3.395  15.975  17.870  0.00  0.00    +0.000 A 
ATOM     34  C   UNL     1       2.603  14.853  18.145  0.00  0.00    +0.000 A 
ATOM     35  C   UNL     1       3.230  13.486  18.063  0.00  0.00    +0.000 C 
ATOM     36  C   UNL     1       1.265  15.035  18.555  0.00  0.00    +0.000 A 
ENDBRANCH  25  36
ENDBRANCH   1  26
TORSDOF 5
ENDMDL
MODEL 8
REMARK VINA RESULT:      -8.7      2.281      5.376
REMARK  Name = 
REMARK  7 active torsions:
REMARK  status: ('A' for Active; 'I' for Inactive)
REMARK    1  A    between atoms: C_1  and  C_2
REMARK    2  A    between atoms: C_6  and  C_7
REMARK    3  A    between atoms: C_8  and  N_9
REMARK    4  A    between atoms: C_10  and  C_12
REMARK    5  A    between atoms: C_12  and  C_13
REMARK    6  A    between atoms: C_12  and  N_19
REMARK    7  A    between atoms: C_22  and  C_23
REMARK                            x       y       z     vdW  Elec       q    Type
REMARK                         _______ _______ _______ _____ _____    ______ ____
ROOT
ATOM      1  C   UNL     1       0.351  12.247  21.286  0.00  0.00    +0.000 C 
ENDROOT
BRANCH   1   2
ATOM      2  N   UNL     1       0.140  11.219  20.241  0.00  0.00    +0.000 N 
ATOM      3  C   UNL     1       0.947  10.090  20.246  0.00  0.00    +0.000 A 
ATOM      4  O   UNL     1       1.577   9.721  21.228  0.00  0.00    +0.000 OA
ATOM      5  C   UNL     1       0.953   9.230  18.986  0.00  0.00    +0.000 A 
ATOM      6  N   UNL     1       0.049   9.374  18.062  0.00  0.00    +0.000 NA
ATOM      7  C   UNL     1      -0.965  10.327  18.256  0.00  0.00    +0.000 A 
ATOM      8  C   UNL     1      -2.025  10.322  17.342  0.00  0.00    +0.000 A 
ATOM      9  C   UNL     1      -3.122  11.162  17.519  0.00  0.00    +0.000 A 
ATOM     10  C   UNL     1      -3.162  12.012  18.621  0.00  0.00    +0.000 A 
ATOM     11  C   UNL     1      -2.087  12.063  19.516  0.00  0.00    +0.000 A 
ATOM     12  C   UNL     1      -0.966  11.240  19.334  0.00  0.00    +0.000 A 
BRANCH   5  13
ATOM     13  C   UNL     1       1.999   8.174  18.861  0.00  0.00    +0.000 A 
ATOM     14  C   UNL     1       2.868   8.194  17.763  0.00  0.00    +0.000 A 
ATOM     15  C   UNL     1       3.771   7.146  17.566  0.00  0.00    +0.000 A 
ATOM     16  C   UNL     1       3.811   6.076  18.462  0.00  0.00    +0.000 A 
ATOM     17  C   UNL     1       2.973   6.067  19.573  0.00  0.00    +0.000 A 
ATOM     18  C   UNL     1       2.086   7.121  19.782  0.00  0.00    +0.000 A 
ENDBRANCH   5  13
ENDBRANCH   1   2
BRANCH   1  19
ATOM     19  C   UNL     1      -0.915  12.534  22.117  0.00  0.00    +0.000 A 
ATOM     20  C   UNL     1      -1.550  11.528  22.856  0.00  0.00    +0.000 A 
ATOM     21  C   UNL     1      -2.698  11.822  23.578  0.00  0.00    +0.000 A 
ATOM     22  N   UNL     1      -3.260  13.044  23.613  0.00  0.00    +0.000 NA
ATOM     23  C   UNL     1      -2.646  14.010  22.897  0.00  0.00    +0.000 A 
ATOM     24  C   UNL     1      -1.486  13.812  22.157  0.00  0.00    +0.000 A 
ENDBRANCH   1  19
BRANCH   1  26
ATOM     25  N   UNL     1       0.785  13.896  19.483  0.00  0.00    +0.000 N 
ATOM     26  C   UNL     1       1.034  13.564  20.802  0.00  0.00    +0.000 C 
ATOM     27  O   UNL     1       1.744  14.223  21.562  0.00  0.00    +0.000 OA
ATOM     28  H   UNL     1       0.516  13.118  18.897  0.00  0.00    +0.000 HD
BRANCH  25  36
ATOM     29  C   UNL     1       3.562  13.826  18.339  0.00  0.00    +0.000 C 
ATOM     30  C   UNL     1       2.624  15.000  18.253  0.00  0.00    +0.000 A 
ATOM     31  C   UNL     1       3.104  16.171  17.640  0.00  0.00    +0.000 A 
ATOM     32  C   UNL     1       2.340  17.333  17.614  0.00  0.00    +0.000 A 
ATOM     33  C   UNL     1       1.080  17.347  18.202  0.00  0.00    +0.000 A 
ATOM     34  C   UNL     1       0.564  16.198  18.813  0.00  0.00    +0.000 A 
ATOM     35  C   UNL     1      -0.829  16.245  19.384  0.00  0.00    +0.000 C 
ATOM     36  C   UNL     1       1.331  15.013  18.818  0.00  0.00    +0.000 A 
ENDBRANCH  25  36
ENDBRANCH   1  26
TORSDOF 5
ENDMDL
MODEL 9
REMARK VINA RESULT:      -8.6      3.137      8.184
REMARK  Name = 
REMARK  7 active torsions:
REMARK  status: ('A' for Active; 'I' for Inactive)
REMARK    1  A    between atoms: C_1  and  C_2
REMARK    2  A    between atoms: C_6  and  C_7
REMARK    3  A    between atoms: C_8  and  N_9
REMARK    4  A    between atoms: C_10  and  C_12
REMARK    5  A    between atoms: C_12  and  C_13
REMARK    6  A    between atoms: C_12  and  N_19
REMARK    7  A    between atoms: C_22  and  C_23
REMARK                            x       y       z     vdW  Elec       q    Type
REMARK                         _______ _______ _______ _____ _____    ______ ____
ROOT
ATOM      1  C   UNL     1      -0.680  11.942  19.878  0.00  0.00    +0.000 C 
ENDROOT
BRANCH   1   2
ATOM      2  N   UNL     1      -2.124  12.126  19.602  0.00  0.00    +0.000 N 
ATOM      3  C   UNL     1      -2.867  12.926  20.458  0.00  0.00    +0.000 A 
ATOM      4  O   UNL     1      -2.366  13.750  21.210  0.00  0.00    +0.000 OA
ATOM      5  C   UNL     1      -4.386  12.822  20.366  0.00  0.00    +0.000 A 
ATOM      6  N   UNL     1      -4.968  12.238  19.359  0.00  0.00    +0.000 NA
ATOM      7  C   UNL     1      -4.166  11.721  18.329  0.00  0.00    +0.000 A 
ATOM      8  C   UNL     1      -4.822  11.275  17.175  0.00  0.00    +0.000 A 
ATOM      9  C   UNL     1      -4.099  10.845  16.065  0.00  0.00    +0.000 A 
ATOM     10  C   UNL     1      -2.708  10.862  16.106  0.00  0.00    +0.000 A 
ATOM     11  C   UNL     1      -2.038  11.257  17.271  0.00  0.00    +0.000 A 
ATOM     12  C   UNL     1      -2.757  11.670  18.402  0.00  0.00    +0.000 A 
BRANCH   5  13
ATOM     13  C   UNL     1      -5.201  13.460  21.441  0.00  0.00    +0.000 A 
ATOM     14  C   UNL     1      -5.774  14.717  21.215  0.00  0.00    +0.000 A 
ATOM     15  C   UNL     1      -6.436  15.382  22.251  0.00  0.00    +0.000 A 
ATOM     16  C   UNL     1      -6.528  14.795  23.514  0.00  0.00    +0.000 A 
ATOM     17  C   UNL     1      -5.990  13.531  23.736  0.00  0.00    +0.000 A 
ATOM     18  C   UNL     1      -5.347  12.858  22.699  0.00  0.00    +0.000 A 
ENDBRANCH   5  13
ENDBRANCH   1   2
BRANCH   1  19
ATOM     19  C   UNL     1      -0.404  10.953  21.027  0.00  0.00    +0.000 A 
ATOM     20  C   UNL     1      -1.022  11.090  22.276  0.00  0.00    +0.000 A 
ATOM     21  C   UNL     1      -0.736  10.190  23.291  0.00  0.00    +0.000 A 
ATOM     22  N   UNL     1       0.126   9.165  23.153  0.00  0.00    +0.000 NA
ATOM     23  C   UNL     1       0.721   9.038  21.948  0.00  0.00    +0.000 A 
ATOM     24  C   UNL     1       0.485   9.882  20.870  0.00  0.00    +0.000 A 
ENDBRANCH   1  19
BRANCH   1  26
ATOM     25  N   UNL     1       0.021  14.152  18.991  0.00  0.00    +0.000 N 
ATOM     26  C   UNL     1       0.144  13.257  20.039  0.00  0.00    +0.000 C 
ATOM     27  O   UNL     1       0.848  13.443  21.032  0.00  0.00    +0.000 OA
ATOM     28  H   UNL     1      -0.267  13.737  18.116  0.00  0.00    +0.000 HD
BRANCH  25  36
ATOM     29  C   UNL     1       2.925  14.267  18.231  0.00  0.00    +0.000 C 
ATOM     30  C   UNL     1       2.063  15.465  18.524  0.00  0.00    +0.000 A 
ATOM     31  C   UNL     1       2.678  16.729  18.492  0.00  0.00    +0.000 A 
ATOM     32  C   UNL     1       1.978  17.877  18.854  0.00  0.00    +0.000 A 
ATOM     33  C   UNL     1       0.650  17.782  19.254  0.00  0.00    +0.000 A 
ATOM     34  C   UNL     1       0.001  16.541  19.288  0.00  0.00    +0.000 A 
ATOM     35  C   UNL     1      -1.455  16.495  19.671  0.00  0.00    +0.000 C 
ATOM     36  C   UNL     1       0.705  15.381  18.899  0.00  0.00    +0.000 A 
ENDBRANCH  25  36
ENDBRANCH   1  26
TORSDOF 5
ENDMDL
