MODEL 1
REMARK VINA RESULT:      -8.0      0.000      0.000
REMARK  Name = 
REMARK  9 active torsions:
REMARK  status: ('A' for Active; 'I' for Inactive)
REMARK    1  A    between atoms: C_1  and  C_2
REMARK    2  A    between atoms: C_6  and  O_7
REMARK    3  A    between atoms: O_7  and  C_8
REMARK    4  A    between atoms: C_8  and  C_9
REMARK    5  A    between atoms: C_9  and  O_10
REMARK    6  A    between atoms: C_9  and  C_11
REMARK    7  A    between atoms: C_11  and  N_12
REMARK    8  A    between atoms: N_15  and  C_16
REMARK    9  A    between atoms: C_16  and  C_17
REMARK                            x       y       z     vdW  Elec       q    Type
REMARK                         _______ _______ _______ _____ _____    ______ ____
ROOT
ATOM      1  N   UNL     1      -0.398  10.654  19.131  0.00  0.00    +0.000 N 
ATOM      2  C   UNL     1      -1.111  11.811  18.974  0.00  0.00    +0.000 A 
ATOM      3  N   UNL     1      -1.351  12.380  17.848  0.00  0.00    +0.000 NA
ATOM      4  N   UNL     1      -1.597  12.289  20.151  0.00  0.00    +0.000 N 
ATOM      5  C   UNL     1      -1.186  11.403  21.077  0.00  0.00    +0.000 A 
ATOM      6  C   UNL     1      -1.434  11.396  22.453  0.00  0.00    +0.000 A 
ATOM      7  C   UNL     1      -0.896  10.344  23.213  0.00  0.00    +0.000 A 
ATOM      8  C   UNL     1      -0.134   9.332  22.592  0.00  0.00    +0.000 A 
ATOM      9  C   UNL     1       0.096   9.357  21.205  0.00  0.00    +0.000 A 
ATOM     10  C   UNL     1      -0.448  10.417  20.467  0.00  0.00    +0.000 A 
ATOM     11  H   UNL     1      -1.021  12.017  16.948  0.00  0.00    +0.000 HD
ENDROOT
BRANCH   1  12
ATOM     12  C   UNL     1       0.218   9.786  18.105  0.00  0.00    +0.000 C 
BRANCH  12  13
ATOM     13  C   UNL     1       1.761   9.761  18.117  0.00  0.00    +0.000 C 
BRANCH  13  14
ATOM     14  O   UNL     1       2.258  10.900  17.455  0.00  0.00    +0.000 OA
ATOM     15  H   UNL     1       3.126  10.656  17.039  0.00  0.00    +0.000 HD
ENDBRANCH  13  14
BRANCH  13  16
ATOM     16  C   UNL     1       2.337   8.494  17.489  0.00  0.00    +0.000 C 
BRANCH  16  17
ATOM     17  O   UNL     1       2.949   7.742  18.474  0.00  0.00    +0.000 OA
BRANCH  17  23
ATOM     18  C   UNL     1       2.217   2.972  17.599  0.00  0.00    +0.000 C 
ATOM     19  C   UNL     1       2.144   4.148  18.523  0.00  0.00    +0.000 A 
ATOM     20  C   UNL     1       1.636   4.030  19.826  0.00  0.00    +0.000 A 
ATOM     21  C   UNL     1       1.577   5.153  20.659  0.00  0.00    +0.000 A 
ATOM     22  C   UNL     1       2.021   6.394  20.196  0.00  0.00    +0.000 A 
ATOM     23  C   UNL     1       2.532   6.524  18.896  0.00  0.00    +0.000 A 
ATOM     24  C   UNL     1       2.589   5.389  18.066  0.00  0.00    +0.000 A 
ENDBRANCH  17  23
ENDBRANCH  16  17
ENDBRANCH  13  16
ENDBRANCH  12  13
ENDBRANCH   1  12
BRANCH   4  25
ATOM     25  C   UNL     1      -2.476  13.451  20.334  0.00  0.00    +0.000 C 
BRANCH  25  26
ATOM     26  C   UNL     1      -3.905  13.047  20.587  0.00  0.00    +0.000 A 
ATOM     27  C   UNL     1      -4.647  12.400  19.584  0.00  0.00    +0.000 A 
ATOM     28  C   UNL     1      -5.962  11.993  19.832  0.00  0.00    +0.000 A 
ATOM     29  C   UNL     1      -6.544  12.223  21.082  0.00  0.00    +0.000 A 
ATOM     30  C   UNL     1      -5.813  12.865  22.084  0.00  0.00    +0.000 A 
ATOM     31  C   UNL     1      -4.500  13.278  21.839  0.00  0.00    +0.000 A 
ENDBRANCH  25  26
ENDBRANCH   4  25
TORSDOF 8
ENDMDL
MODEL 2
REMARK VINA RESULT:      -7.9      2.531      4.024
REMARK  Name = 
REMARK  9 active torsions:
REMARK  status: ('A' for Active; 'I' for Inactive)
REMARK    1  A    between atoms: C_1  and  C_2
REMARK    2  A    between atoms: C_6  and  O_7
REMARK    3  A    between atoms: O_7  and  C_8
REMARK    4  A    between atoms: C_8  and  C_9
REMARK    5  A    between atoms: C_9  and  O_10
REMARK    6  A    between atoms: C_9  and  C_11
REMARK    7  A    between atoms: C_11  and  N_12
REMARK    8  A    between atoms: N_15  and  C_16
REMARK    9  A    between atoms: C_16  and  C_17
REMARK                            x       y       z     vdW  Elec       q    Type
REMARK                         _______ _______ _______ _____ _____    ______ ____
ROOT
ATOM      1  N   UNL     1       1.714   8.698  19.678  0.00  0.00    +0.000 N 
ATOM      2  C   UNL     1       1.321   9.559  18.691  0.00  0.00    +0.000 A 
ATOM      3  N   UNL     1       1.673   9.476  17.459  0.00  0.00    +0.000 NA
ATOM      4  N   UNL     1       0.456  10.508  19.139  0.00  0.00    +0.000 N 
ATOM      5  C   UNL     1       0.292  10.233  20.447  0.00  0.00    +0.000 A 
ATOM      6  C   UNL     1      -0.519  10.881  21.384  0.00  0.00    +0.000 A 
ATOM      7  C   UNL     1      -0.523  10.393  22.701  0.00  0.00    +0.000 A 
ATOM      8  C   UNL     1       0.269   9.279  23.051  0.00  0.00    +0.000 A 
ATOM      9  C   UNL     1       1.071   8.639  22.089  0.00  0.00    +0.000 A 
ATOM     10  C   UNL     1       1.062   9.145  20.782  0.00  0.00    +0.000 A 
ATOM     11  H   UNL     1       2.298   8.748  17.097  0.00  0.00    +0.000 HD
ENDROOT
BRANCH   1  12
ATOM     12  C   UNL     1       2.571   7.496  19.588  0.00  0.00    +0.000 C 
BRANCH  12  13
ATOM     13  C   UNL     1       1.827   6.155  19.761  0.00  0.00    +0.000 C 
BRANCH  13  14
ATOM     14  O   UNL     1       2.200   5.561  20.982  0.00  0.00    +0.000 OA
ATOM     15  H   UNL     1       1.840   6.124  21.717  0.00  0.00    +0.000 HD
ENDBRANCH  13  14
BRANCH  13  16
ATOM     16  C   UNL     1       2.078   5.186  18.607  0.00  0.00    +0.000 C 
BRANCH  16  17
ATOM     17  O   UNL     1       3.177   4.402  18.909  0.00  0.00    +0.000 OA
BRANCH  17  23
ATOM     18  C   UNL     1       7.870   5.799  19.192  0.00  0.00    +0.000 C 
ATOM     19  C   UNL     1       6.739   5.196  18.416  0.00  0.00    +0.000 A 
ATOM     20  C   UNL     1       6.906   4.759  17.093  0.00  0.00    +0.000 A 
ATOM     21  C   UNL     1       5.825   4.206  16.397  0.00  0.00    +0.000 A 
ATOM     22  C   UNL     1       4.577   4.090  17.016  0.00  0.00    +0.000 A 
ATOM     23  C   UNL     1       4.400   4.523  18.338  0.00  0.00    +0.000 A 
ATOM     24  C   UNL     1       5.492   5.075  19.030  0.00  0.00    +0.000 A 
ENDBRANCH  17  23
ENDBRANCH  16  17
ENDBRANCH  13  16
ENDBRANCH  12  13
ENDBRANCH   1  12
BRANCH   4  25
ATOM     25  C   UNL     1      -0.231  11.526  18.334  0.00  0.00    +0.000 C 
BRANCH  25  26
ATOM     26  C   UNL     1      -1.664  11.156  18.055  0.00  0.00    +0.000 A 
ATOM     27  C   UNL     1      -2.712  11.879  18.649  0.00  0.00    +0.000 A 
ATOM     28  C   UNL     1      -4.043  11.558  18.361  0.00  0.00    +0.000 A 
ATOM     29  C   UNL     1      -4.337  10.518  17.475  0.00  0.00    +0.000 A 
ATOM     30  C   UNL     1      -3.302   9.794  16.880  0.00  0.00    +0.000 A 
ATOM     31  C   UNL     1      -1.970  10.108  17.169  0.00  0.00    +0.000 A 
ENDBRANCH  25  26
ENDBRANCH   4  25
TORSDOF 8
ENDMDL
MODEL 3
REMARK VINA RESULT:      -7.9      2.532      3.904
REMARK  Name = 
REMARK  9 active torsions:
REMARK  status: ('A' for Active; 'I' for Inactive)
REMARK    1  A    between atoms: C_1  and  C_2
REMARK    2  A    between atoms: C_6  and  O_7
REMARK    3  A    between atoms: O_7  and  C_8
REMARK    4  A    between atoms: C_8  and  C_9
REMARK    5  A    between atoms: C_9  and  O_10
REMARK    6  A    between atoms: C_9  and  C_11
REMARK    7  A    between atoms: C_11  and  N_12
REMARK    8  A    between atoms: N_15  and  C_16
REMARK    9  A    between atoms: C_16  and  C_17
REMARK                            x       y       z     vdW  Elec       q    Type
REMARK                         _______ _______ _______ _____ _____    ______ ____
ROOT
ATOM      1  N   UNL     1       1.749   8.676  19.645  0.00  0.00    +0.000 N 
ATOM      2  C   UNL     1       1.362   9.547  18.665  0.00  0.00    +0.000 A 
ATOM      3  N   UNL     1       1.732   9.485  17.437  0.00  0.00    +0.000 NA
ATOM      4  N   UNL     1       0.483  10.482  19.114  0.00  0.00    +0.000 N 
ATOM      5  C   UNL     1       0.304  10.188  20.416  0.00  0.00    +0.000 A 
ATOM      6  C   UNL     1      -0.525  10.816  21.350  0.00  0.00    +0.000 A 
ATOM      7  C   UNL     1      -0.542  10.309  22.660  0.00  0.00    +0.000 A 
ATOM      8  C   UNL     1       0.255   9.198  23.006  0.00  0.00    +0.000 A 
ATOM      9  C   UNL     1       1.075   8.578  22.046  0.00  0.00    +0.000 A 
ATOM     10  C   UNL     1       1.079   9.102  20.746  0.00  0.00    +0.000 A 
ATOM     11  H   UNL     1       2.367   8.767  17.072  0.00  0.00    +0.000 HD
ENDROOT
BRANCH   1  12
ATOM     12  C   UNL     1       2.617   7.483  19.550  0.00  0.00    +0.000 C 
BRANCH  12  13
ATOM     13  C   UNL     1       1.872   6.132  19.597  0.00  0.00    +0.000 C 
BRANCH  13  14
ATOM     14  O   UNL     1       2.201   5.452  20.785  0.00  0.00    +0.000 OA
ATOM     15  H   UNL     1       2.462   4.524  20.543  0.00  0.00    +0.000 HD
ENDBRANCH  13  14
BRANCH  13  16
ATOM     16  C   UNL     1       2.168   5.250  18.387  0.00  0.00    +0.000 C 
BRANCH  16  17
ATOM     17  O   UNL     1       3.243   4.430  18.679  0.00  0.00    +0.000 OA
BRANCH  17  23
ATOM     18  C   UNL     1       6.151   3.898  14.766  0.00  0.00    +0.000 C 
ATOM     19  C   UNL     1       5.965   4.278  16.203  0.00  0.00    +0.000 A 
ATOM     20  C   UNL     1       7.038   4.718  16.993  0.00  0.00    +0.000 A 
ATOM     21  C   UNL     1       6.827   5.059  18.334  0.00  0.00    +0.000 A 
ATOM     22  C   UNL     1       5.549   4.959  18.890  0.00  0.00    +0.000 A 
ATOM     23  C   UNL     1       4.469   4.521  18.110  0.00  0.00    +0.000 A 
ATOM     24  C   UNL     1       4.690   4.183  16.762  0.00  0.00    +0.000 A 
ENDBRANCH  17  23
ENDBRANCH  16  17
ENDBRANCH  13  16
ENDBRANCH  12  13
ENDBRANCH   1  12
BRANCH   4  25
ATOM     25  C   UNL     1      -0.202  11.505  18.314  0.00  0.00    +0.000 C 
BRANCH  25  26
ATOM     26  C   UNL     1      -1.637  11.141  18.036  0.00  0.00    +0.000 A 
ATOM     27  C   UNL     1      -2.681  11.851  18.652  0.00  0.00    +0.000 A 
ATOM     28  C   UNL     1      -4.013  11.536  18.365  0.00  0.00    +0.000 A 
ATOM     29  C   UNL     1      -4.313  10.515  17.459  0.00  0.00    +0.000 A 
ATOM     30  C   UNL     1      -3.281   9.805  16.842  0.00  0.00    +0.000 A 
ATOM     31  C   UNL     1      -1.948  10.113  17.129  0.00  0.00    +0.000 A 
ENDBRANCH  25  26
ENDBRANCH   4  25
TORSDOF 8
ENDMDL
MODEL 4
REMARK VINA RESULT:      -7.8      6.462      9.926
REMARK  Name = 
REMARK  9 active torsions:
REMARK  status: ('A' for Active; 'I' for Inactive)
REMARK    1  A    between atoms: C_1  and  C_2
REMARK    2  A    between atoms: C_6  and  O_7
REMARK    3  A    between atoms: O_7  and  C_8
REMARK    4  A    between atoms: C_8  and  C_9
REMARK    5  A    between atoms: C_9  and  O_10
REMARK    6  A    between atoms: C_9  and  C_11
REMARK    7  A    between atoms: C_11  and  N_12
REMARK    8  A    between atoms: N_15  and  C_16
REMARK    9  A    between atoms: C_16  and  C_17
REMARK                            x       y       z     vdW  Elec       q    Type
REMARK                         _______ _______ _______ _____ _____    ______ ____
ROOT
ATOM      1  N   UNL     1       6.088   6.155  17.494  0.00  0.00    +0.000 N 
ATOM      2  C   UNL     1       6.152   4.939  18.116  0.00  0.00    +0.000 A 
ATOM      3  N   UNL     1       7.188   4.182  18.147  0.00  0.00    +0.000 NA
ATOM      4  N   UNL     1       4.997   4.621  18.761  0.00  0.00    +0.000 N 
ATOM      5  C   UNL     1       4.183   5.671  18.545  0.00  0.00    +0.000 A 
ATOM      6  C   UNL     1       2.881   5.879  19.010  0.00  0.00    +0.000 A 
ATOM      7  C   UNL     1       2.238   7.076  18.650  0.00  0.00    +0.000 A 
ATOM      8  C   UNL     1       2.899   8.028  17.848  0.00  0.00    +0.000 A 
ATOM      9  C   UNL     1       4.213   7.799  17.399  0.00  0.00    +0.000 A 
ATOM     10  C   UNL     1       4.834   6.598  17.767  0.00  0.00    +0.000 A 
ATOM     11  H   UNL     1       8.077   4.420  17.695  0.00  0.00    +0.000 HD
ENDROOT
BRANCH   1  12
ATOM     12  C   UNL     1       7.142   6.891  16.764  0.00  0.00    +0.000 C 
BRANCH  12  13
ATOM     13  C   UNL     1       8.204   7.562  17.660  0.00  0.00    +0.000 C 
BRANCH  13  14
ATOM     14  O   UNL     1       8.212   6.947  18.927  0.00  0.00    +0.000 OA
ATOM     15  H   UNL     1       7.571   7.434  19.507  0.00  0.00    +0.000 HD
ENDBRANCH  13  14
BRANCH  13  16
ATOM     16  C   UNL     1       7.987   9.067  17.809  0.00  0.00    +0.000 C 
BRANCH  16  17
ATOM     17  O   UNL     1       8.564   9.490  18.992  0.00  0.00    +0.000 OA
BRANCH  17  23
ATOM     18  C   UNL     1      11.279  13.011  16.921  0.00  0.00    +0.000 C 
ATOM     19  C   UNL     1      10.773  12.313  18.146  0.00  0.00    +0.000 A 
ATOM     20  C   UNL     1      11.159  12.715  19.434  0.00  0.00    +0.000 A 
ATOM     21  C   UNL     1      10.671  12.035  20.556  0.00  0.00    +0.000 A 
ATOM     22  C   UNL     1       9.800  10.954  20.396  0.00  0.00    +0.000 A 
ATOM     23  C   UNL     1       9.406  10.545  19.114  0.00  0.00    +0.000 A 
ATOM     24  C   UNL     1       9.900  11.235  17.993  0.00  0.00    +0.000 A 
ENDBRANCH  17  23
ENDBRANCH  16  17
ENDBRANCH  13  16
ENDBRANCH  12  13
ENDBRANCH   1  12
BRANCH   4  25
ATOM     25  C   UNL     1       4.754   3.442  19.602  0.00  0.00    +0.000 C 
BRANCH  25  26
ATOM     26  C   UNL     1       3.299   3.055  19.627  0.00  0.00    +0.000 A 
ATOM     27  C   UNL     1       2.540   3.220  20.799  0.00  0.00    +0.000 A 
ATOM     28  C   UNL     1       1.180   2.894  20.810  0.00  0.00    +0.000 A 
ATOM     29  C   UNL     1       0.566   2.405  19.654  0.00  0.00    +0.000 A 
ATOM     30  C   UNL     1       1.313   2.238  18.485  0.00  0.00    +0.000 A 
ATOM     31  C   UNL     1       2.674   2.557  18.470  0.00  0.00    +0.000 A 
ENDBRANCH  25  26
ENDBRANCH   4  25
TORSDOF 8
ENDMDL
MODEL 5
REMARK VINA RESULT:      -7.8      6.426      9.755
REMARK  Name = 
REMARK  9 active torsions:
REMARK  status: ('A' for Active; 'I' for Inactive)
REMARK    1  A    between atoms: C_1  and  C_2
REMARK    2  A    between atoms: C_6  and  O_7
REMARK    3  A    between atoms: O_7  and  C_8
REMARK    4  A    between atoms: C_8  and  C_9
REMARK    5  A    between atoms: C_9  and  O_10
REMARK    6  A    between atoms: C_9  and  C_11
REMARK    7  A    between atoms: C_11  and  N_12
REMARK    8  A    between atoms: N_15  and  C_16
REMARK    9  A    between atoms: C_16  and  C_17
REMARK                            x       y       z     vdW  Elec       q    Type
REMARK                         _______ _______ _______ _____ _____    ______ ____
ROOT
ATOM      1  N   UNL     1       5.584   5.858  16.773  0.00  0.00    +0.000 N 
ATOM      2  C   UNL     1       5.357   4.510  16.832  0.00  0.00    +0.000 A 
ATOM      3  N   UNL     1       6.216   3.606  16.528  0.00  0.00    +0.000 NA
ATOM      4  N   UNL     1       4.118   4.210  17.305  0.00  0.00    +0.000 N 
ATOM      5  C   UNL     1       3.548   5.402  17.559  0.00  0.00    +0.000 A 
ATOM      6  C   UNL     1       2.283   5.674  18.090  0.00  0.00    +0.000 A 
ATOM      7  C   UNL     1       1.921   7.019  18.271  0.00  0.00    +0.000 A 
ATOM      8  C   UNL     1       2.817   8.052  17.926  0.00  0.00    +0.000 A 
ATOM      9  C   UNL     1       4.088   7.754  17.401  0.00  0.00    +0.000 A 
ATOM     10  C   UNL     1       4.427   6.406  17.226  0.00  0.00    +0.000 A 
ATOM     11  H   UNL     1       7.165   3.813  16.201  0.00  0.00    +0.000 HD
ENDROOT
BRANCH   1  12
ATOM     12  C   UNL     1       6.815   6.586  16.398  0.00  0.00    +0.000 C 
BRANCH  12  13
ATOM     13  C   UNL     1       7.715   6.991  17.584  0.00  0.00    +0.000 C 
BRANCH  13  14
ATOM     14  O   UNL     1       7.273   6.348  18.756  0.00  0.00    +0.000 OA
ATOM     15  H   UNL     1       7.359   5.368  18.617  0.00  0.00    +0.000 HD
ENDBRANCH  13  14
BRANCH  13  16
ATOM     16  C   UNL     1       7.764   8.502  17.801  0.00  0.00    +0.000 C 
BRANCH  16  17
ATOM     17  O   UNL     1       8.764   8.795  18.710  0.00  0.00    +0.000 OA
BRANCH  17  23
ATOM     18  C   UNL     1      10.694  13.032  17.171  0.00  0.00    +0.000 C 
ATOM     19  C   UNL     1      10.188  12.164  18.281  0.00  0.00    +0.000 A 
ATOM     20  C   UNL     1      10.193  12.598  19.616  0.00  0.00    +0.000 A 
ATOM     21  C   UNL     1       9.717  11.756  20.628  0.00  0.00    +0.000 A 
ATOM     22  C   UNL     1       9.239  10.482  20.313  0.00  0.00    +0.000 A 
ATOM     23  C   UNL     1       9.229  10.038  18.983  0.00  0.00    +0.000 A 
ATOM     24  C   UNL     1       9.706  10.891  17.972  0.00  0.00    +0.000 A 
ENDBRANCH  17  23
ENDBRANCH  16  17
ENDBRANCH  13  16
ENDBRANCH  12  13
ENDBRANCH   1  12
BRANCH   4  25
ATOM     25  C   UNL     1       3.582   2.871  17.583  0.00  0.00    +0.000 C 
BRANCH  25  26
ATOM     26  C   UNL     1       2.810   2.827  18.875  0.00  0.00    +0.000 A 
ATOM     27  C   UNL     1       3.487   2.845  20.107  0.00  0.00    +0.000 A 
ATOM     28  C   UNL     1       2.768   2.840  21.307  0.00  0.00    +0.000 A 
ATOM     29  C   UNL     1       1.371   2.822  21.287  0.00  0.00    +0.000 A 
ATOM     30  C   UNL     1       0.690   2.805  20.068  0.00  0.00    +0.000 A 
ATOM     31  C   UNL     1       1.404   2.804  18.866  0.00  0.00    +0.000 A 
ENDBRANCH  25  26
ENDBRANCH   4  25
TORSDOF 8
ENDMDL
MODEL 6
REMARK VINA RESULT:      -7.8      7.612     10.680
REMARK  Name = 
REMARK  9 active torsions:
REMARK  status: ('A' for Active; 'I' for Inactive)
REMARK    1  A    between atoms: C_1  and  C_2
REMARK    2  A    between atoms: C_6  and  O_7
REMARK    3  A    between atoms: O_7  and  C_8
REMARK    4  A    between atoms: C_8  and  C_9
REMARK    5  A    between atoms: C_9  and  O_10
REMARK    6  A    between atoms: C_9  and  C_11
REMARK    7  A    between atoms: C_11  and  N_12
REMARK    8  A    between atoms: N_15  and  C_16
REMARK    9  A    between atoms: C_16  and  C_17
REMARK                            x       y       z     vdW  Elec       q    Type
REMARK                         _______ _______ _______ _____ _____    ______ ____
ROOT
ATOM      1  N   UNL     1       6.096   6.135  17.527  0.00  0.00    +0.000 N 
ATOM      2  C   UNL     1       5.666   5.245  18.473  0.00  0.00    +0.000 A 
ATOM      3  N   UNL     1       5.476   5.523  19.712  0.00  0.00    +0.000 NA
ATOM      4  N   UNL     1       5.403   4.017  17.952  0.00  0.00    +0.000 N 
ATOM      5  C   UNL     1       5.668   4.137  16.638  0.00  0.00    +0.000 A 
ATOM      6  C   UNL     1       5.537   3.180  15.627  0.00  0.00    +0.000 A 
ATOM      7  C   UNL     1       5.872   3.558  14.316  0.00  0.00    +0.000 A 
ATOM      8  C   UNL     1       6.321   4.867  14.043  0.00  0.00    +0.000 A 
ATOM      9  C   UNL     1       6.437   5.814  15.076  0.00  0.00    +0.000 A 
ATOM     10  C   UNL     1       6.100   5.415  16.376  0.00  0.00    +0.000 A 
ATOM     11  H   UNL     1       5.637   6.451  20.116  0.00  0.00    +0.000 HD
ENDROOT
BRANCH   1  12
ATOM     12  C   UNL     1       6.405   7.574  17.667  0.00  0.00    +0.000 C 
BRANCH  12  13
ATOM     13  C   UNL     1       7.907   7.908  17.777  0.00  0.00    +0.000 C 
BRANCH  13  14
ATOM     14  O   UNL     1       8.450   7.277  18.913  0.00  0.00    +0.000 OA
ATOM     15  H   UNL     1       7.697   7.008  19.501  0.00  0.00    +0.000 HD
ENDBRANCH  13  14
BRANCH  13  16
ATOM     16  C   UNL     1       8.178   9.410  17.831  0.00  0.00    +0.000 C 
BRANCH  16  17
ATOM     17  O   UNL     1       8.925   9.693  18.960  0.00  0.00    +0.000 OA
BRANCH  17  23
ATOM     18  C   UNL     1      11.754  13.167  16.964  0.00  0.00    +0.000 C 
ATOM     19  C   UNL     1      11.162  12.511  18.174  0.00  0.00    +0.000 A 
ATOM     20  C   UNL     1      11.442  12.968  19.471  0.00  0.00    +0.000 A 
ATOM     21  C   UNL     1      10.875  12.326  20.578  0.00  0.00    +0.000 A 
ATOM     22  C   UNL     1      10.031  11.228  20.395  0.00  0.00    +0.000 A 
ATOM     23  C   UNL     1       9.743  10.763  19.104  0.00  0.00    +0.000 A 
ATOM     24  C   UNL     1      10.316  11.416  17.997  0.00  0.00    +0.000 A 
ENDBRANCH  17  23
ENDBRANCH  16  17
ENDBRANCH  13  16
ENDBRANCH  12  13
ENDBRANCH   1  12
BRANCH   4  25
ATOM     25  C   UNL     1       4.840   2.861  18.662  0.00  0.00    +0.000 C 
BRANCH  25  26
ATOM     26  C   UNL     1       3.397   3.073  19.037  0.00  0.00    +0.000 A 
ATOM     27  C   UNL     1       2.990   2.969  20.378  0.00  0.00    +0.000 A 
ATOM     28  C   UNL     1       1.657   3.202  20.730  0.00  0.00    +0.000 A 
ATOM     29  C   UNL     1       0.722   3.545  19.749  0.00  0.00    +0.000 A 
ATOM     30  C   UNL     1       1.118   3.651  18.415  0.00  0.00    +0.000 A 
ATOM     31  C   UNL     1       2.449   3.414  18.057  0.00  0.00    +0.000 A 
ENDBRANCH  25  26
ENDBRANCH   4  25
TORSDOF 8
ENDMDL
MODEL 7
REMARK VINA RESULT:      -7.8      3.137      8.993
REMARK  Name = 
REMARK  9 active torsions:
REMARK  status: ('A' for Active; 'I' for Inactive)
REMARK    1  A    between atoms: C_1  and  C_2
REMARK    2  A    between atoms: C_6  and  O_7
REMARK    3  A    between atoms: O_7  and  C_8
REMARK    4  A    between atoms: C_8  and  C_9
REMARK    5  A    between atoms: C_9  and  O_10
REMARK    6  A    between atoms: C_9  and  C_11
REMARK    7  A    between atoms: C_11  and  N_12
REMARK    8  A    between atoms: N_15  and  C_16
REMARK    9  A    between atoms: C_16  and  C_17
REMARK                            x       y       z     vdW  Elec       q    Type
REMARK                         _______ _______ _______ _____ _____    ______ ____
ROOT
ATOM      1  N   UNL     1       1.784   6.113  20.031  0.00  0.00    +0.000 N 
ATOM      2  C   UNL     1       2.575   6.563  19.010  0.00  0.00    +0.000 A 
ATOM      3  N   UNL     1       2.804   7.798  18.746  0.00  0.00    +0.000 NA
ATOM      4  N   UNL     1       3.153   5.549  18.311  0.00  0.00    +0.000 N 
ATOM      5  C   UNL     1       2.720   4.426  18.914  0.00  0.00    +0.000 A 
ATOM      6  C   UNL     1       3.033   3.096  18.617  0.00  0.00    +0.000 A 
ATOM      7  C   UNL     1       2.452   2.091  19.409  0.00  0.00    +0.000 A 
ATOM      8  C   UNL     1       1.586   2.429  20.469  0.00  0.00    +0.000 A 
ATOM      9  C   UNL     1       1.292   3.775  20.753  0.00  0.00    +0.000 A 
ATOM     10  C   UNL     1       1.880   4.761  19.949  0.00  0.00    +0.000 A 
ATOM     11  H   UNL     1       2.404   8.575  19.282  0.00  0.00    +0.000 HD
ENDROOT
BRANCH   1  12
ATOM     12  C   UNL     1       1.055   6.883  21.061  0.00  0.00    +0.000 C 
BRANCH  12  13
ATOM     13  C   UNL     1       1.315   8.404  21.039  0.00  0.00    +0.000 C 
BRANCH  13  14
ATOM     14  O   UNL     1       2.006   8.783  22.206  0.00  0.00    +0.000 OA
ATOM     15  H   UNL     1       1.395   8.656  22.978  0.00  0.00    +0.000 HD
ENDBRANCH  13  14
BRANCH  13  16
ATOM     16  C   UNL     1       0.033   9.222  20.899  0.00  0.00    +0.000 C 
BRANCH  16  17
ATOM     17  O   UNL     1       0.123  10.009  19.765  0.00  0.00    +0.000 OA
BRANCH  17  23
ATOM     18  C   UNL     1      -2.642   9.853  15.718  0.00  0.00    +0.000 C 
ATOM     19  C   UNL     1      -2.343  10.438  17.064  0.00  0.00    +0.000 A 
ATOM     20  C   UNL     1      -3.125  11.468  17.609  0.00  0.00    +0.000 A 
ATOM     21  C   UNL     1      -2.812  11.994  18.868  0.00  0.00    +0.000 A 
ATOM     22  C   UNL     1      -1.720  11.496  19.584  0.00  0.00    +0.000 A 
ATOM     23  C   UNL     1      -0.933  10.466  19.049  0.00  0.00    +0.000 A 
ATOM     24  C   UNL     1      -1.256   9.943  17.785  0.00  0.00    +0.000 A 
ENDBRANCH  17  23
ENDBRANCH  16  17
ENDBRANCH  13  16
ENDBRANCH  12  13
ENDBRANCH   1  12
BRANCH   4  25
ATOM     25  C   UNL     1       4.127   5.674  17.219  0.00  0.00    +0.000 C 
BRANCH  25  26
ATOM     26  C   UNL     1       5.495   6.053  17.720  0.00  0.00    +0.000 A 
ATOM     27  C   UNL     1       6.094   5.328  18.764  0.00  0.00    +0.000 A 
ATOM     28  C   UNL     1       7.380   5.658  19.205  0.00  0.00    +0.000 A 
ATOM     29  C   UNL     1       8.079   6.709  18.604  0.00  0.00    +0.000 A 
ATOM     30  C   UNL     1       7.491   7.434  17.566  0.00  0.00    +0.000 A 
ATOM     31  C   UNL     1       6.204   7.112  17.126  0.00  0.00    +0.000 A 
ENDBRANCH  25  26
ENDBRANCH   4  25
TORSDOF 8
ENDMDL
MODEL 8
REMARK VINA RESULT:      -7.7      0.719      1.193
REMARK  Name = 
REMARK  9 active torsions:
REMARK  status: ('A' for Active; 'I' for Inactive)
REMARK    1  A    between atoms: C_1  and  C_2
REMARK    2  A    between atoms: C_6  and  O_7
REMARK    3  A    between atoms: O_7  and  C_8
REMARK    4  A    between atoms: C_8  and  C_9
REMARK    5  A    between atoms: C_9  and  O_10
REMARK    6  A    between atoms: C_9  and  C_11
REMARK    7  A    between atoms: C_11  and  N_12
REMARK    8  A    between atoms: N_15  and  C_16
REMARK    9  A    between atoms: C_16  and  C_17
REMARK                            x       y       z     vdW  Elec       q    Type
REMARK                         _______ _______ _______ _____ _____    ______ ____
ROOT
ATOM      1  N   UNL     1      -0.348  10.748  19.153  0.00  0.00    +0.000 N 
ATOM      2  C   UNL     1      -1.097  11.885  19.011  0.00  0.00    +0.000 A 
ATOM      3  N   UNL     1      -1.346  12.465  17.893  0.00  0.00    +0.000 NA
ATOM      4  N   UNL     1      -1.609  12.324  20.191  0.00  0.00    +0.000 N 
ATOM      5  C   UNL     1      -1.177  11.436  21.105  0.00  0.00    +0.000 A 
ATOM      6  C   UNL     1      -1.437  11.395  22.479  0.00  0.00    +0.000 A 
ATOM      7  C   UNL     1      -0.871  10.348  23.225  0.00  0.00    +0.000 A 
ATOM      8  C   UNL     1      -0.071   9.373  22.593  0.00  0.00    +0.000 A 
ATOM      9  C   UNL     1       0.170   9.431  21.208  0.00  0.00    +0.000 A 
ATOM     10  C   UNL     1      -0.402  10.485  20.484  0.00  0.00    +0.000 A 
ATOM     11  H   UNL     1      -0.996  12.130  16.990  0.00  0.00    +0.000 HD
ENDROOT
BRANCH   1  12
ATOM     12  C   UNL     1       0.305   9.920  18.117  0.00  0.00    +0.000 C 
BRANCH  12  13
ATOM     13  C   UNL     1       1.847   9.922  18.162  0.00  0.00    +0.000 C 
BRANCH  13  14
ATOM     14  O   UNL     1       2.345  10.893  17.271  0.00  0.00    +0.000 OA
ATOM     15  H   UNL     1       2.596  10.433  16.428  0.00  0.00    +0.000 HD
ENDBRANCH  13  14
BRANCH  13  16
ATOM     16  C   UNL     1       2.451   8.557  17.841  0.00  0.00    +0.000 C 
BRANCH  16  17
ATOM     17  O   UNL     1       2.097   7.663  18.836  0.00  0.00    +0.000 OA
BRANCH  17  23
ATOM     18  C   UNL     1       4.512   3.856  16.905  0.00  0.00    +0.000 C 
ATOM     19  C   UNL     1       3.738   4.465  18.034  0.00  0.00    +0.000 A 
ATOM     20  C   UNL     1       3.453   3.745  19.204  0.00  0.00    +0.000 A 
ATOM     21  C   UNL     1       2.721   4.345  20.235  0.00  0.00    +0.000 A 
ATOM     22  C   UNL     1       2.272   5.661  20.102  0.00  0.00    +0.000 A 
ATOM     23  C   UNL     1       2.551   6.391  18.937  0.00  0.00    +0.000 A 
ATOM     24  C   UNL     1       3.289   5.780  17.907  0.00  0.00    +0.000 A 
ENDBRANCH  17  23
ENDBRANCH  16  17
ENDBRANCH  13  16
ENDBRANCH  12  13
ENDBRANCH   1  12
BRANCH   4  25
ATOM     25  C   UNL     1      -2.527  13.453  20.387  0.00  0.00    +0.000 C 
BRANCH  25  26
ATOM     26  C   UNL     1      -3.945  12.999  20.609  0.00  0.00    +0.000 A 
ATOM     27  C   UNL     1      -4.572  13.209  21.850  0.00  0.00    +0.000 A 
ATOM     28  C   UNL     1      -5.901  12.818  22.043  0.00  0.00    +0.000 A 
ATOM     29  C   UNL     1      -6.616  12.221  21.001  0.00  0.00    +0.000 A 
ATOM     30  C   UNL     1      -6.001  12.010  19.765  0.00  0.00    +0.000 A 
ATOM     31  C   UNL     1      -4.670  12.393  19.568  0.00  0.00    +0.000 A 
ENDBRANCH  25  26
ENDBRANCH   4  25
TORSDOF 8
ENDMDL
MODEL 9
REMARK VINA RESULT:      -7.7      3.777      9.978
REMARK  Name = 
REMARK  9 active torsions:
REMARK  status: ('A' for Active; 'I' for Inactive)
REMARK    1  A    between atoms: C_1  and  C_2
REMARK    2  A    between atoms: C_6  and  O_7
REMARK    3  A    between atoms: O_7  and  C_8
REMARK    4  A    between atoms: C_8  and  C_9
REMARK    5  A    between atoms: C_9  and  O_10
REMARK    6  A    between atoms: C_9  and  C_11
REMARK    7  A    between atoms: C_11  and  N_12
REMARK    8  A    between atoms: N_15  and  C_16
REMARK    9  A    between atoms: C_16  and  C_17
REMARK                            x       y       z     vdW  Elec       q    Type
REMARK                         _______ _______ _______ _____ _____    ______ ____
ROOT
ATOM      1  N   UNL     1       2.943   5.985  17.914  0.00  0.00    +0.000 N 
ATOM      2  C   UNL     1       4.246   5.997  17.497  0.00  0.00    +0.000 A 
ATOM      3  N   UNL     1       4.944   7.057  17.299  0.00  0.00    +0.000 NA
ATOM      4  N   UNL     1       4.762   4.747  17.357  0.00  0.00    +0.000 N 
ATOM      5  C   UNL     1       3.757   3.920  17.702  0.00  0.00    +0.000 A 
ATOM      6  C   UNL     1       3.755   2.523  17.766  0.00  0.00    +0.000 A 
ATOM      7  C   UNL     1       2.570   1.885  18.170  0.00  0.00    +0.000 A 
ATOM      8  C   UNL     1       1.428   2.644  18.501  0.00  0.00    +0.000 A 
ATOM      9  C   UNL     1       1.458   4.049  18.437  0.00  0.00    +0.000 A 
ATOM     10  C   UNL     1       2.649   4.664  18.029  0.00  0.00    +0.000 A 
ATOM     11  H   UNL     1       4.582   8.007  17.431  0.00  0.00    +0.000 HD
ENDROOT
BRANCH   1  12
ATOM     12  C   UNL     1       2.058   7.117  18.259  0.00  0.00    +0.000 C 
BRANCH  12  13
ATOM     13  C   UNL     1       2.237   7.668  19.689  0.00  0.00    +0.000 C 
BRANCH  13  14
ATOM     14  O   UNL     1       1.941   6.660  20.626  0.00  0.00    +0.000 OA
ATOM     15  H   UNL     1       1.512   5.908  20.139  0.00  0.00    +0.000 HD
ENDBRANCH  13  14
BRANCH  13  16
ATOM     16  C   UNL     1       1.380   8.903  19.959  0.00  0.00    +0.000 C 
BRANCH  16  17
ATOM     17  O   UNL     1       0.855   9.358  18.763  0.00  0.00    +0.000 OA
BRANCH  17  23
ATOM     18  C   UNL     1      -3.076  10.659  16.136  0.00  0.00    +0.000 C 
ATOM     19  C   UNL     1      -2.253  10.771  17.382  0.00  0.00    +0.000 A 
ATOM     20  C   UNL     1      -2.620  11.626  18.433  0.00  0.00    +0.000 A 
ATOM     21  C   UNL     1      -1.822  11.709  19.580  0.00  0.00    +0.000 A 
ATOM     22  C   UNL     1      -0.658  10.942  19.681  0.00  0.00    +0.000 A 
ATOM     23  C   UNL     1      -0.282  10.084  18.638  0.00  0.00    +0.000 A 
ATOM     24  C   UNL     1      -1.091  10.006  17.490  0.00  0.00    +0.000 A 
ENDBRANCH  17  23
ENDBRANCH  16  17
ENDBRANCH  13  16
ENDBRANCH  12  13
ENDBRANCH   1  12
BRANCH   4  25
ATOM     25  C   UNL     1       6.147   4.398  17.018  0.00  0.00    +0.000 C 
BRANCH  25  26
ATOM     26  C   UNL     1       6.375   4.362  15.530  0.00  0.00    +0.000 A 
ATOM     27  C   UNL     1       5.529   3.605  14.701  0.00  0.00    +0.000 A 
ATOM     28  C   UNL     1       5.719   3.601  13.315  0.00  0.00    +0.000 A 
ATOM     29  C   UNL     1       6.749   4.354  12.746  0.00  0.00    +0.000 A 
ATOM     30  C   UNL     1       7.594   5.109  13.562  0.00  0.00    +0.000 A 
ATOM     31  C   UNL     1       7.412   5.113  14.948  0.00  0.00    +0.000 A 
ENDBRANCH  25  26
ENDBRANCH   4  25
TORSDOF 8
ENDMDL
