MODEL 1
REMARK VINA RESULT:      -6.9      0.000      0.000
REMARK  Name = 
REMARK  10 active torsions:
REMARK  status: ('A' for Active; 'I' for Inactive)
REMARK    1  A    between atoms: C_2  and  C_3
REMARK    2  A    between atoms: C_6  and  C_7
REMARK    3  A    between atoms: N_9  and  N_10
REMARK    4  A    between atoms: N_10  and  C_21
REMARK    5  A    between atoms: C_11  and  C_13
REMARK    6  A    between atoms: C_15  and  C_16
REMARK    7  A    between atoms: C_18  and  C_19
REMARK    8  A    between atoms: C_21  and  C_22
REMARK    9  A    between atoms: C_21  and  C_23
REMARK   10  A    between atoms: C_21  and  C_24
REMARK                            x       y       z     vdW  Elec       q    Type
REMARK                         _______ _______ _______ _____ _____    ______ ____
ROOT
ATOM      1  N   UNL     1      -1.344  11.509  21.084  0.00  0.00    +0.000 N 
ATOM      2  C   UNL     1      -1.648  11.566  22.488  0.00  0.00    +0.000 C 
ATOM      3  O   UNL     1      -1.308  10.651  23.248  0.00  0.00    +0.000 OA
ENDROOT
BRANCH   2   4
ATOM      4  C   UNL     1      -2.438  12.697  23.149  0.00  0.00    +0.000 A 
ATOM      5  C   UNL     1      -3.817  12.693  23.315  0.00  0.00    +0.000 A 
ATOM      6  C   UNL     1      -4.580  13.681  23.933  0.00  0.00    +0.000 A 
ATOM      7  C   UNL     1      -6.070  13.498  23.960  0.00  0.00    +0.000 C 
ATOM      8  C   UNL     1      -3.914  14.761  24.474  0.00  0.00    +0.000 A 
ATOM      9  C   UNL     1      -2.514  14.838  24.365  0.00  0.00    +0.000 A 
ATOM     10  C   UNL     1      -1.805  16.022  24.956  0.00  0.00    +0.000 C 
ATOM     11  C   UNL     1      -1.785  13.815  23.692  0.00  0.00    +0.000 A 
ENDBRANCH   2   4
BRANCH   1  14
ATOM     12  C   UNL     1       0.769  10.293  20.609  0.00  0.00    +0.000 C 
ATOM     13  O   UNL     1       1.528  11.111  21.101  0.00  0.00    +0.000 OA
ATOM     14  N   UNL     1      -0.624  10.350  20.624  0.00  0.00    +0.000 N 
ATOM     15  H   UNL     1      -1.177   9.588  20.263  0.00  0.00    +0.000 HD
BRANCH  12  19
ATOM     16  C   UNL     1       2.491   6.887  18.559  0.00  0.00    +0.000 A 
ATOM     17  C   UNL     1       2.190   6.833  19.927  0.00  0.00    +0.000 A 
ATOM     18  C   UNL     1       1.624   7.935  20.586  0.00  0.00    +0.000 A 
ATOM     19  C   UNL     1       1.336   9.116  19.882  0.00  0.00    +0.000 A 
ATOM     20  C   UNL     1       1.670   9.184  18.524  0.00  0.00    +0.000 A 
ATOM     21  C   UNL     1       2.241   8.083  17.872  0.00  0.00    +0.000 A 
BRANCH  16  23
ATOM     22  C   UNL     1       2.501   4.506  17.797  0.00  0.00    +0.000 C 
ATOM     23  C   UNL     1       3.084   5.713  17.900  0.00  0.00    +0.000 C 
ENDBRANCH  16  23
ENDBRANCH  12  19
ENDBRANCH   1  14
BRANCH   1  24
ATOM     24  C   UNL     1      -1.885  12.323  19.935  0.00  0.00    +0.000 C 
ATOM     25  C   UNL     1      -3.403  12.635  19.977  0.00  0.00    +0.000 C 
ATOM     26  C   UNL     1      -1.260  13.758  19.987  0.00  0.00    +0.000 C 
ATOM     27  C   UNL     1      -1.767  11.503  18.615  0.00  0.00    +0.000 C 
ENDBRANCH   1  24
TORSDOF 5
ENDMDL
MODEL 2
REMARK VINA RESULT:      -6.9      0.325      1.340
REMARK  Name = 
REMARK  10 active torsions:
REMARK  status: ('A' for Active; 'I' for Inactive)
REMARK    1  A    between atoms: C_2  and  C_3
REMARK    2  A    between atoms: C_6  and  C_7
REMARK    3  A    between atoms: N_9  and  N_10
REMARK    4  A    between atoms: N_10  and  C_21
REMARK    5  A    between atoms: C_11  and  C_13
REMARK    6  A    between atoms: C_15  and  C_16
REMARK    7  A    between atoms: C_18  and  C_19
REMARK    8  A    between atoms: C_21  and  C_22
REMARK    9  A    between atoms: C_21  and  C_23
REMARK   10  A    between atoms: C_21  and  C_24
REMARK                            x       y       z     vdW  Elec       q    Type
REMARK                         _______ _______ _______ _____ _____    ______ ____
ROOT
ATOM      1  N   UNL     1      -1.403  11.745  21.138  0.00  0.00    +0.000 N 
ATOM      2  C   UNL     1      -1.807  11.792  22.516  0.00  0.00    +0.000 C 
ATOM      3  O   UNL     1      -1.545  10.860  23.286  0.00  0.00    +0.000 OA
ENDROOT
BRANCH   2   4
ATOM      4  C   UNL     1      -2.614  12.935  23.134  0.00  0.00    +0.000 A 
ATOM      5  C   UNL     1      -4.001  12.955  23.218  0.00  0.00    +0.000 A 
ATOM      6  C   UNL     1      -4.782  13.954  23.795  0.00  0.00    +0.000 A 
ATOM      7  C   UNL     1      -6.273  13.797  23.733  0.00  0.00    +0.000 C 
ATOM      8  C   UNL     1      -4.130  15.020  24.378  0.00  0.00    +0.000 A 
ATOM      9  C   UNL     1      -2.725  15.073  24.352  0.00  0.00    +0.000 A 
ATOM     10  C   UNL     1      -2.032  16.243  24.988  0.00  0.00    +0.000 C 
ATOM     11  C   UNL     1      -1.976  14.040  23.719  0.00  0.00    +0.000 A 
ENDBRANCH   2   4
BRANCH   1  14
ATOM     12  C   UNL     1       0.712  10.500  20.751  0.00  0.00    +0.000 C 
ATOM     13  O   UNL     1       1.462  11.314  21.263  0.00  0.00    +0.000 OA
ATOM     14  N   UNL     1      -0.680  10.573  20.715  0.00  0.00    +0.000 N 
ATOM     15  H   UNL     1      -1.228   9.814  20.341  0.00  0.00    +0.000 HD
BRANCH  12  19
ATOM     16  C   UNL     1       2.314   7.047  18.683  0.00  0.00    +0.000 A 
ATOM     17  C   UNL     1       2.043   8.241  17.999  0.00  0.00    +0.000 A 
ATOM     18  C   UNL     1       1.533   9.359  18.673  0.00  0.00    +0.000 A 
ATOM     19  C   UNL     1       1.292   9.310  20.057  0.00  0.00    +0.000 A 
ATOM     20  C   UNL     1       1.527   8.108  20.734  0.00  0.00    +0.000 A 
ATOM     21  C   UNL     1       2.030   6.990  20.055  0.00  0.00    +0.000 A 
BRANCH  16  23
ATOM     22  C   UNL     1       2.235   4.701  17.823  0.00  0.00    +0.000 C 
ATOM     23  C   UNL     1       2.848   5.892  17.944  0.00  0.00    +0.000 C 
ENDBRANCH  16  23
ENDBRANCH  12  19
ENDBRANCH   1  14
BRANCH   1  24
ATOM     24  C   UNL     1      -1.839  12.585  19.964  0.00  0.00    +0.000 C 
ATOM     25  C   UNL     1      -1.343  12.117  18.571  0.00  0.00    +0.000 C 
ATOM     26  C   UNL     1      -3.393  12.475  19.806  0.00  0.00    +0.000 C 
ATOM     27  C   UNL     1      -1.197  14.002  20.069  0.00  0.00    +0.000 C 
ENDBRANCH   1  24
TORSDOF 5
ENDMDL
MODEL 3
REMARK VINA RESULT:      -6.8      0.905      2.152
REMARK  Name = 
REMARK  10 active torsions:
REMARK  status: ('A' for Active; 'I' for Inactive)
REMARK    1  A    between atoms: C_2  and  C_3
REMARK    2  A    between atoms: C_6  and  C_7
REMARK    3  A    between atoms: N_9  and  N_10
REMARK    4  A    between atoms: N_10  and  C_21
REMARK    5  A    between atoms: C_11  and  C_13
REMARK    6  A    between atoms: C_15  and  C_16
REMARK    7  A    between atoms: C_18  and  C_19
REMARK    8  A    between atoms: C_21  and  C_22
REMARK    9  A    between atoms: C_21  and  C_23
REMARK   10  A    between atoms: C_21  and  C_24
REMARK                            x       y       z     vdW  Elec       q    Type
REMARK                         _______ _______ _______ _____ _____    ______ ____
ROOT
ATOM      1  N   UNL     1      -0.807  10.926  21.073  0.00  0.00    +0.000 N 
ATOM      2  C   UNL     1      -1.225  11.028  22.444  0.00  0.00    +0.000 C 
ATOM      3  O   UNL     1      -1.090  10.075  23.221  0.00  0.00    +0.000 OA
ENDROOT
BRANCH   2   4
ATOM      4  C   UNL     1      -1.899  12.263  23.045  0.00  0.00    +0.000 A 
ATOM      5  C   UNL     1      -1.233  13.443  23.354  0.00  0.00    +0.000 A 
ATOM      6  C   UNL     1      -1.803  14.602  23.875  0.00  0.00    +0.000 A 
ATOM      7  C   UNL     1      -0.887  15.752  24.182  0.00  0.00    +0.000 C 
ATOM      8  C   UNL     1      -3.167  14.612  24.076  0.00  0.00    +0.000 A 
ATOM      9  C   UNL     1      -3.921  13.465  23.775  0.00  0.00    +0.000 A 
ATOM     10  C   UNL     1      -5.405  13.491  24.003  0.00  0.00    +0.000 C 
ATOM     11  C   UNL     1      -3.283  12.292  23.276  0.00  0.00    +0.000 A 
ENDBRANCH   2   4
BRANCH   1  14
ATOM     12  C   UNL     1       1.073   9.303  21.020  0.00  0.00    +0.000 C 
ATOM     13  O   UNL     1       1.797   9.886  21.810  0.00  0.00    +0.000 OA
ATOM     14  N   UNL     1      -0.223   9.673  20.666  0.00  0.00    +0.000 N 
ATOM     15  H   UNL     1      -0.783   9.088  20.064  0.00  0.00    +0.000 HD
BRANCH  12  19
ATOM     16  C   UNL     1       2.499   5.797  18.912  0.00  0.00    +0.000 A 
ATOM     17  C   UNL     1       2.494   7.059  18.300  0.00  0.00    +0.000 A 
ATOM     18  C   UNL     1       2.039   8.193  18.989  0.00  0.00    +0.000 A 
ATOM     19  C   UNL     1       1.589   8.090  20.315  0.00  0.00    +0.000 A 
ATOM     20  C   UNL     1       1.559   6.825  20.915  0.00  0.00    +0.000 A 
ATOM     21  C   UNL     1       2.007   5.693  20.221  0.00  0.00    +0.000 A 
BRANCH  16  23
ATOM     22  C   UNL     1       2.196   3.737  17.529  0.00  0.00    +0.000 C 
ATOM     23  C   UNL     1       2.981   4.628  18.160  0.00  0.00    +0.000 C 
ENDBRANCH  16  23
ENDBRANCH  12  19
ENDBRANCH   1  14
BRANCH   1  24
ATOM     24  C   UNL     1      -1.119  11.807  19.889  0.00  0.00    +0.000 C 
ATOM     25  C   UNL     1      -2.543  12.420  19.854  0.00  0.00    +0.000 C 
ATOM     26  C   UNL     1      -0.220  13.088  19.955  0.00  0.00    +0.000 C 
ATOM     27  C   UNL     1      -1.109  10.953  18.586  0.00  0.00    +0.000 C 
ENDBRANCH   1  24
TORSDOF 5
ENDMDL
MODEL 4
REMARK VINA RESULT:      -6.8      1.242      2.528
REMARK  Name = 
REMARK  10 active torsions:
REMARK  status: ('A' for Active; 'I' for Inactive)
REMARK    1  A    between atoms: C_2  and  C_3
REMARK    2  A    between atoms: C_6  and  C_7
REMARK    3  A    between atoms: N_9  and  N_10
REMARK    4  A    between atoms: N_10  and  C_21
REMARK    5  A    between atoms: C_11  and  C_13
REMARK    6  A    between atoms: C_15  and  C_16
REMARK    7  A    between atoms: C_18  and  C_19
REMARK    8  A    between atoms: C_21  and  C_22
REMARK    9  A    between atoms: C_21  and  C_23
REMARK   10  A    between atoms: C_21  and  C_24
REMARK                            x       y       z     vdW  Elec       q    Type
REMARK                         _______ _______ _______ _____ _____    ______ ____
ROOT
ATOM      1  N   UNL     1      -0.262  12.196  20.984  0.00  0.00    +0.000 N 
ATOM      2  C   UNL     1      -0.638  11.867  22.331  0.00  0.00    +0.000 C 
ATOM      3  O   UNL     1      -0.244  10.822  22.862  0.00  0.00    +0.000 OA
ENDROOT
BRANCH   2   4
ATOM      4  C   UNL     1      -1.570  12.720  23.193  0.00  0.00    +0.000 A 
ATOM      5  C   UNL     1      -1.240  13.973  23.695  0.00  0.00    +0.000 A 
ATOM      6  C   UNL     1      -2.059  14.801  24.459  0.00  0.00    +0.000 A 
ATOM      7  C   UNL     1      -1.483  16.101  24.941  0.00  0.00    +0.000 C 
ATOM      8  C   UNL     1      -3.341  14.367  24.723  0.00  0.00    +0.000 A 
ATOM      9  C   UNL     1      -3.764  13.116  24.241  0.00  0.00    +0.000 A 
ATOM     10  C   UNL     1      -5.162  12.658  24.541  0.00  0.00    +0.000 C 
ATOM     11  C   UNL     1      -2.874  12.294  23.492  0.00  0.00    +0.000 A 
ENDBRANCH   2   4
BRANCH   1  14
ATOM     12  C   UNL     1       0.100  10.123  19.663  0.00  0.00    +0.000 C 
ATOM     13  O   UNL     1      -1.075   9.862  19.468  0.00  0.00    +0.000 OA
ATOM     14  N   UNL     1       0.595  11.259  20.303  0.00  0.00    +0.000 N 
ATOM     15  H   UNL     1       1.586  11.435  20.351  0.00  0.00    +0.000 HD
BRANCH  12  19
ATOM     16  C   UNL     1       3.074   7.276  18.316  0.00  0.00    +0.000 A 
ATOM     17  C   UNL     1       2.629   8.310  17.480  0.00  0.00    +0.000 A 
ATOM     18  C   UNL     1       1.672   9.235  17.923  0.00  0.00    +0.000 A 
ATOM     19  C   UNL     1       1.146   9.151  19.223  0.00  0.00    +0.000 A 
ATOM     20  C   UNL     1       1.562   8.098  20.046  0.00  0.00    +0.000 A 
ATOM     21  C   UNL     1       2.513   7.171  19.597  0.00  0.00    +0.000 A 
BRANCH  16  23
ATOM     22  C   UNL     1       5.240   6.656  17.233  0.00  0.00    +0.000 C 
ATOM     23  C   UNL     1       4.078   6.321  17.820  0.00  0.00    +0.000 C 
ENDBRANCH  16  23
ENDBRANCH  12  19
ENDBRANCH   1  14
BRANCH   1  24
ATOM     24  C   UNL     1      -0.826  13.226  20.036  0.00  0.00    +0.000 C 
ATOM     25  C   UNL     1      -0.340  13.136  18.566  0.00  0.00    +0.000 C 
ATOM     26  C   UNL     1      -2.366  12.987  19.881  0.00  0.00    +0.000 C 
ATOM     27  C   UNL     1      -0.327  14.644  20.449  0.00  0.00    +0.000 C 
ENDBRANCH   1  24
TORSDOF 5
ENDMDL
MODEL 5
REMARK VINA RESULT:      -6.8      0.356      1.937
REMARK  Name = 
REMARK  10 active torsions:
REMARK  status: ('A' for Active; 'I' for Inactive)
REMARK    1  A    between atoms: C_2  and  C_3
REMARK    2  A    between atoms: C_6  and  C_7
REMARK    3  A    between atoms: N_9  and  N_10
REMARK    4  A    between atoms: N_10  and  C_21
REMARK    5  A    between atoms: C_11  and  C_13
REMARK    6  A    between atoms: C_15  and  C_16
REMARK    7  A    between atoms: C_18  and  C_19
REMARK    8  A    between atoms: C_21  and  C_22
REMARK    9  A    between atoms: C_21  and  C_23
REMARK   10  A    between atoms: C_21  and  C_24
REMARK                            x       y       z     vdW  Elec       q    Type
REMARK                         _______ _______ _______ _____ _____    ______ ____
ROOT
ATOM      1  N   UNL     1      -1.406  11.785  21.151  0.00  0.00    +0.000 N 
ATOM      2  C   UNL     1      -1.778  11.788  22.539  0.00  0.00    +0.000 C 
ATOM      3  O   UNL     1      -1.496  10.832  23.273  0.00  0.00    +0.000 OA
ENDROOT
BRANCH   2   4
ATOM      4  C   UNL     1      -2.573  12.908  23.212  0.00  0.00    +0.000 A 
ATOM      5  C   UNL     1      -1.999  14.031  23.794  0.00  0.00    +0.000 A 
ATOM      6  C   UNL     1      -2.677  15.090  24.393  0.00  0.00    +0.000 A 
ATOM      7  C   UNL     1      -1.855  16.187  25.007  0.00  0.00    +0.000 C 
ATOM      8  C   UNL     1      -4.056  15.056  24.385  0.00  0.00    +0.000 A 
ATOM      9  C   UNL     1      -4.719  13.962  23.803  0.00  0.00    +0.000 A 
ATOM     10  C   UNL     1      -6.221  13.939  23.806  0.00  0.00    +0.000 C 
ATOM     11  C   UNL     1      -3.976  12.888  23.233  0.00  0.00    +0.000 A 
ENDBRANCH   2   4
BRANCH   1  14
ATOM     12  C   UNL     1       0.703  10.572  20.647  0.00  0.00    +0.000 C 
ATOM     13  O   UNL     1       1.466  11.385  21.141  0.00  0.00    +0.000 OA
ATOM     14  N   UNL     1      -0.690  10.630  20.674  0.00  0.00    +0.000 N 
ATOM     15  H   UNL     1      -1.247   9.872  20.310  0.00  0.00    +0.000 HD
BRANCH  12  19
ATOM     16  C   UNL     1       2.405   7.185  18.551  0.00  0.00    +0.000 A 
ATOM     17  C   UNL     1       2.119   7.120  19.922  0.00  0.00    +0.000 A 
ATOM     18  C   UNL     1       1.560   8.215  20.595  0.00  0.00    +0.000 A 
ATOM     19  C   UNL     1       1.263   9.402  19.905  0.00  0.00    +0.000 A 
ATOM     20  C   UNL     1       1.581   9.481  18.544  0.00  0.00    +0.000 A 
ATOM     21  C   UNL     1       2.147   8.387  17.876  0.00  0.00    +0.000 A 
BRANCH  16  23
ATOM     22  C   UNL     1       2.845   4.740  18.269  0.00  0.00    +0.000 C 
ATOM     23  C   UNL     1       2.993   6.017  17.876  0.00  0.00    +0.000 C 
ENDBRANCH  16  23
ENDBRANCH  12  19
ENDBRANCH   1  14
BRANCH   1  24
ATOM     24  C   UNL     1      -1.871  12.662  20.015  0.00  0.00    +0.000 C 
ATOM     25  C   UNL     1      -1.404  12.242  18.597  0.00  0.00    +0.000 C 
ATOM     26  C   UNL     1      -3.428  12.549  19.887  0.00  0.00    +0.000 C 
ATOM     27  C   UNL     1      -1.233  14.077  20.153  0.00  0.00    +0.000 C 
ENDBRANCH   1  24
TORSDOF 5
ENDMDL
MODEL 6
REMARK VINA RESULT:      -6.8      1.232      1.788
REMARK  Name = 
REMARK  10 active torsions:
REMARK  status: ('A' for Active; 'I' for Inactive)
REMARK    1  A    between atoms: C_2  and  C_3
REMARK    2  A    between atoms: C_6  and  C_7
REMARK    3  A    between atoms: N_9  and  N_10
REMARK    4  A    between atoms: N_10  and  C_21
REMARK    5  A    between atoms: C_11  and  C_13
REMARK    6  A    between atoms: C_15  and  C_16
REMARK    7  A    between atoms: C_18  and  C_19
REMARK    8  A    between atoms: C_21  and  C_22
REMARK    9  A    between atoms: C_21  and  C_23
REMARK   10  A    between atoms: C_21  and  C_24
REMARK                            x       y       z     vdW  Elec       q    Type
REMARK                         _______ _______ _______ _____ _____    ______ ____
ROOT
ATOM      1  N   UNL     1      -0.354  12.223  20.925  0.00  0.00    +0.000 N 
ATOM      2  C   UNL     1      -0.673  11.942  22.298  0.00  0.00    +0.000 C 
ATOM      3  O   UNL     1      -0.222  10.937  22.860  0.00  0.00    +0.000 OA
ENDROOT
BRANCH   2   4
ATOM      4  C   UNL     1      -1.607  12.800  23.154  0.00  0.00    +0.000 A 
ATOM      5  C   UNL     1      -2.898  12.431  23.508  0.00  0.00    +0.000 A 
ATOM      6  C   UNL     1      -3.777  13.160  24.306  0.00  0.00    +0.000 A 
ATOM      7  C   UNL     1      -5.151  12.596  24.525  0.00  0.00    +0.000 C 
ATOM      8  C   UNL     1      -3.326  14.350  24.837  0.00  0.00    +0.000 A 
ATOM      9  C   UNL     1      -2.024  14.792  24.541  0.00  0.00    +0.000 A 
ATOM     10  C   UNL     1      -1.549  16.092  25.124  0.00  0.00    +0.000 C 
ATOM     11  C   UNL     1      -1.177  14.023  23.691  0.00  0.00    +0.000 A 
ENDBRANCH   2   4
BRANCH   1  14
ATOM     12  C   UNL     1       0.037  10.121  19.659  0.00  0.00    +0.000 C 
ATOM     13  O   UNL     1      -1.135   9.826  19.492  0.00  0.00    +0.000 OA
ATOM     14  N   UNL     1       0.514  11.286  20.257  0.00  0.00    +0.000 N 
ATOM     15  H   UNL     1       1.501  11.488  20.283  0.00  0.00    +0.000 HD
BRANCH  12  19
ATOM     16  C   UNL     1       3.058   7.311  18.340  0.00  0.00    +0.000 A 
ATOM     17  C   UNL     1       2.620   8.348  17.506  0.00  0.00    +0.000 A 
ATOM     18  C   UNL     1       1.647   9.262  17.939  0.00  0.00    +0.000 A 
ATOM     19  C   UNL     1       1.099   9.162  19.229  0.00  0.00    +0.000 A 
ATOM     20  C   UNL     1       1.509   8.105  20.050  0.00  0.00    +0.000 A 
ATOM     21  C   UNL     1       2.476   7.190  19.610  0.00  0.00    +0.000 A 
BRANCH  16  23
ATOM     22  C   UNL     1       4.954   6.621  16.863  0.00  0.00    +0.000 C 
ATOM     23  C   UNL     1       4.079   6.370  17.853  0.00  0.00    +0.000 C 
ENDBRANCH  16  23
ENDBRANCH  12  19
ENDBRANCH   1  14
BRANCH   1  24
ATOM     24  C   UNL     1      -0.987  13.187  19.953  0.00  0.00    +0.000 C 
ATOM     25  C   UNL     1      -0.942  14.685  20.354  0.00  0.00    +0.000 C 
ATOM     26  C   UNL     1      -0.162  13.186  18.622  0.00  0.00    +0.000 C 
ATOM     27  C   UNL     1      -2.522  12.924  19.882  0.00  0.00    +0.000 C 
ENDBRANCH   1  24
TORSDOF 5
ENDMDL
MODEL 7
REMARK VINA RESULT:      -6.7      0.875      1.326
REMARK  Name = 
REMARK  10 active torsions:
REMARK  status: ('A' for Active; 'I' for Inactive)
REMARK    1  A    between atoms: C_2  and  C_3
REMARK    2  A    between atoms: C_6  and  C_7
REMARK    3  A    between atoms: N_9  and  N_10
REMARK    4  A    between atoms: N_10  and  C_21
REMARK    5  A    between atoms: C_11  and  C_13
REMARK    6  A    between atoms: C_15  and  C_16
REMARK    7  A    between atoms: C_18  and  C_19
REMARK    8  A    between atoms: C_21  and  C_22
REMARK    9  A    between atoms: C_21  and  C_23
REMARK   10  A    between atoms: C_21  and  C_24
REMARK                            x       y       z     vdW  Elec       q    Type
REMARK                         _______ _______ _______ _____ _____    ______ ____
ROOT
ATOM      1  N   UNL     1      -0.828  10.917  21.040  0.00  0.00    +0.000 N 
ATOM      2  C   UNL     1      -1.243  10.991  22.414  0.00  0.00    +0.000 C 
ATOM      3  O   UNL     1      -1.090  10.028  23.175  0.00  0.00    +0.000 OA
ENDROOT
BRANCH   2   4
ATOM      4  C   UNL     1      -1.934  12.205  23.037  0.00  0.00    +0.000 A 
ATOM      5  C   UNL     1      -3.284  12.253  23.362  0.00  0.00    +0.000 A 
ATOM      6  C   UNL     1      -3.956  13.320  23.955  0.00  0.00    +0.000 A 
ATOM      7  C   UNL     1      -5.434  13.177  24.177  0.00  0.00    +0.000 C 
ATOM      8  C   UNL     1      -3.217  14.434  24.294  0.00  0.00    +0.000 A 
ATOM      9  C   UNL     1      -1.840  14.464  24.014  0.00  0.00    +0.000 A 
ATOM     10  C   UNL     1      -1.051  15.687  24.385  0.00  0.00    +0.000 C 
ATOM     11  C   UNL     1      -1.208  13.358  23.375  0.00  0.00    +0.000 A 
ENDBRANCH   2   4
BRANCH   1  14
ATOM     12  C   UNL     1       1.083   9.333  20.940  0.00  0.00    +0.000 C 
ATOM     13  O   UNL     1       1.808   9.923  21.723  0.00  0.00    +0.000 OA
ATOM     14  N   UNL     1      -0.226   9.680  20.611  0.00  0.00    +0.000 N 
ATOM     15  H   UNL     1      -0.784   9.090  20.013  0.00  0.00    +0.000 HD
BRANCH  12  19
ATOM     16  C   UNL     1       2.545   5.878  18.774  0.00  0.00    +0.000 A 
ATOM     17  C   UNL     1       2.522   7.149  18.182  0.00  0.00    +0.000 A 
ATOM     18  C   UNL     1       2.056   8.267  18.889  0.00  0.00    +0.000 A 
ATOM     19  C   UNL     1       1.611   8.138  20.216  0.00  0.00    +0.000 A 
ATOM     20  C   UNL     1       1.600   6.864  20.796  0.00  0.00    +0.000 A 
ATOM     21  C   UNL     1       2.059   5.748  20.083  0.00  0.00    +0.000 A 
BRANCH  16  23
ATOM     22  C   UNL     1       2.659   3.450  18.189  0.00  0.00    +0.000 C 
ATOM     23  C   UNL     1       3.039   4.727  18.003  0.00  0.00    +0.000 C 
ENDBRANCH  16  23
ENDBRANCH  12  19
ENDBRANCH   1  14
BRANCH   1  24
ATOM     24  C   UNL     1      -1.159  11.812  19.871  0.00  0.00    +0.000 C 
ATOM     25  C   UNL     1      -2.575  12.445  19.878  0.00  0.00    +0.000 C 
ATOM     26  C   UNL     1      -0.240  13.079  19.922  0.00  0.00    +0.000 C 
ATOM     27  C   UNL     1      -1.197  10.967  18.562  0.00  0.00    +0.000 C 
ENDBRANCH   1  24
TORSDOF 5
ENDMDL
MODEL 8
REMARK VINA RESULT:      -6.7      1.053      1.474
REMARK  Name = 
REMARK  10 active torsions:
REMARK  status: ('A' for Active; 'I' for Inactive)
REMARK    1  A    between atoms: C_2  and  C_3
REMARK    2  A    between atoms: C_6  and  C_7
REMARK    3  A    between atoms: N_9  and  N_10
REMARK    4  A    between atoms: N_10  and  C_21
REMARK    5  A    between atoms: C_11  and  C_13
REMARK    6  A    between atoms: C_15  and  C_16
REMARK    7  A    between atoms: C_18  and  C_19
REMARK    8  A    between atoms: C_21  and  C_22
REMARK    9  A    between atoms: C_21  and  C_23
REMARK   10  A    between atoms: C_21  and  C_24
REMARK                            x       y       z     vdW  Elec       q    Type
REMARK                         _______ _______ _______ _____ _____    ______ ____
ROOT
ATOM      1  N   UNL     1      -0.684  10.794  21.055  0.00  0.00    +0.000 N 
ATOM      2  C   UNL     1      -1.153  10.912  22.408  0.00  0.00    +0.000 C 
ATOM      3  O   UNL     1      -1.102   9.949  23.183  0.00  0.00    +0.000 OA
ENDROOT
BRANCH   2   4
ATOM      4  C   UNL     1      -1.785  12.178  22.989  0.00  0.00    +0.000 A 
ATOM      5  C   UNL     1      -3.114  12.278  23.381  0.00  0.00    +0.000 A 
ATOM      6  C   UNL     1      -3.730  13.395  23.941  0.00  0.00    +0.000 A 
ATOM      7  C   UNL     1      -5.197  13.301  24.248  0.00  0.00    +0.000 C 
ATOM      8  C   UNL     1      -2.951  14.509  24.170  0.00  0.00    +0.000 A 
ATOM      9  C   UNL     1      -1.591  14.489  23.817  0.00  0.00    +0.000 A 
ATOM     10  C   UNL     1      -0.758  15.713  24.070  0.00  0.00    +0.000 C 
ATOM     11  C   UNL     1      -1.018  13.331  23.216  0.00  0.00    +0.000 A 
ENDBRANCH   2   4
BRANCH   1  14
ATOM     12  C   UNL     1       1.128   9.094  21.024  0.00  0.00    +0.000 C 
ATOM     13  O   UNL     1       1.874   9.656  21.809  0.00  0.00    +0.000 OA
ATOM     14  N   UNL     1      -0.152   9.514  20.663  0.00  0.00    +0.000 N 
ATOM     15  H   UNL     1      -0.734   8.946  20.067  0.00  0.00    +0.000 HD
BRANCH  12  19
ATOM     16  C   UNL     1       2.545   5.484  19.094  0.00  0.00    +0.000 A 
ATOM     17  C   UNL     1       1.990   5.448  20.381  0.00  0.00    +0.000 A 
ATOM     18  C   UNL     1       1.525   6.618  21.000  0.00  0.00    +0.000 A 
ATOM     19  C   UNL     1       1.594   7.853  20.334  0.00  0.00    +0.000 A 
ATOM     20  C   UNL     1       2.181   7.896  19.064  0.00  0.00    +0.000 A 
ATOM     21  C   UNL     1       2.651   6.726  18.452  0.00  0.00    +0.000 A 
BRANCH  16  23
ATOM     22  C   UNL     1       2.475   3.646  17.401  0.00  0.00    +0.000 C 
ATOM     23  C   UNL     1       3.025   4.238  18.475  0.00  0.00    +0.000 C 
ENDBRANCH  16  23
ENDBRANCH  12  19
ENDBRANCH   1  14
BRANCH   1  24
ATOM     24  C   UNL     1      -0.898  11.697  19.865  0.00  0.00    +0.000 C 
ATOM     25  C   UNL     1      -0.729  11.038  18.471  0.00  0.00    +0.000 C 
ATOM     26  C   UNL     1      -2.398  12.145  19.828  0.00  0.00    +0.000 C 
ATOM     27  C   UNL     1       0.211  12.791  19.835  0.00  0.00    +0.000 C 
ENDBRANCH   1  24
TORSDOF 5
ENDMDL
MODEL 9
REMARK VINA RESULT:      -6.7      1.043      2.074
REMARK  Name = 
REMARK  10 active torsions:
REMARK  status: ('A' for Active; 'I' for Inactive)
REMARK    1  A    between atoms: C_2  and  C_3
REMARK    2  A    between atoms: C_6  and  C_7
REMARK    3  A    between atoms: N_9  and  N_10
REMARK    4  A    between atoms: N_10  and  C_21
REMARK    5  A    between atoms: C_11  and  C_13
REMARK    6  A    between atoms: C_15  and  C_16
REMARK    7  A    between atoms: C_18  and  C_19
REMARK    8  A    between atoms: C_21  and  C_22
REMARK    9  A    between atoms: C_21  and  C_23
REMARK   10  A    between atoms: C_21  and  C_24
REMARK                            x       y       z     vdW  Elec       q    Type
REMARK                         _______ _______ _______ _____ _____    ______ ____
ROOT
ATOM      1  N   UNL     1      -0.679  10.795  21.023  0.00  0.00    +0.000 N 
ATOM      2  C   UNL     1      -1.137  10.922  22.379  0.00  0.00    +0.000 C 
ATOM      3  O   UNL     1      -1.072   9.966  23.162  0.00  0.00    +0.000 OA
ENDROOT
BRANCH   2   4
ATOM      4  C   UNL     1      -1.771  12.189  22.956  0.00  0.00    +0.000 A 
ATOM      5  C   UNL     1      -1.077  13.368  23.199  0.00  0.00    +0.000 A 
ATOM      6  C   UNL     1      -1.611  14.555  23.694  0.00  0.00    +0.000 A 
ATOM      7  C   UNL     1      -0.668  15.700  23.928  0.00  0.00    +0.000 C 
ATOM      8  C   UNL     1      -2.968  14.595  23.940  0.00  0.00    +0.000 A 
ATOM      9  C   UNL     1      -3.749  13.450  23.707  0.00  0.00    +0.000 A 
ATOM     10  C   UNL     1      -5.224  13.510  23.983  0.00  0.00    +0.000 C 
ATOM     11  C   UNL     1      -3.146  12.250  23.231  0.00  0.00    +0.000 A 
ENDBRANCH   2   4
BRANCH   1  14
ATOM     12  C   UNL     1       1.137   9.100  21.004  0.00  0.00    +0.000 C 
ATOM     13  O   UNL     1       1.879   9.666  21.789  0.00  0.00    +0.000 OA
ATOM     14  N   UNL     1      -0.142   9.515  20.637  0.00  0.00    +0.000 N 
ATOM     15  H   UNL     1      -0.721   8.944  20.041  0.00  0.00    +0.000 HD
BRANCH  12  19
ATOM     16  C   UNL     1       2.570   5.488  19.090  0.00  0.00    +0.000 A 
ATOM     17  C   UNL     1       2.019   5.456  20.379  0.00  0.00    +0.000 A 
ATOM     18  C   UNL     1       1.548   6.626  20.992  0.00  0.00    +0.000 A 
ATOM     19  C   UNL     1       1.609   7.858  20.320  0.00  0.00    +0.000 A 
ATOM     20  C   UNL     1       2.192   7.898  19.048  0.00  0.00    +0.000 A 
ATOM     21  C   UNL     1       2.668   6.728  18.441  0.00  0.00    +0.000 A 
BRANCH  16  23
ATOM     22  C   UNL     1       3.685   4.157  17.292  0.00  0.00    +0.000 C 
ATOM     23  C   UNL     1       3.056   4.242  18.477  0.00  0.00    +0.000 C 
ENDBRANCH  16  23
ENDBRANCH  12  19
ENDBRANCH   1  14
BRANCH   1  24
ATOM     24  C   UNL     1      -0.910  11.687  19.828  0.00  0.00    +0.000 C 
ATOM     25  C   UNL     1      -2.282  12.408  19.773  0.00  0.00    +0.000 C 
ATOM     26  C   UNL     1       0.086  12.894  19.892  0.00  0.00    +0.000 C 
ATOM     27  C   UNL     1      -0.955  10.821  18.533  0.00  0.00    +0.000 C 
ENDBRANCH   1  24
TORSDOF 5
ENDMDL
