MODEL 1
REMARK VINA RESULT:      -8.3      0.000      0.000
REMARK  Name = 
REMARK  7 active torsions:
REMARK  status: ('A' for Active; 'I' for Inactive)
REMARK    1  A    between atoms: C_1  and  C_2
REMARK    2  A    between atoms: C_4  and  C_5
REMARK    3  A    between atoms: C_7  and  O_8
REMARK    4  A    between atoms: O_8  and  C_9
REMARK    5  A    between atoms: C_11  and  N_12
REMARK    6  A    between atoms: N_12  and  C_13
REMARK    7  A    between atoms: C_16  and  C_17
REMARK                            x       y       z     vdW  Elec       q    Type
REMARK                         _______ _______ _______ _____ _____    ______ ____
ROOT
ATOM      1  C   UNL     1       3.917   4.003  19.438  0.00  0.00    +0.000 A 
ATOM      2  C   UNL     1       3.518   5.136  20.245  0.00  0.00    +0.000 A 
ATOM      3  C   UNL     1       2.229   5.457  20.449  0.00  0.00    +0.000 A 
ATOM      4  N   UNL     1       1.286   4.624  19.918  0.00  0.00    +0.000 N 
ATOM      5  C   UNL     1       1.556   3.421  19.304  0.00  0.00    +0.000 A 
ATOM      6  O   UNL     1       0.635   2.679  18.973  0.00  0.00    +0.000 OA
ATOM      7  C   UNL     1       3.000   3.097  19.051  0.00  0.00    +0.000 A 
ATOM      8 BR   UNL     1       3.408   1.500  18.178  0.00  0.00    +0.000 Br
ATOM      9  H   UNL     1       0.306   4.809  20.090  0.00  0.00    +0.000 HD
ENDROOT
BRANCH   3  10
ATOM     10  N   UNL     1       1.875   6.579  21.162  0.00  0.00    +0.000 N 
ATOM     11  H   UNL     1       2.265   6.666  22.093  0.00  0.00    +0.000 HD
BRANCH  10  12
ATOM     12  C   UNL     1       1.428   7.785  20.586  0.00  0.00    +0.000 A 
ATOM     13  C   UNL     1       0.475   8.559  21.255  0.00  0.00    +0.000 A 
ATOM     14  C   UNL     1      -0.075   9.692  20.641  0.00  0.00    +0.000 A 
ATOM     15  C   UNL     1       0.336  10.069  19.360  0.00  0.00    +0.000 A 
ATOM     16  C   UNL     1       1.312   9.323  18.699  0.00  0.00    +0.000 A 
ATOM     17  C   UNL     1       1.847   8.188  19.309  0.00  0.00    +0.000 A 
BRANCH  15  18
ATOM     18  C   UNL     1      -0.259  11.195  18.708  0.00  0.00    +0.000 C 
ATOM     19  N   UNL     1      -0.758  12.104  18.184  0.00  0.00    +0.000 NA
ENDBRANCH  15  18
ENDBRANCH  10  12
ENDBRANCH   3  10
BRANCH   1  20
ATOM     20  O   UNL     1       5.273   3.852  19.146  0.00  0.00    +0.000 OA
BRANCH  20  27
ATOM     21  C   UNL     1       6.085   4.360  14.281  0.00  0.00    +0.000 C 
ATOM     22  C   UNL     1       6.252   4.833  15.695  0.00  0.00    +0.000 A 
ATOM     23  C   UNL     1       6.906   6.036  15.986  0.00  0.00    +0.000 A 
ATOM     24  C   UNL     1       7.048   6.472  17.311  0.00  0.00    +0.000 A 
ATOM     25  C   UNL     1       7.767   7.752  17.623  0.00  0.00    +0.000 C 
ATOM     26  C   UNL     1       6.505   5.702  18.350  0.00  0.00    +0.000 A 
ATOM     27  C   UNL     1       5.827   4.519  18.067  0.00  0.00    +0.000 A 
ATOM     28  C   UNL     1       5.741   4.064  16.747  0.00  0.00    +0.000 A 
ENDBRANCH  20  27
ENDBRANCH   1  20
TORSDOF 5
ENDMDL
MODEL 2
REMARK VINA RESULT:      -8.3      2.882      6.178
REMARK  Name = 
REMARK  7 active torsions:
REMARK  status: ('A' for Active; 'I' for Inactive)
REMARK    1  A    between atoms: C_1  and  C_2
REMARK    2  A    between atoms: C_4  and  C_5
REMARK    3  A    between atoms: C_7  and  O_8
REMARK    4  A    between atoms: O_8  and  C_9
REMARK    5  A    between atoms: C_11  and  N_12
REMARK    6  A    between atoms: N_12  and  C_13
REMARK    7  A    between atoms: C_16  and  C_17
REMARK                            x       y       z     vdW  Elec       q    Type
REMARK                         _______ _______ _______ _____ _____    ______ ____
ROOT
ATOM      1  C   UNL     1       3.088   4.482  19.715  0.00  0.00    +0.000 A 
ATOM      2  C   UNL     1       4.455   4.751  19.321  0.00  0.00    +0.000 A 
ATOM      3  C   UNL     1       5.138   3.943  18.493  0.00  0.00    +0.000 A 
ATOM      4  N   UNL     1       4.467   2.875  17.968  0.00  0.00    +0.000 N 
ATOM      5  C   UNL     1       3.118   2.641  18.123  0.00  0.00    +0.000 A 
ATOM      6  O   UNL     1       2.579   1.726  17.506  0.00  0.00    +0.000 OA
ATOM      7  C   UNL     1       2.380   3.530  19.080  0.00  0.00    +0.000 A 
ATOM      8 BR   UNL     1       0.563   3.217  19.356  0.00  0.00    +0.000 Br
ATOM      9  H   UNL     1       4.936   2.271  17.306  0.00  0.00    +0.000 HD
ENDROOT
BRANCH   3  10
ATOM     10  N   UNL     1       6.458   4.181  18.188  0.00  0.00    +0.000 N 
ATOM     11  H   UNL     1       6.943   3.454  17.678  0.00  0.00    +0.000 HD
BRANCH  10  12
ATOM     12  C   UNL     1       7.040   5.462  18.104  0.00  0.00    +0.000 A 
ATOM     13  C   UNL     1       7.942   5.878  19.090  0.00  0.00    +0.000 A 
ATOM     14  C   UNL     1       8.432   7.190  19.094  0.00  0.00    +0.000 A 
ATOM     15  C   UNL     1       8.037   8.093  18.102  0.00  0.00    +0.000 A 
ATOM     16  C   UNL     1       7.166   7.677  17.095  0.00  0.00    +0.000 A 
ATOM     17  C   UNL     1       6.670   6.374  17.104  0.00  0.00    +0.000 A 
BRANCH  15  18
ATOM     18  C   UNL     1       8.494   9.448  18.131  0.00  0.00    +0.000 C 
ATOM     19  N   UNL     1       8.878  10.544  18.166  0.00  0.00    +0.000 NA
ENDBRANCH  15  18
ENDBRANCH  10  12
ENDBRANCH   3  10
BRANCH   1  20
ATOM     20  O   UNL     1       2.524   5.285  20.708  0.00  0.00    +0.000 OA
BRANCH  20  27
ATOM     21  C   UNL     1       2.142   9.140  17.613  0.00  0.00    +0.000 C 
ATOM     22  C   UNL     1       1.847   8.479  18.928  0.00  0.00    +0.000 A 
ATOM     23  C   UNL     1       1.024   9.091  19.881  0.00  0.00    +0.000 A 
ATOM     24  C   UNL     1       0.750   8.459  21.102  0.00  0.00    +0.000 A 
ATOM     25  C   UNL     1      -0.116   9.126  22.131  0.00  0.00    +0.000 C 
ATOM     26  C   UNL     1       1.287   7.189  21.355  0.00  0.00    +0.000 A 
ATOM     27  C   UNL     1       2.083   6.560  20.400  0.00  0.00    +0.000 A 
ATOM     28  C   UNL     1       2.397   7.223  19.209  0.00  0.00    +0.000 A 
ENDBRANCH  20  27
ENDBRANCH   1  20
TORSDOF 5
ENDMDL
MODEL 3
REMARK VINA RESULT:      -8.3      0.259      1.956
REMARK  Name = 
REMARK  7 active torsions:
REMARK  status: ('A' for Active; 'I' for Inactive)
REMARK    1  A    between atoms: C_1  and  C_2
REMARK    2  A    between atoms: C_4  and  C_5
REMARK    3  A    between atoms: C_7  and  O_8
REMARK    4  A    between atoms: O_8  and  C_9
REMARK    5  A    between atoms: C_11  and  N_12
REMARK    6  A    between atoms: N_12  and  C_13
REMARK    7  A    between atoms: C_16  and  C_17
REMARK                            x       y       z     vdW  Elec       q    Type
REMARK                         _______ _______ _______ _____ _____    ______ ____
ROOT
ATOM      1  C   UNL     1       3.925   3.972  19.411  0.00  0.00    +0.000 A 
ATOM      2  C   UNL     1       3.538   5.122  20.200  0.00  0.00    +0.000 A 
ATOM      3  C   UNL     1       2.253   5.441  20.426  0.00  0.00    +0.000 A 
ATOM      4  N   UNL     1       1.302   4.591  19.937  0.00  0.00    +0.000 N 
ATOM      5  C   UNL     1       1.565   3.375  19.345  0.00  0.00    +0.000 A 
ATOM      6  O   UNL     1       0.641   2.620  19.053  0.00  0.00    +0.000 OA
ATOM      7  C   UNL     1       3.004   3.052  19.067  0.00  0.00    +0.000 A 
ATOM      8 BR   UNL     1       3.401   1.437  18.223  0.00  0.00    +0.000 Br
ATOM      9  H   UNL     1       0.326   4.775  20.126  0.00  0.00    +0.000 HD
ENDROOT
BRANCH   3  10
ATOM     10  N   UNL     1       1.909   6.578  21.120  0.00  0.00    +0.000 N 
ATOM     11  H   UNL     1       2.334   6.698  22.031  0.00  0.00    +0.000 HD
BRANCH  10  12
ATOM     12  C   UNL     1       1.420   7.760  20.527  0.00  0.00    +0.000 A 
ATOM     13  C   UNL     1       1.866   8.130  19.255  0.00  0.00    +0.000 A 
ATOM     14  C   UNL     1       1.491   9.362  18.703  0.00  0.00    +0.000 A 
ATOM     15  C   UNL     1       0.653  10.226  19.413  0.00  0.00    +0.000 A 
ATOM     16  C   UNL     1       0.175   9.850  20.669  0.00  0.00    +0.000 A 
ATOM     17  C   UNL     1       0.563   8.628  21.219  0.00  0.00    +0.000 A 
BRANCH  15  18
ATOM     18  C   UNL     1       0.309  11.507  18.877  0.00  0.00    +0.000 C 
ATOM     19  N   UNL     1       0.013  12.546  18.449  0.00  0.00    +0.000 NA
ENDBRANCH  15  18
ENDBRANCH  10  12
ENDBRANCH   3  10
BRANCH   1  20
ATOM     20  O   UNL     1       5.275   3.821  19.092  0.00  0.00    +0.000 OA
BRANCH  20  27
ATOM     21  C   UNL     1       7.827   7.807  17.614  0.00  0.00    +0.000 C 
ATOM     22  C   UNL     1       7.100   6.530  17.313  0.00  0.00    +0.000 A 
ATOM     23  C   UNL     1       7.041   6.016  16.012  0.00  0.00    +0.000 A 
ATOM     24  C   UNL     1       6.365   4.817  15.745  0.00  0.00    +0.000 A 
ATOM     25  C   UNL     1       6.286   4.278  14.347  0.00  0.00    +0.000 C 
ATOM     26  C   UNL     1       5.765   4.116  16.802  0.00  0.00    +0.000 A 
ATOM     27  C   UNL     1       5.844   4.605  18.103  0.00  0.00    +0.000 A 
ATOM     28  C   UNL     1       6.471   5.831  18.351  0.00  0.00    +0.000 A 
ENDBRANCH  20  27
ENDBRANCH   1  20
TORSDOF 5
ENDMDL
MODEL 4
REMARK VINA RESULT:      -8.1      1.321      2.091
REMARK  Name = 
REMARK  7 active torsions:
REMARK  status: ('A' for Active; 'I' for Inactive)
REMARK    1  A    between atoms: C_1  and  C_2
REMARK    2  A    between atoms: C_4  and  C_5
REMARK    3  A    between atoms: C_7  and  O_8
REMARK    4  A    between atoms: O_8  and  C_9
REMARK    5  A    between atoms: C_11  and  N_12
REMARK    6  A    between atoms: N_12  and  C_13
REMARK    7  A    between atoms: C_16  and  C_17
REMARK                            x       y       z     vdW  Elec       q    Type
REMARK                         _______ _______ _______ _____ _____    ______ ____
ROOT
ATOM      1  C   UNL     1       2.719   4.527  18.497  0.00  0.00    +0.000 A 
ATOM      2  C   UNL     1       2.758   5.863  19.051  0.00  0.00    +0.000 A 
ATOM      3  C   UNL     1       2.157   6.180  20.210  0.00  0.00    +0.000 A 
ATOM      4  N   UNL     1       1.554   5.166  20.899  0.00  0.00    +0.000 N 
ATOM      5  C   UNL     1       1.626   3.833  20.559  0.00  0.00    +0.000 A 
ATOM      6  O   UNL     1       1.160   2.981  21.311  0.00  0.00    +0.000 OA
ATOM      7  C   UNL     1       2.269   3.502  19.243  0.00  0.00    +0.000 A 
ATOM      8 BR   UNL     1       2.344   1.713  18.722  0.00  0.00    +0.000 Br
ATOM      9  H   UNL     1       1.131   5.359  21.797  0.00  0.00    +0.000 HD
ENDROOT
BRANCH   3  10
ATOM     10  N   UNL     1       2.150   7.472  20.683  0.00  0.00    +0.000 N 
ATOM     11  H   UNL     1       2.963   7.767  21.209  0.00  0.00    +0.000 HD
BRANCH  10  12
ATOM     12  C   UNL     1       1.378   8.518  20.137  0.00  0.00    +0.000 A 
ATOM     13  C   UNL     1       0.349   9.085  20.895  0.00  0.00    +0.000 A 
ATOM     14  C   UNL     1      -0.510  10.035  20.326  0.00  0.00    +0.000 A 
ATOM     15  C   UNL     1      -0.334  10.438  18.999  0.00  0.00    +0.000 A 
ATOM     16  C   UNL     1       0.711   9.903  18.246  0.00  0.00    +0.000 A 
ATOM     17  C   UNL     1       1.554   8.948  18.813  0.00  0.00    +0.000 A 
BRANCH  15  18
ATOM     18  C   UNL     1      -1.239  11.369  18.397  0.00  0.00    +0.000 C 
ATOM     19  N   UNL     1      -1.974  12.134  17.924  0.00  0.00    +0.000 NA
ENDBRANCH  15  18
ENDBRANCH  10  12
ENDBRANCH   3  10
BRANCH   1  20
ATOM     20  O   UNL     1       3.226   4.337  17.210  0.00  0.00    +0.000 OA
BRANCH  20  27
ATOM     21  C   UNL     1       7.842   5.342  18.716  0.00  0.00    +0.000 C 
ATOM     22  C   UNL     1       6.857   5.025  17.630  0.00  0.00    +0.000 A 
ATOM     23  C   UNL     1       7.270   4.835  16.306  0.00  0.00    +0.000 A 
ATOM     24  C   UNL     1       6.340   4.532  15.301  0.00  0.00    +0.000 A 
ATOM     25  C   UNL     1       6.782   4.348  13.879  0.00  0.00    +0.000 C 
ATOM     26  C   UNL     1       4.986   4.392  15.638  0.00  0.00    +0.000 A 
ATOM     27  C   UNL     1       4.570   4.550  16.958  0.00  0.00    +0.000 A 
ATOM     28  C   UNL     1       5.497   4.909  17.942  0.00  0.00    +0.000 A 
ENDBRANCH  20  27
ENDBRANCH   1  20
TORSDOF 5
ENDMDL
MODEL 5
REMARK VINA RESULT:      -8.0      2.881      6.285
REMARK  Name = 
REMARK  7 active torsions:
REMARK  status: ('A' for Active; 'I' for Inactive)
REMARK    1  A    between atoms: C_1  and  C_2
REMARK    2  A    between atoms: C_4  and  C_5
REMARK    3  A    between atoms: C_7  and  O_8
REMARK    4  A    between atoms: O_8  and  C_9
REMARK    5  A    between atoms: C_11  and  N_12
REMARK    6  A    between atoms: N_12  and  C_13
REMARK    7  A    between atoms: C_16  and  C_17
REMARK                            x       y       z     vdW  Elec       q    Type
REMARK                         _______ _______ _______ _____ _____    ______ ____
ROOT
ATOM      1  C   UNL     1       3.184   4.523  19.711  0.00  0.00    +0.000 A 
ATOM      2  C   UNL     1       4.505   4.798  19.187  0.00  0.00    +0.000 A 
ATOM      3  C   UNL     1       5.110   3.992  18.299  0.00  0.00    +0.000 A 
ATOM      4  N   UNL     1       4.399   2.918  17.844  0.00  0.00    +0.000 N 
ATOM      5  C   UNL     1       3.073   2.675  18.129  0.00  0.00    +0.000 A 
ATOM      6  O   UNL     1       2.483   1.754  17.570  0.00  0.00    +0.000 OA
ATOM      7  C   UNL     1       2.425   3.563  19.151  0.00  0.00    +0.000 A 
ATOM      8 BR   UNL     1       0.645   3.239  19.601  0.00  0.00    +0.000 Br
ATOM      9  H   UNL     1       4.806   2.314  17.142  0.00  0.00    +0.000 HD
ENDROOT
BRANCH   3  10
ATOM     10  N   UNL     1       6.393   4.238  17.868  0.00  0.00    +0.000 N 
ATOM     11  H   UNL     1       6.780   3.582  17.200  0.00  0.00    +0.000 HD
BRANCH  10  12
ATOM     12  C   UNL     1       7.018   5.501  17.898  0.00  0.00    +0.000 A 
ATOM     13  C   UNL     1       7.858   5.831  18.966  0.00  0.00    +0.000 A 
ATOM     14  C   UNL     1       8.387   7.123  19.079  0.00  0.00    +0.000 A 
ATOM     15  C   UNL     1       8.092   8.092  18.115  0.00  0.00    +0.000 A 
ATOM     16  C   UNL     1       7.283   7.762  17.028  0.00  0.00    +0.000 A 
ATOM     17  C   UNL     1       6.749   6.477  16.927  0.00  0.00    +0.000 A 
BRANCH  15  18
ATOM     18  C   UNL     1       8.586   9.427  18.253  0.00  0.00    +0.000 C 
ATOM     19  N   UNL     1       8.974  10.516  18.375  0.00  0.00    +0.000 NA
ENDBRANCH  15  18
ENDBRANCH  10  12
ENDBRANCH   3  10
BRANCH   1  20
ATOM     20  O   UNL     1       2.713   5.325  20.752  0.00  0.00    +0.000 OA
BRANCH  20  27
ATOM     21  C   UNL     1      -0.183   9.151  22.002  0.00  0.00    +0.000 C 
ATOM     22  C   UNL     1       0.713   8.449  21.025  0.00  0.00    +0.000 A 
ATOM     23  C   UNL     1       1.061   9.040  19.805  0.00  0.00    +0.000 A 
ATOM     24  C   UNL     1       1.907   8.377  18.903  0.00  0.00    +0.000 A 
ATOM     25  C   UNL     1       2.263   9.002  17.586  0.00  0.00    +0.000 C 
ATOM     26  C   UNL     1       2.427   7.120  19.246  0.00  0.00    +0.000 A 
ATOM     27  C   UNL     1       2.110   6.539  20.471  0.00  0.00    +0.000 A 
ATOM     28  C   UNL     1       1.220   7.182  21.338  0.00  0.00    +0.000 A 
ENDBRANCH  20  27
ENDBRANCH   1  20
TORSDOF 5
ENDMDL
MODEL 6
REMARK VINA RESULT:      -7.9      1.432      1.537
REMARK  Name = 
REMARK  7 active torsions:
REMARK  status: ('A' for Active; 'I' for Inactive)
REMARK    1  A    between atoms: C_1  and  C_2
REMARK    2  A    between atoms: C_4  and  C_5
REMARK    3  A    between atoms: C_7  and  O_8
REMARK    4  A    between atoms: O_8  and  C_9
REMARK    5  A    between atoms: C_11  and  N_12
REMARK    6  A    between atoms: N_12  and  C_13
REMARK    7  A    between atoms: C_16  and  C_17
REMARK                            x       y       z     vdW  Elec       q    Type
REMARK                         _______ _______ _______ _____ _____    ______ ____
ROOT
ATOM      1  C   UNL     1       2.861   4.671  18.698  0.00  0.00    +0.000 A 
ATOM      2  C   UNL     1       2.743   6.030  19.181  0.00  0.00    +0.000 A 
ATOM      3  C   UNL     1       2.311   6.320  20.420  0.00  0.00    +0.000 A 
ATOM      4  N   UNL     1       2.046   5.268  21.251  0.00  0.00    +0.000 N 
ATOM      5  C   UNL     1       2.309   3.948  20.957  0.00  0.00    +0.000 A 
ATOM      6  O   UNL     1       2.157   3.085  21.817  0.00  0.00    +0.000 OA
ATOM      7  C   UNL     1       2.756   3.641  19.557  0.00  0.00    +0.000 A 
ATOM      8 BR   UNL     1       3.078   1.861  19.103  0.00  0.00    +0.000 Br
ATOM      9  H   UNL     1       1.761   5.448  22.204  0.00  0.00    +0.000 HD
ENDROOT
BRANCH   3  10
ATOM     10  N   UNL     1       2.141   7.621  20.833  0.00  0.00    +0.000 N 
ATOM     11  H   UNL     1       2.866   8.007  21.424  0.00  0.00    +0.000 HD
BRANCH  10  12
ATOM     12  C   UNL     1       1.341   8.572  20.169  0.00  0.00    +0.000 A 
ATOM     13  C   UNL     1       0.257   9.151  20.837  0.00  0.00    +0.000 A 
ATOM     14  C   UNL     1      -0.624  10.001  20.156  0.00  0.00    +0.000 A 
ATOM     15  C   UNL     1      -0.419  10.291  18.804  0.00  0.00    +0.000 A 
ATOM     16  C   UNL     1       0.680   9.747  18.139  0.00  0.00    +0.000 A 
ATOM     17  C   UNL     1       1.546   8.891  18.818  0.00  0.00    +0.000 A 
BRANCH  15  18
ATOM     18  C   UNL     1      -1.344  11.117  18.090  0.00  0.00    +0.000 C 
ATOM     19  N   UNL     1      -2.082  11.791  17.498  0.00  0.00    +0.000 NA
ENDBRANCH  15  18
ENDBRANCH  10  12
ENDBRANCH   3  10
BRANCH   1  20
ATOM     20  O   UNL     1       3.156   4.480  17.347  0.00  0.00    +0.000 OA
BRANCH  20  27
ATOM     21  C   UNL     1       6.585   4.148  13.780  0.00  0.00    +0.000 C 
ATOM     22  C   UNL     1       6.200   4.376  15.212  0.00  0.00    +0.000 A 
ATOM     23  C   UNL     1       7.154   4.729  16.174  0.00  0.00    +0.000 A 
ATOM     24  C   UNL     1       6.781   4.947  17.508  0.00  0.00    +0.000 A 
ATOM     25  C   UNL     1       7.808   5.305  18.542  0.00  0.00    +0.000 C 
ATOM     26  C   UNL     1       5.431   4.835  17.871  0.00  0.00    +0.000 A 
ATOM     27  C   UNL     1       4.471   4.513  16.915  0.00  0.00    +0.000 A 
ATOM     28  C   UNL     1       4.861   4.241  15.599  0.00  0.00    +0.000 A 
ENDBRANCH  20  27
ENDBRANCH   1  20
TORSDOF 5
ENDMDL
MODEL 7
REMARK VINA RESULT:      -7.9      1.266      2.247
REMARK  Name = 
REMARK  7 active torsions:
REMARK  status: ('A' for Active; 'I' for Inactive)
REMARK    1  A    between atoms: C_1  and  C_2
REMARK    2  A    between atoms: C_4  and  C_5
REMARK    3  A    between atoms: C_7  and  O_8
REMARK    4  A    between atoms: O_8  and  C_9
REMARK    5  A    between atoms: C_11  and  N_12
REMARK    6  A    between atoms: N_12  and  C_13
REMARK    7  A    between atoms: C_16  and  C_17
REMARK                            x       y       z     vdW  Elec       q    Type
REMARK                         _______ _______ _______ _____ _____    ______ ____
ROOT
ATOM      1  C   UNL     1       2.738   4.561  18.484  0.00  0.00    +0.000 A 
ATOM      2  C   UNL     1       2.745   5.881  19.080  0.00  0.00    +0.000 A 
ATOM      3  C   UNL     1       2.106   6.155  20.230  0.00  0.00    +0.000 A 
ATOM      4  N   UNL     1       1.495   5.114  20.869  0.00  0.00    +0.000 N 
ATOM      5  C   UNL     1       1.593   3.792  20.491  0.00  0.00    +0.000 A 
ATOM      6  O   UNL     1       1.116   2.912  21.202  0.00  0.00    +0.000 OA
ATOM      7  C   UNL     1       2.278   3.509  19.186  0.00  0.00    +0.000 A 
ATOM      8 BR   UNL     1       2.392   1.738  18.613  0.00  0.00    +0.000 Br
ATOM      9  H   UNL     1       1.042   5.274  21.759  0.00  0.00    +0.000 HD
ENDROOT
BRANCH   3  10
ATOM     10  N   UNL     1       2.068   7.432  20.741  0.00  0.00    +0.000 N 
ATOM     11  H   UNL     1       2.842   7.705  21.334  0.00  0.00    +0.000 HD
BRANCH  10  12
ATOM     12  C   UNL     1       1.342   8.498  20.174  0.00  0.00    +0.000 A 
ATOM     13  C   UNL     1       1.667   8.950  18.891  0.00  0.00    +0.000 A 
ATOM     14  C   UNL     1       1.044  10.088  18.361  0.00  0.00    +0.000 A 
ATOM     15  C   UNL     1       0.079  10.774  19.105  0.00  0.00    +0.000 A 
ATOM     16  C   UNL     1      -0.277  10.309  20.371  0.00  0.00    +0.000 A 
ATOM     17  C   UNL     1       0.356   9.184  20.899  0.00  0.00    +0.000 A 
BRANCH  15  18
ATOM     18  C   UNL     1      -0.523  11.965  18.591  0.00  0.00    +0.000 C 
ATOM     19  N   UNL     1      -1.025  12.931  18.185  0.00  0.00    +0.000 NA
ENDBRANCH  15  18
ENDBRANCH  10  12
ENDBRANCH   3  10
BRANCH   1  20
ATOM     20  O   UNL     1       3.286   4.417  17.209  0.00  0.00    +0.000 OA
BRANCH  20  27
ATOM     21  C   UNL     1       7.824   5.534  18.864  0.00  0.00    +0.000 C 
ATOM     22  C   UNL     1       6.881   5.207  17.745  0.00  0.00    +0.000 A 
ATOM     23  C   UNL     1       7.336   5.054  16.430  0.00  0.00    +0.000 A 
ATOM     24  C   UNL     1       6.445   4.740  15.394  0.00  0.00    +0.000 A 
ATOM     25  C   UNL     1       6.933   4.597  13.982  0.00  0.00    +0.000 C 
ATOM     26  C   UNL     1       5.087   4.554  15.689  0.00  0.00    +0.000 A 
ATOM     27  C   UNL     1       4.629   4.675  16.999  0.00  0.00    +0.000 A 
ATOM     28  C   UNL     1       5.516   5.044  18.015  0.00  0.00    +0.000 A 
ENDBRANCH  20  27
ENDBRANCH   1  20
TORSDOF 5
ENDMDL
MODEL 8
REMARK VINA RESULT:      -7.9      1.817      2.804
REMARK  Name = 
REMARK  7 active torsions:
REMARK  status: ('A' for Active; 'I' for Inactive)
REMARK    1  A    between atoms: C_1  and  C_2
REMARK    2  A    between atoms: C_4  and  C_5
REMARK    3  A    between atoms: C_7  and  O_8
REMARK    4  A    between atoms: O_8  and  C_9
REMARK    5  A    between atoms: C_11  and  N_12
REMARK    6  A    between atoms: N_12  and  C_13
REMARK    7  A    between atoms: C_16  and  C_17
REMARK                            x       y       z     vdW  Elec       q    Type
REMARK                         _______ _______ _______ _____ _____    ______ ____
ROOT
ATOM      1  C   UNL     1       2.654   5.921  18.519  0.00  0.00    +0.000 A 
ATOM      2  C   UNL     1       2.632   6.993  19.490  0.00  0.00    +0.000 A 
ATOM      3  C   UNL     1       1.904   6.929  20.618  0.00  0.00    +0.000 A 
ATOM      4  N   UNL     1       1.226   5.767  20.858  0.00  0.00    +0.000 N 
ATOM      5  C   UNL     1       1.335   4.622  20.100  0.00  0.00    +0.000 A 
ATOM      6  O   UNL     1       0.786   3.586  20.468  0.00  0.00    +0.000 OA
ATOM      7  C   UNL     1       2.121   4.724  18.826  0.00  0.00    +0.000 A 
ATOM      8 BR   UNL     1       2.254   3.210  17.746  0.00  0.00    +0.000 Br
ATOM      9  H   UNL     1       0.704   5.666  21.718  0.00  0.00    +0.000 HD
ENDROOT
BRANCH   3  10
ATOM     10  N   UNL     1       1.844   7.988  21.493  0.00  0.00    +0.000 N 
ATOM     11  H   UNL     1       2.716   8.274  21.920  0.00  0.00    +0.000 HD
BRANCH  10  12
ATOM     12  C   UNL     1       0.829   8.966  21.495  0.00  0.00    +0.000 A 
ATOM     13  C   UNL     1       0.495   9.619  20.304  0.00  0.00    +0.000 A 
ATOM     14  C   UNL     1      -0.419  10.680  20.310  0.00  0.00    +0.000 A 
ATOM     15  C   UNL     1      -1.020  11.086  21.505  0.00  0.00    +0.000 A 
ATOM     16  C   UNL     1      -0.720  10.418  22.692  0.00  0.00    +0.000 A 
ATOM     17  C   UNL     1       0.201   9.371  22.683  0.00  0.00    +0.000 A 
BRANCH  15  18
ATOM     18  C   UNL     1      -1.915  12.202  21.525  0.00  0.00    +0.000 C 
ATOM     19  N   UNL     1      -2.645  13.106  21.524  0.00  0.00    +0.000 NA
ENDBRANCH  15  18
ENDBRANCH  10  12
ENDBRANCH   3  10
BRANCH   1  20
ATOM     20  O   UNL     1       3.303   6.151  17.305  0.00  0.00    +0.000 OA
BRANCH  20  27
ATOM     21  C   UNL     1       7.912   5.659  19.067  0.00  0.00    +0.000 C 
ATOM     22  C   UNL     1       6.910   5.523  17.958  0.00  0.00    +0.000 A 
ATOM     23  C   UNL     1       7.257   4.943  16.732  0.00  0.00    +0.000 A 
ATOM     24  C   UNL     1       6.309   4.815  15.707  0.00  0.00    +0.000 A 
ATOM     25  C   UNL     1       6.688   4.211  14.386  0.00  0.00    +0.000 C 
ATOM     26  C   UNL     1       4.995   5.250  15.926  0.00  0.00    +0.000 A 
ATOM     27  C   UNL     1       4.634   5.802  17.154  0.00  0.00    +0.000 A 
ATOM     28  C   UNL     1       5.600   5.978  18.150  0.00  0.00    +0.000 A 
ENDBRANCH  20  27
ENDBRANCH   1  20
TORSDOF 5
ENDMDL
MODEL 9
REMARK VINA RESULT:      -7.8      1.664      2.482
REMARK  Name = 
REMARK  7 active torsions:
REMARK  status: ('A' for Active; 'I' for Inactive)
REMARK    1  A    between atoms: C_1  and  C_2
REMARK    2  A    between atoms: C_4  and  C_5
REMARK    3  A    between atoms: C_7  and  O_8
REMARK    4  A    between atoms: O_8  and  C_9
REMARK    5  A    between atoms: C_11  and  N_12
REMARK    6  A    between atoms: N_12  and  C_13
REMARK    7  A    between atoms: C_16  and  C_17
REMARK                            x       y       z     vdW  Elec       q    Type
REMARK                         _______ _______ _______ _____ _____    ______ ____
ROOT
ATOM      1  C   UNL     1       2.655   5.804  18.524  0.00  0.00    +0.000 A 
ATOM      2  C   UNL     1       2.602   6.882  19.489  0.00  0.00    +0.000 A 
ATOM      3  C   UNL     1       1.876   6.805  20.617  0.00  0.00    +0.000 A 
ATOM      4  N   UNL     1       1.231   5.626  20.864  0.00  0.00    +0.000 N 
ATOM      5  C   UNL     1       1.371   4.480  20.114  0.00  0.00    +0.000 A 
ATOM      6  O   UNL     1       0.851   3.432  20.489  0.00  0.00    +0.000 OA
ATOM      7  C   UNL     1       2.155   4.595  18.839  0.00  0.00    +0.000 A 
ATOM      8 BR   UNL     1       2.330   3.078  17.768  0.00  0.00    +0.000 Br
ATOM      9  H   UNL     1       0.711   5.516  21.725  0.00  0.00    +0.000 HD
ENDROOT
BRANCH   3  10
ATOM     10  N   UNL     1       1.786   7.868  21.485  0.00  0.00    +0.000 N 
ATOM     11  H   UNL     1       2.572   8.013  22.106  0.00  0.00    +0.000 HD
BRANCH  10  12
ATOM     12  C   UNL     1       0.966   8.996  21.284  0.00  0.00    +0.000 A 
ATOM     13  C   UNL     1       0.304   9.572  22.373  0.00  0.00    +0.000 A 
ATOM     14  C   UNL     1      -0.613  10.612  22.176  0.00  0.00    +0.000 A 
ATOM     15  C   UNL     1      -0.864  11.096  20.888  0.00  0.00    +0.000 A 
ATOM     16  C   UNL     1      -0.182  10.552  19.800  0.00  0.00    +0.000 A 
ATOM     17  C   UNL     1       0.720   9.507  20.001  0.00  0.00    +0.000 A 
BRANCH  15  18
ATOM     18  C   UNL     1      -1.837  12.123  20.675  0.00  0.00    +0.000 C 
ATOM     19  N   UNL     1      -2.628  12.953  20.484  0.00  0.00    +0.000 NA
ENDBRANCH  15  18
ENDBRANCH  10  12
ENDBRANCH   3  10
BRANCH   1  20
ATOM     20  O   UNL     1       3.298   6.045  17.309  0.00  0.00    +0.000 OA
BRANCH  20  27
ATOM     21  C   UNL     1       7.899   5.671  19.119  0.00  0.00    +0.000 C 
ATOM     22  C   UNL     1       6.917   5.530  17.993  0.00  0.00    +0.000 A 
ATOM     23  C   UNL     1       7.300   4.998  16.757  0.00  0.00    +0.000 A 
ATOM     24  C   UNL     1       6.371   4.864  15.715  0.00  0.00    +0.000 A 
ATOM     25  C   UNL     1       6.788   4.311  14.383  0.00  0.00    +0.000 C 
ATOM     26  C   UNL     1       5.038   5.245  15.929  0.00  0.00    +0.000 A 
ATOM     27  C   UNL     1       4.642   5.748  17.166  0.00  0.00    +0.000 A 
ATOM     28  C   UNL     1       5.588   5.932  18.179  0.00  0.00    +0.000 A 
ENDBRANCH  20  27
ENDBRANCH   1  20
TORSDOF 5
ENDMDL
