MODEL 1
REMARK VINA RESULT:      -7.1      0.000      0.000
REMARK  Name = 
REMARK  5 active torsions:
REMARK  status: ('A' for Active; 'I' for Inactive)
REMARK    1  A    between atoms: C_1  and  C_2
REMARK    2  A    between atoms: C_5  and  N_6
REMARK    3  A    between atoms: C_7  and  C_8
REMARK    4  A    between atoms: N_10  and  C_11
REMARK    5  A    between atoms: C_11  and  C_12
REMARK                            x       y       z     vdW  Elec       q    Type
REMARK                         _______ _______ _______ _____ _____    ______ ____
ROOT
ATOM      1  N   UNL     1       5.527   4.555  17.858  0.00  0.00    +0.000 N 
ATOM      2  C   UNL     1       6.797   5.015  18.005  0.00  0.00    +0.000 A 
ATOM      3  C   UNL     1       7.328   5.496  19.322  0.00  0.00    +0.000 C 
ATOM      4  N   UNL     1       7.468   5.128  16.891  0.00  0.00    +0.000 NA
ATOM      5  N   UNL     1       6.563   4.740  15.919  0.00  0.00    +0.000 N 
ATOM      6  C   UNL     1       5.292   4.563  16.499  0.00  0.00    +0.000 A 
ATOM      7  O   UNL     1       4.221   4.483  15.916  0.00  0.00    +0.000 OA
ENDROOT
BRANCH   1  12
ATOM      8  C   UNL     1       1.698   3.032  21.784  0.00  0.00    +0.000 C 
ATOM      9  C   UNL     1       2.722   3.459  20.775  0.00  0.00    +0.000 A 
ATOM     10  C   UNL     1       2.777   4.778  20.311  0.00  0.00    +0.000 A 
ATOM     11  C   UNL     1       3.720   5.143  19.347  0.00  0.00    +0.000 A 
ATOM     12  C   UNL     1       4.628   4.194  18.854  0.00  0.00    +0.000 A 
ATOM     13  C   UNL     1       4.602   2.893  19.339  0.00  0.00    +0.000 A 
ATOM     14  C   UNL     1       3.641   2.520  20.280  0.00  0.00    +0.000 A 
ENDBRANCH   1  12
BRANCH   5  15
ATOM     15  C   UNL     1       6.825   4.857  14.497  0.00  0.00    +0.000 C 
BRANCH  15  16
ATOM     16  C   UNL     1       6.381   3.660  13.695  0.00  0.00    +0.000 C 
ATOM     17  C   UNL     1       5.298   3.696  12.634  0.00  0.00    +0.000 C 
ATOM     18  C   UNL     1       6.739   3.600  12.224  0.00  0.00    +0.000 C 
ENDBRANCH  15  16
ENDBRANCH   5  15
TORSDOF 3
ENDMDL
MODEL 2
REMARK VINA RESULT:      -6.9      0.121      1.146
REMARK  Name = 
REMARK  5 active torsions:
REMARK  status: ('A' for Active; 'I' for Inactive)
REMARK    1  A    between atoms: C_1  and  C_2
REMARK    2  A    between atoms: C_5  and  N_6
REMARK    3  A    between atoms: C_7  and  C_8
REMARK    4  A    between atoms: N_10  and  C_11
REMARK    5  A    between atoms: C_11  and  C_12
REMARK                            x       y       z     vdW  Elec       q    Type
REMARK                         _______ _______ _______ _____ _____    ______ ____
ROOT
ATOM      1  N   UNL     1       5.471   4.542  17.740  0.00  0.00    +0.000 N 
ATOM      2  C   UNL     1       6.726   5.030  17.923  0.00  0.00    +0.000 A 
ATOM      3  C   UNL     1       7.202   5.540  19.250  0.00  0.00    +0.000 C 
ATOM      4  N   UNL     1       7.431   5.142  16.831  0.00  0.00    +0.000 NA
ATOM      5  N   UNL     1       6.568   4.722  15.834  0.00  0.00    +0.000 N 
ATOM      6  C   UNL     1       5.282   4.527  16.374  0.00  0.00    +0.000 A 
ATOM      7  O   UNL     1       4.233   4.417  15.757  0.00  0.00    +0.000 OA
ENDROOT
BRANCH   1  12
ATOM      8  C   UNL     1       1.833   3.093  21.870  0.00  0.00    +0.000 C 
ATOM      9  C   UNL     1       2.775   3.448  20.758  0.00  0.00    +0.000 A 
ATOM     10  C   UNL     1       3.661   2.503  20.229  0.00  0.00    +0.000 A 
ATOM     11  C   UNL     1       4.551   2.867  19.215  0.00  0.00    +0.000 A 
ATOM     12  C   UNL     1       4.547   4.176  18.711  0.00  0.00    +0.000 A 
ATOM     13  C   UNL     1       3.644   5.108  19.207  0.00  0.00    +0.000 A 
ATOM     14  C   UNL     1       2.776   4.753  20.240  0.00  0.00    +0.000 A 
ENDBRANCH   1  12
BRANCH   5  15
ATOM     15  C   UNL     1       6.876   4.826  14.421  0.00  0.00    +0.000 C 
BRANCH  15  16
ATOM     16  C   UNL     1       6.423   3.638  13.610  0.00  0.00    +0.000 C 
ATOM     17  C   UNL     1       5.333   3.685  12.558  0.00  0.00    +0.000 C 
ATOM     18  C   UNL     1       6.769   3.591  12.135  0.00  0.00    +0.000 C 
ENDBRANCH  15  16
ENDBRANCH   5  15
TORSDOF 3
ENDMDL
MODEL 3
REMARK VINA RESULT:      -6.8      2.946      4.178
REMARK  Name = 
REMARK  5 active torsions:
REMARK  status: ('A' for Active; 'I' for Inactive)
REMARK    1  A    between atoms: C_1  and  C_2
REMARK    2  A    between atoms: C_5  and  N_6
REMARK    3  A    between atoms: C_7  and  C_8
REMARK    4  A    between atoms: N_10  and  C_11
REMARK    5  A    between atoms: C_11  and  C_12
REMARK                            x       y       z     vdW  Elec       q    Type
REMARK                         _______ _______ _______ _____ _____    ______ ____
ROOT
ATOM      1  N   UNL     1       3.143   5.911  17.978  0.00  0.00    +0.000 N 
ATOM      2  C   UNL     1       2.663   4.645  17.863  0.00  0.00    +0.000 A 
ATOM      3  C   UNL     1       1.478   4.162  18.642  0.00  0.00    +0.000 C 
ATOM      4  N   UNL     1       3.392   3.852  17.126  0.00  0.00    +0.000 NA
ATOM      5  N   UNL     1       4.460   4.644  16.742  0.00  0.00    +0.000 N 
ATOM      6  C   UNL     1       4.406   5.873  17.426  0.00  0.00    +0.000 A 
ATOM      7  O   UNL     1       5.305   6.694  17.538  0.00  0.00    +0.000 OA
ENDROOT
BRANCH   1  12
ATOM      8  C   UNL     1       0.416  10.314  20.339  0.00  0.00    +0.000 C 
ATOM      9  C   UNL     1       1.164   9.178  19.706  0.00  0.00    +0.000 A 
ATOM     10  C   UNL     1       1.452   9.173  18.337  0.00  0.00    +0.000 A 
ATOM     11  C   UNL     1       2.121   8.088  17.765  0.00  0.00    +0.000 A 
ATOM     12  C   UNL     1       2.525   7.008  18.565  0.00  0.00    +0.000 A 
ATOM     13  C   UNL     1       2.274   7.025  19.931  0.00  0.00    +0.000 A 
ATOM     14  C   UNL     1       1.579   8.095  20.497  0.00  0.00    +0.000 A 
ENDBRANCH   1  12
BRANCH   5  15
ATOM     15  C   UNL     1       5.616   4.130  16.033  0.00  0.00    +0.000 C 
BRANCH  15  16
ATOM     16  C   UNL     1       5.797   4.717  14.656  0.00  0.00    +0.000 C 
ATOM     17  C   UNL     1       7.128   4.818  13.938  0.00  0.00    +0.000 C 
ATOM     18  C   UNL     1       6.127   3.786  13.508  0.00  0.00    +0.000 C 
ENDBRANCH  15  16
ENDBRANCH   5  15
TORSDOF 3
ENDMDL
MODEL 4
REMARK VINA RESULT:      -6.8      2.605      4.421
REMARK  Name = 
REMARK  5 active torsions:
REMARK  status: ('A' for Active; 'I' for Inactive)
REMARK    1  A    between atoms: C_1  and  C_2
REMARK    2  A    between atoms: C_5  and  N_6
REMARK    3  A    between atoms: C_7  and  C_8
REMARK    4  A    between atoms: N_10  and  C_11
REMARK    5  A    between atoms: C_11  and  C_12
REMARK                            x       y       z     vdW  Elec       q    Type
REMARK                         _______ _______ _______ _____ _____    ______ ____
ROOT
ATOM      1  N   UNL     1       5.369   5.226  17.489  0.00  0.00    +0.000 N 
ATOM      2  C   UNL     1       5.930   5.520  16.286  0.00  0.00    +0.000 A 
ATOM      3  C   UNL     1       5.497   4.854  15.015  0.00  0.00    +0.000 C 
ATOM      4  N   UNL     1       6.957   6.323  16.346  0.00  0.00    +0.000 NA
ATOM      5  N   UNL     1       7.113   6.562  17.701  0.00  0.00    +0.000 N 
ATOM      6  C   UNL     1       6.243   5.729  18.430  0.00  0.00    +0.000 A 
ATOM      7  O   UNL     1       6.292   5.479  19.626  0.00  0.00    +0.000 OA
ENDROOT
BRANCH   1  12
ATOM      8  C   UNL     1       0.589   2.390  18.714  0.00  0.00    +0.000 C 
ATOM      9  C   UNL     1       1.853   3.116  18.358  0.00  0.00    +0.000 A 
ATOM     10  C   UNL     1       3.071   2.437  18.243  0.00  0.00    +0.000 A 
ATOM     11  C   UNL     1       4.240   3.142  17.943  0.00  0.00    +0.000 A 
ATOM     12  C   UNL     1       4.194   4.528  17.735  0.00  0.00    +0.000 A 
ATOM     13  C   UNL     1       2.981   5.201  17.812  0.00  0.00    +0.000 A 
ATOM     14  C   UNL     1       1.818   4.503  18.142  0.00  0.00    +0.000 A 
ENDBRANCH   1  12
BRANCH   5  15
ATOM     15  C   UNL     1       8.240   7.286  18.255  0.00  0.00    +0.000 C 
BRANCH  15  16
ATOM     16  C   UNL     1       7.975   8.755  18.469  0.00  0.00    +0.000 C 
ATOM     17  C   UNL     1       9.001   9.742  18.989  0.00  0.00    +0.000 C 
ATOM     18  C   UNL     1       8.628   9.754  17.536  0.00  0.00    +0.000 C 
ENDBRANCH  15  16
ENDBRANCH   5  15
TORSDOF 3
ENDMDL
MODEL 5
REMARK VINA RESULT:      -6.7      2.916      4.223
REMARK  Name = 
REMARK  5 active torsions:
REMARK  status: ('A' for Active; 'I' for Inactive)
REMARK    1  A    between atoms: C_1  and  C_2
REMARK    2  A    between atoms: C_5  and  N_6
REMARK    3  A    between atoms: C_7  and  C_8
REMARK    4  A    between atoms: N_10  and  C_11
REMARK    5  A    between atoms: C_11  and  C_12
REMARK                            x       y       z     vdW  Elec       q    Type
REMARK                         _______ _______ _______ _____ _____    ______ ____
ROOT
ATOM      1  N   UNL     1       3.119   5.852  17.975  0.00  0.00    +0.000 N 
ATOM      2  C   UNL     1       2.676   4.572  17.872  0.00  0.00    +0.000 A 
ATOM      3  C   UNL     1       1.507   4.062  18.661  0.00  0.00    +0.000 C 
ATOM      4  N   UNL     1       3.424   3.794  17.139  0.00  0.00    +0.000 NA
ATOM      5  N   UNL     1       4.468   4.613  16.745  0.00  0.00    +0.000 N 
ATOM      6  C   UNL     1       4.382   5.845  17.419  0.00  0.00    +0.000 A 
ATOM      7  O   UNL     1       5.257   6.692  17.521  0.00  0.00    +0.000 OA
ENDROOT
BRANCH   1  12
ATOM      8  C   UNL     1       0.667  10.380  20.401  0.00  0.00    +0.000 C 
ATOM      9  C   UNL     1       1.283   9.165  19.772  0.00  0.00    +0.000 A 
ATOM     10  C   UNL     1       1.615   8.042  20.539  0.00  0.00    +0.000 A 
ATOM     11  C   UNL     1       2.218   6.935  19.935  0.00  0.00    +0.000 A 
ATOM     12  C   UNL     1       2.473   6.936  18.556  0.00  0.00    +0.000 A 
ATOM     13  C   UNL     1       2.111   8.033  17.785  0.00  0.00    +0.000 A 
ATOM     14  C   UNL     1       1.537   9.151  18.392  0.00  0.00    +0.000 A 
ENDBRANCH   1  12
BRANCH   5  15
ATOM     15  C   UNL     1       5.635   4.126  16.035  0.00  0.00    +0.000 C 
BRANCH  15  16
ATOM     16  C   UNL     1       5.790   4.701  14.650  0.00  0.00    +0.000 C 
ATOM     17  C   UNL     1       7.119   4.884  13.944  0.00  0.00    +0.000 C 
ATOM     18  C   UNL     1       6.199   3.777  13.522  0.00  0.00    +0.000 C 
ENDBRANCH  15  16
ENDBRANCH   5  15
TORSDOF 3
ENDMDL
MODEL 6
REMARK VINA RESULT:      -6.6      2.651      4.274
REMARK  Name = 
REMARK  5 active torsions:
REMARK  status: ('A' for Active; 'I' for Inactive)
REMARK    1  A    between atoms: C_1  and  C_2
REMARK    2  A    between atoms: C_5  and  N_6
REMARK    3  A    between atoms: C_7  and  C_8
REMARK    4  A    between atoms: N_10  and  C_11
REMARK    5  A    between atoms: C_11  and  C_12
REMARK                            x       y       z     vdW  Elec       q    Type
REMARK                         _______ _______ _______ _____ _____    ______ ____
ROOT
ATOM      1  N   UNL     1       5.351   5.350  17.747  0.00  0.00    +0.000 N 
ATOM      2  C   UNL     1       5.789   5.820  16.549  0.00  0.00    +0.000 A 
ATOM      3  C   UNL     1       5.249   5.315  15.245  0.00  0.00    +0.000 C 
ATOM      4  N   UNL     1       6.801   6.641  16.623  0.00  0.00    +0.000 NA
ATOM      5  N   UNL     1       7.080   6.702  17.977  0.00  0.00    +0.000 N 
ATOM      6  C   UNL     1       6.301   5.751  18.664  0.00  0.00    +0.000 A 
ATOM      7  O   UNL     1       6.468   5.346  19.805  0.00  0.00    +0.000 OA
ENDROOT
BRANCH   1  12
ATOM      8  C   UNL     1       0.664   2.231  18.583  0.00  0.00    +0.000 C 
ATOM      9  C   UNL     1       1.895   3.069  18.399  0.00  0.00    +0.000 A 
ATOM     10  C   UNL     1       1.830   4.467  18.416  0.00  0.00    +0.000 A 
ATOM     11  C   UNL     1       2.985   5.225  18.209  0.00  0.00    +0.000 A 
ATOM     12  C   UNL     1       4.218   4.588  18.004  0.00  0.00    +0.000 A 
ATOM     13  C   UNL     1       4.294   3.201  18.023  0.00  0.00    +0.000 A 
ATOM     14  C   UNL     1       3.136   2.443  18.199  0.00  0.00    +0.000 A 
ENDBRANCH   1  12
BRANCH   5  15
ATOM     15  C   UNL     1       8.241   7.381  18.519  0.00  0.00    +0.000 C 
BRANCH  15  16
ATOM     16  C   UNL     1       8.558   8.686  17.833  0.00  0.00    +0.000 C 
ATOM     17  C   UNL     1       7.754   9.960  18.005  0.00  0.00    +0.000 C 
ATOM     18  C   UNL     1       9.095   9.832  18.667  0.00  0.00    +0.000 C 
ENDBRANCH  15  16
ENDBRANCH   5  15
TORSDOF 3
ENDMDL
MODEL 7
REMARK VINA RESULT:      -6.6      1.504      1.887
REMARK  Name = 
REMARK  5 active torsions:
REMARK  status: ('A' for Active; 'I' for Inactive)
REMARK    1  A    between atoms: C_1  and  C_2
REMARK    2  A    between atoms: C_5  and  N_6
REMARK    3  A    between atoms: C_7  and  C_8
REMARK    4  A    between atoms: N_10  and  C_11
REMARK    5  A    between atoms: C_11  and  C_12
REMARK                            x       y       z     vdW  Elec       q    Type
REMARK                         _______ _______ _______ _____ _____    ______ ____
ROOT
ATOM      1  N   UNL     1       4.518   5.036  17.136  0.00  0.00    +0.000 N 
ATOM      2  C   UNL     1       4.767   6.324  16.781  0.00  0.00    +0.000 A 
ATOM      3  C   UNL     1       3.890   7.459  17.216  0.00  0.00    +0.000 C 
ATOM      4  N   UNL     1       5.745   6.474  15.931  0.00  0.00    +0.000 NA
ATOM      5  N   UNL     1       6.164   5.180  15.674  0.00  0.00    +0.000 N 
ATOM      6  C   UNL     1       5.278   4.269  16.278  0.00  0.00    +0.000 A 
ATOM      7  O   UNL     1       5.182   3.072  16.048  0.00  0.00    +0.000 OA
ENDROOT
BRANCH   1  12
ATOM      8  C   UNL     1       1.026   2.934  21.109  0.00  0.00    +0.000 C 
ATOM      9  C   UNL     1       1.922   3.518  20.057  0.00  0.00    +0.000 A 
ATOM     10  C   UNL     1       1.476   3.696  18.742  0.00  0.00    +0.000 A 
ATOM     11  C   UNL     1       2.340   4.213  17.773  0.00  0.00    +0.000 A 
ATOM     12  C   UNL     1       3.651   4.573  18.118  0.00  0.00    +0.000 A 
ATOM     13  C   UNL     1       4.086   4.433  19.430  0.00  0.00    +0.000 A 
ATOM     14  C   UNL     1       3.234   3.889  20.392  0.00  0.00    +0.000 A 
ENDBRANCH   1  12
BRANCH   5  15
ATOM     15  C   UNL     1       7.141   4.849  14.655  0.00  0.00    +0.000 C 
BRANCH  15  16
ATOM     16  C   UNL     1       6.573   4.802  13.259  0.00  0.00    +0.000 C 
ATOM     17  C   UNL     1       7.250   4.128  12.083  0.00  0.00    +0.000 C 
ATOM     18  C   UNL     1       6.061   3.478  12.728  0.00  0.00    +0.000 C 
ENDBRANCH  15  16
ENDBRANCH   5  15
TORSDOF 3
ENDMDL
MODEL 8
REMARK VINA RESULT:      -6.5      2.326      5.627
REMARK  Name = 
REMARK  5 active torsions:
REMARK  status: ('A' for Active; 'I' for Inactive)
REMARK    1  A    between atoms: C_1  and  C_2
REMARK    2  A    between atoms: C_5  and  N_6
REMARK    3  A    between atoms: C_7  and  C_8
REMARK    4  A    between atoms: N_10  and  C_11
REMARK    5  A    between atoms: C_11  and  C_12
REMARK                            x       y       z     vdW  Elec       q    Type
REMARK                         _______ _______ _______ _____ _____    ______ ____
ROOT
ATOM      1  N   UNL     1       5.412   4.745  17.753  0.00  0.00    +0.000 N 
ATOM      2  C   UNL     1       5.207   3.910  16.701  0.00  0.00    +0.000 A 
ATOM      3  C   UNL     1       5.645   4.252  15.309  0.00  0.00    +0.000 C 
ATOM      4  N   UNL     1       4.488   2.856  16.975  0.00  0.00    +0.000 NA
ATOM      5  N   UNL     1       4.161   3.015  18.310  0.00  0.00    +0.000 N 
ATOM      6  C   UNL     1       4.576   4.287  18.750  0.00  0.00    +0.000 A 
ATOM      7  O   UNL     1       4.228   4.864  19.769  0.00  0.00    +0.000 OA
ENDROOT
BRANCH   1  12
ATOM      8  C   UNL     1       8.713   9.363  18.172  0.00  0.00    +0.000 C 
ATOM      9  C   UNL     1       7.849   8.146  18.023  0.00  0.00    +0.000 A 
ATOM     10  C   UNL     1       6.676   8.179  17.260  0.00  0.00    +0.000 A 
ATOM     11  C   UNL     1       5.871   7.040  17.163  0.00  0.00    +0.000 A 
ATOM     12  C   UNL     1       6.246   5.855  17.813  0.00  0.00    +0.000 A 
ATOM     13  C   UNL     1       7.429   5.807  18.540  0.00  0.00    +0.000 A 
ATOM     14  C   UNL     1       8.217   6.952  18.663  0.00  0.00    +0.000 A 
ENDBRANCH   1  12
BRANCH   5  15
ATOM     15  C   UNL     1       3.229   2.151  19.009  0.00  0.00    +0.000 C 
BRANCH  15  16
ATOM     16  C   UNL     1       1.802   2.292  18.545  0.00  0.00    +0.000 C 
ATOM     17  C   UNL     1       0.686   2.886  19.382  0.00  0.00    +0.000 C 
ATOM     18  C   UNL     1       1.269   3.680  18.250  0.00  0.00    +0.000 C 
ENDBRANCH  15  16
ENDBRANCH   5  15
TORSDOF 3
ENDMDL
MODEL 9
REMARK VINA RESULT:      -6.5      1.135      1.261
REMARK  Name = 
REMARK  5 active torsions:
REMARK  status: ('A' for Active; 'I' for Inactive)
REMARK    1  A    between atoms: C_1  and  C_2
REMARK    2  A    between atoms: C_5  and  N_6
REMARK    3  A    between atoms: C_7  and  C_8
REMARK    4  A    between atoms: N_10  and  C_11
REMARK    5  A    between atoms: C_11  and  C_12
REMARK                            x       y       z     vdW  Elec       q    Type
REMARK                         _______ _______ _______ _____ _____    ______ ____
ROOT
ATOM      1  N   UNL     1       5.720   5.157  16.849  0.00  0.00    +0.000 N 
ATOM      2  C   UNL     1       6.937   5.761  16.810  0.00  0.00    +0.000 A 
ATOM      3  C   UNL     1       7.424   6.654  17.911  0.00  0.00    +0.000 C 
ATOM      4  N   UNL     1       7.584   5.610  15.687  0.00  0.00    +0.000 NA
ATOM      5  N   UNL     1       6.718   4.869  14.902  0.00  0.00    +0.000 N 
ATOM      6  C   UNL     1       5.477   4.746  15.555  0.00  0.00    +0.000 A 
ATOM      7  O   UNL     1       4.415   4.396  15.060  0.00  0.00    +0.000 OA
ENDROOT
BRANCH   1  12
ATOM      8  C   UNL     1       2.089   4.493  21.182  0.00  0.00    +0.000 C 
ATOM      9  C   UNL     1       3.061   4.699  20.058  0.00  0.00    +0.000 A 
ATOM     10  C   UNL     1       3.042   5.869  19.289  0.00  0.00    +0.000 A 
ATOM     11  C   UNL     1       3.937   6.023  18.226  0.00  0.00    +0.000 A 
ATOM     12  C   UNL     1       4.870   5.016  17.939  0.00  0.00    +0.000 A 
ATOM     13  C   UNL     1       4.918   3.870  18.723  0.00  0.00    +0.000 A 
ATOM     14  C   UNL     1       4.004   3.702  19.765  0.00  0.00    +0.000 A 
ENDBRANCH   1  12
BRANCH   5  15
ATOM     15  C   UNL     1       6.957   4.592  13.499  0.00  0.00    +0.000 C 
BRANCH  15  16
ATOM     16  C   UNL     1       6.264   3.352  12.996  0.00  0.00    +0.000 C 
ATOM     17  C   UNL     1       5.250   3.336  11.869  0.00  0.00    +0.000 C 
ATOM     18  C   UNL     1       6.637   2.816  11.628  0.00  0.00    +0.000 C 
ENDBRANCH  15  16
ENDBRANCH   5  15
TORSDOF 3
ENDMDL
