MODEL 1
REMARK VINA RESULT:      -8.0      0.000      0.000
REMARK  Name = 
REMARK  12 active torsions:
REMARK  status: ('A' for Active; 'I' for Inactive)
REMARK    1  A    between atoms: C_1  and  C_2
REMARK    2  A    between atoms: C_5  and  C_6
REMARK    3  A    between atoms: C_7  and  C_8
REMARK    4  A    between atoms: C_9  and  C_10
REMARK    5  A    between atoms: N_12  and  C_13
REMARK    6  A    between atoms: C_13  and  C_14
REMARK    7  A    between atoms: C_14  and  C_15
REMARK    8  A    between atoms: C_15  and  C_16
REMARK    9  A    between atoms: C_16  and  N_17
REMARK   10  A    between atoms: N_20  and  C_21
REMARK   11  A    between atoms: C_21  and  C_22
REMARK   12  A    between atoms: C_21  and  C_28
REMARK                            x       y       z     vdW  Elec       q    Type
REMARK                         _______ _______ _______ _____ _____    ______ ____
ROOT
ATOM      1  C   UNL     1       2.052   3.158  19.473  0.00  0.00    +0.000 C 
ENDROOT
BRANCH   1   2
ATOM      2  N   UNL     1       3.516   3.073  19.317  0.00  0.00    +0.000 NA
ATOM      3  C   UNL     1       3.833   2.370  18.049  0.00  0.00    +0.000 C 
ATOM      4  C   UNL     1       3.560   3.210  16.771  0.00  0.00    +0.000 C 
ATOM      5  N   UNL     1       4.218   4.547  16.751  0.00  0.00    +0.000 NA
ATOM      6  C   UNL     1       3.865   5.224  18.021  0.00  0.00    +0.000 C 
ATOM      7  C   UNL     1       4.176   4.397  19.288  0.00  0.00    +0.000 C 
BRANCH   5   8
ATOM      8  C   UNL     1       5.694   4.420  16.542  0.00  0.00    +0.000 C 
BRANCH   8   9
ATOM      9  C   UNL     1       6.028   4.397  15.045  0.00  0.00    +0.000 A 
ATOM     10  C   UNL     1       5.173   3.769  14.124  0.00  0.00    +0.000 A 
ATOM     11  C   UNL     1       5.542   3.640  12.786  0.00  0.00    +0.000 A 
ATOM     12  C   UNL     1       6.768   4.140  12.350  0.00  0.00    +0.000 A 
ATOM     13  C   UNL     1       7.619   4.782  13.247  0.00  0.00    +0.000 A 
ATOM     14  C   UNL     1       7.250   4.918  14.587  0.00  0.00    +0.000 A 
ENDBRANCH   8   9
BRANCH   8  15
ATOM     15  C   UNL     1       6.556   5.468  17.261  0.00  0.00    +0.000 A 
ATOM     16  C   UNL     1       7.360   5.066  18.345  0.00  0.00    +0.000 A 
ATOM     17  C   UNL     1       8.184   5.980  19.004  0.00  0.00    +0.000 A 
ATOM     18  C   UNL     1       8.214   7.311  18.597  0.00  0.00    +0.000 A 
ATOM     19  C   UNL     1       7.424   7.728  17.529  0.00  0.00    +0.000 A 
ATOM     20  C   UNL     1       6.613   6.811  16.856  0.00  0.00    +0.000 A 
ENDBRANCH   8  15
ENDBRANCH   5   8
ENDBRANCH   1   2
BRANCH   1  21
ATOM     21  C   UNL     1       1.610   3.879  20.747  0.00  0.00    +0.000 C 
BRANCH  21  22
ATOM     22  C   UNL     1       0.946   5.209  20.408  0.00  0.00    +0.000 C 
BRANCH  22  23
ATOM     23  C   UNL     1       1.933   6.351  20.612  0.00  0.00    +0.000 C 
BRANCH  23  26
ATOM     24  C   UNL     1       1.114   8.660  20.747  0.00  0.00    +0.000 C 
ATOM     25  O   UNL     1       1.429   8.935  19.598  0.00  0.00    +0.000 OA
ATOM     26  N   UNL     1       1.326   7.440  21.340  0.00  0.00    +0.000 N 
ATOM     27  H   UNL     1       0.981   7.257  22.272  0.00  0.00    +0.000 HD
BRANCH  24  29
ATOM     28  C   UNL     1      -0.270  10.634  21.141  0.00  0.00    +0.000 C 
ATOM     29  C   UNL     1       0.452   9.627  21.654  0.00  0.00    +0.000 C 
BRANCH  28  31
ATOM     30  C   UNL     1      -1.992  12.324  21.555  0.00  0.00    +0.000 C 
ATOM     31  C   UNL     1      -0.929  11.618  21.967  0.00  0.00    +0.000 C 
BRANCH  30  36
ATOM     32  C   UNL     1      -4.425  16.348  24.836  0.00  0.00    +0.000 C 
ATOM     33  C   UNL     1      -3.838  15.271  23.974  0.00  0.00    +0.000 A 
ATOM     34  C   UNL     1      -4.613  14.202  23.540  0.00  0.00    +0.000 A 
ATOM     35  C   UNL     1      -4.025  13.222  22.740  0.00  0.00    +0.000 A 
ATOM     36  C   UNL     1      -2.683  13.329  22.373  0.00  0.00    +0.000 A 
ATOM     37  C   UNL     1      -1.987  14.427  22.871  0.00  0.00    +0.000 A 
ATOM     38  N   UNL     1      -2.529  15.393  23.652  0.00  0.00    +0.000 NA
ENDBRANCH  30  36
ENDBRANCH  28  31
ENDBRANCH  24  29
ENDBRANCH  23  26
ENDBRANCH  22  23
ENDBRANCH  21  22
ENDBRANCH   1  21
TORSDOF 11
ENDMDL
MODEL 2
REMARK VINA RESULT:      -7.9      1.015      1.124
REMARK  Name = 
REMARK  12 active torsions:
REMARK  status: ('A' for Active; 'I' for Inactive)
REMARK    1  A    between atoms: C_1  and  C_2
REMARK    2  A    between atoms: C_5  and  C_6
REMARK    3  A    between atoms: C_7  and  C_8
REMARK    4  A    between atoms: C_9  and  C_10
REMARK    5  A    between atoms: N_12  and  C_13
REMARK    6  A    between atoms: C_13  and  C_14
REMARK    7  A    between atoms: C_14  and  C_15
REMARK    8  A    between atoms: C_15  and  C_16
REMARK    9  A    between atoms: C_16  and  N_17
REMARK   10  A    between atoms: N_20  and  C_21
REMARK   11  A    between atoms: C_21  and  C_22
REMARK   12  A    between atoms: C_21  and  C_28
REMARK                            x       y       z     vdW  Elec       q    Type
REMARK                         _______ _______ _______ _____ _____    ______ ____
ROOT
ATOM      1  C   UNL     1       2.322   4.075  19.777  0.00  0.00    +0.000 C 
ENDROOT
BRANCH   1   2
ATOM      2  N   UNL     1       3.789   4.076  19.619  0.00  0.00    +0.000 NA
ATOM      3  C   UNL     1       4.186   2.958  18.729  0.00  0.00    +0.000 C 
ATOM      4  C   UNL     1       3.839   3.182  17.232  0.00  0.00    +0.000 C 
ATOM      5  N   UNL     1       4.357   4.456  16.657  0.00  0.00    +0.000 NA
ATOM      6  C   UNL     1       3.927   5.548  17.561  0.00  0.00    +0.000 C 
ATOM      7  C   UNL     1       4.310   5.334  19.041  0.00  0.00    +0.000 C 
BRANCH   5   8
ATOM      8  C   UNL     1       5.841   4.399  16.467  0.00  0.00    +0.000 C 
BRANCH   8   9
ATOM      9  C   UNL     1       6.195   4.396  14.974  0.00  0.00    +0.000 A 
ATOM     10  C   UNL     1       5.461   3.621  14.059  0.00  0.00    +0.000 A 
ATOM     11  C   UNL     1       5.864   3.522  12.729  0.00  0.00    +0.000 A 
ATOM     12  C   UNL     1       7.003   4.198  12.293  0.00  0.00    +0.000 A 
ATOM     13  C   UNL     1       7.731   4.984  13.183  0.00  0.00    +0.000 A 
ATOM     14  C   UNL     1       7.327   5.090  14.516  0.00  0.00    +0.000 A 
ENDBRANCH   8   9
BRANCH   8  15
ATOM     15  C   UNL     1       6.643   5.485  17.198  0.00  0.00    +0.000 A 
ATOM     16  C   UNL     1       7.412   5.127  18.323  0.00  0.00    +0.000 A 
ATOM     17  C   UNL     1       8.182   6.076  18.996  0.00  0.00    +0.000 A 
ATOM     18  C   UNL     1       8.193   7.400  18.563  0.00  0.00    +0.000 A 
ATOM     19  C   UNL     1       7.437   7.773  17.455  0.00  0.00    +0.000 A 
ATOM     20  C   UNL     1       6.680   6.821  16.769  0.00  0.00    +0.000 A 
ENDBRANCH   8  15
ENDBRANCH   5   8
ENDBRANCH   1   2
BRANCH   1  21
ATOM     21  C   UNL     1       1.675   5.435  19.517  0.00  0.00    +0.000 C 
BRANCH  21  22
ATOM     22  C   UNL     1       1.584   6.242  20.807  0.00  0.00    +0.000 C 
BRANCH  22  23
ATOM     23  C   UNL     1       1.865   7.711  20.524  0.00  0.00    +0.000 C 
BRANCH  23  26
ATOM     24  C   UNL     1       0.853   9.299  22.098  0.00  0.00    +0.000 C 
ATOM     25  O   UNL     1       1.824   9.318  22.843  0.00  0.00    +0.000 OA
ATOM     26  N   UNL     1       0.768   8.544  20.954  0.00  0.00    +0.000 N 
ATOM     27  H   UNL     1      -0.036   8.625  20.347  0.00  0.00    +0.000 HD
BRANCH  24  29
ATOM     28  C   UNL     1      -0.574  11.228  21.641  0.00  0.00    +0.000 C 
ATOM     29  C   UNL     1      -0.366  10.103  22.342  0.00  0.00    +0.000 C 
BRANCH  28  31
ATOM     30  C   UNL     1      -1.992  12.694  22.994  0.00  0.00    +0.000 C 
ATOM     31  C   UNL     1      -1.732  12.065  21.839  0.00  0.00    +0.000 C 
BRANCH  30  36
ATOM     32  C   UNL     1      -6.375  16.281  23.885  0.00  0.00    +0.000 C 
ATOM     33  C   UNL     1      -5.262  15.301  23.666  0.00  0.00    +0.000 A 
ATOM     34  C   UNL     1      -5.438  13.950  23.937  0.00  0.00    +0.000 A 
ATOM     35  C   UNL     1      -4.374  13.073  23.720  0.00  0.00    +0.000 A 
ATOM     36  C   UNL     1      -3.161  13.552  23.223  0.00  0.00    +0.000 A 
ATOM     37  C   UNL     1      -3.079  14.924  22.999  0.00  0.00    +0.000 A 
ATOM     38  N   UNL     1      -4.093  15.801  23.203  0.00  0.00    +0.000 NA
ENDBRANCH  30  36
ENDBRANCH  28  31
ENDBRANCH  24  29
ENDBRANCH  23  26
ENDBRANCH  22  23
ENDBRANCH  21  22
ENDBRANCH   1  21
TORSDOF 11
ENDMDL
MODEL 3
REMARK VINA RESULT:      -7.7      4.997      8.594
REMARK  Name = 
REMARK  12 active torsions:
REMARK  status: ('A' for Active; 'I' for Inactive)
REMARK    1  A    between atoms: C_1  and  C_2
REMARK    2  A    between atoms: C_5  and  C_6
REMARK    3  A    between atoms: C_7  and  C_8
REMARK    4  A    between atoms: C_9  and  C_10
REMARK    5  A    between atoms: N_12  and  C_13
REMARK    6  A    between atoms: C_13  and  C_14
REMARK    7  A    between atoms: C_14  and  C_15
REMARK    8  A    between atoms: C_15  and  C_16
REMARK    9  A    between atoms: C_16  and  N_17
REMARK   10  A    between atoms: N_20  and  C_21
REMARK   11  A    between atoms: C_21  and  C_22
REMARK   12  A    between atoms: C_21  and  C_28
REMARK                            x       y       z     vdW  Elec       q    Type
REMARK                         _______ _______ _______ _____ _____    ______ ____
ROOT
ATOM      1  C   UNL     1       7.158   5.038  16.531  0.00  0.00    +0.000 C 
ENDROOT
BRANCH   1   2
ATOM      2  N   UNL     1       5.708   4.989  16.267  0.00  0.00    +0.000 NA
ATOM      3  C   UNL     1       5.042   4.208  17.337  0.00  0.00    +0.000 C 
ATOM      4  C   UNL     1       4.956   4.943  18.702  0.00  0.00    +0.000 C 
ATOM      5  N   UNL     1       4.334   6.296  18.644  0.00  0.00    +0.000 NA
ATOM      6  C   UNL     1       5.035   7.051  17.579  0.00  0.00    +0.000 C 
ATOM      7  C   UNL     1       5.081   6.329  16.215  0.00  0.00    +0.000 C 
BRANCH   5   8
ATOM      8  C   UNL     1       2.856   6.202  18.423  0.00  0.00    +0.000 C 
BRANCH   8   9
ATOM      9  C   UNL     1       2.274   4.996  19.171  0.00  0.00    +0.000 A 
ATOM     10  C   UNL     1       1.507   4.030  18.497  0.00  0.00    +0.000 A 
ATOM     11  C   UNL     1       0.876   3.006  19.201  0.00  0.00    +0.000 A 
ATOM     12  C   UNL     1       1.003   2.932  20.587  0.00  0.00    +0.000 A 
ATOM     13  C   UNL     1       1.775   3.871  21.268  0.00  0.00    +0.000 A 
ATOM     14  C   UNL     1       2.414   4.894  20.565  0.00  0.00    +0.000 A 
ENDBRANCH   8   9
BRANCH   8  15
ATOM     15  C   UNL     1       2.056   7.469  18.760  0.00  0.00    +0.000 A 
ATOM     16  C   UNL     1       1.760   7.754  20.107  0.00  0.00    +0.000 A 
ATOM     17  C   UNL     1       1.065   8.912  20.459  0.00  0.00    +0.000 A 
ATOM     18  C   UNL     1       0.647   9.801  19.472  0.00  0.00    +0.000 A 
ATOM     19  C   UNL     1       0.927   9.534  18.134  0.00  0.00    +0.000 A 
ATOM     20  C   UNL     1       1.639   8.386  17.782  0.00  0.00    +0.000 A 
ENDBRANCH   8  15
ENDBRANCH   5   8
ENDBRANCH   1   2
BRANCH   1  21
ATOM     21  C   UNL     1       7.549   4.524  17.916  0.00  0.00    +0.000 C 
BRANCH  21  22
ATOM     22  C   UNL     1       8.227   5.624  18.726  0.00  0.00    +0.000 C 
BRANCH  22  23
ATOM     23  C   UNL     1       8.034   6.970  18.041  0.00  0.00    +0.000 C 
BRANCH  23  26
ATOM     24  C   UNL     1       8.623   9.327  18.379  0.00  0.00    +0.000 C 
ATOM     25  O   UNL     1       8.351   9.654  17.232  0.00  0.00    +0.000 OA
ATOM     26  N   UNL     1       8.517   8.049  18.868  0.00  0.00    +0.000 N 
ATOM     27  H   UNL     1       8.694   7.858  19.845  0.00  0.00    +0.000 HD
BRANCH  24  29
ATOM     28  C   UNL     1       9.105  11.603  19.128  0.00  0.00    +0.000 C 
ATOM     29  C   UNL     1       9.108  10.288  19.398  0.00  0.00    +0.000 C 
BRANCH  28  31
ATOM     30  C   UNL     1       8.805  13.102  21.039  0.00  0.00    +0.000 C 
ATOM     31  C   UNL     1       9.576  12.591  20.068  0.00  0.00    +0.000 C 
BRANCH  30  36
ATOM     32  C   UNL     1      10.304  16.999  24.967  0.00  0.00    +0.000 C 
ATOM     33  C   UNL     1       9.955  15.996  23.910  0.00  0.00    +0.000 A 
ATOM     34  C   UNL     1      10.689  15.916  22.732  0.00  0.00    +0.000 A 
ATOM     35  C   UNL     1      10.328  14.968  21.774  0.00  0.00    +0.000 A 
ATOM     36  C   UNL     1       9.256  14.106  22.010  0.00  0.00    +0.000 A 
ATOM     37  C   UNL     1       8.575  14.275  23.212  0.00  0.00    +0.000 A 
ATOM     38  N   UNL     1       8.899  15.188  24.160  0.00  0.00    +0.000 NA
ENDBRANCH  30  36
ENDBRANCH  28  31
ENDBRANCH  24  29
ENDBRANCH  23  26
ENDBRANCH  22  23
ENDBRANCH  21  22
ENDBRANCH   1  21
TORSDOF 11
ENDMDL
MODEL 4
REMARK VINA RESULT:      -7.6      3.889     11.274
REMARK  Name = 
REMARK  12 active torsions:
REMARK  status: ('A' for Active; 'I' for Inactive)
REMARK    1  A    between atoms: C_1  and  C_2
REMARK    2  A    between atoms: C_5  and  C_6
REMARK    3  A    between atoms: C_7  and  C_8
REMARK    4  A    between atoms: C_9  and  C_10
REMARK    5  A    between atoms: N_12  and  C_13
REMARK    6  A    between atoms: C_13  and  C_14
REMARK    7  A    between atoms: C_14  and  C_15
REMARK    8  A    between atoms: C_15  and  C_16
REMARK    9  A    between atoms: C_16  and  N_17
REMARK   10  A    between atoms: N_20  and  C_21
REMARK   11  A    between atoms: C_21  and  C_22
REMARK   12  A    between atoms: C_21  and  C_28
REMARK                            x       y       z     vdW  Elec       q    Type
REMARK                         _______ _______ _______ _____ _____    ______ ____
ROOT
ATOM      1  C   UNL     1       1.387   8.104  18.269  0.00  0.00    +0.000 C 
ENDROOT
BRANCH   1   2
ATOM      2  N   UNL     1       1.512   8.924  19.489  0.00  0.00    +0.000 NA
ATOM      3  C   UNL     1       2.082  10.246  19.133  0.00  0.00    +0.000 C 
ATOM      4  C   UNL     1       1.097  11.183  18.381  0.00  0.00    +0.000 C 
ATOM      5  N   UNL     1      -0.208  11.397  19.068  0.00  0.00    +0.000 NA
ATOM      6  C   UNL     1      -0.754  10.058  19.392  0.00  0.00    +0.000 C 
ATOM      7  C   UNL     1       0.219   9.148  20.173  0.00  0.00    +0.000 C 
BRANCH   5   8
ATOM      8  C   UNL     1      -0.047  12.273  20.271  0.00  0.00    +0.000 C 
BRANCH   8   9
ATOM      9  C   UNL     1       0.374  13.689  19.856  0.00  0.00    +0.000 A 
ATOM     10  C   UNL     1       1.459  14.331  20.478  0.00  0.00    +0.000 A 
ATOM     11  C   UNL     1       1.757  15.661  20.187  0.00  0.00    +0.000 A 
ATOM     12  C   UNL     1       0.979  16.366  19.272  0.00  0.00    +0.000 A 
ATOM     13  C   UNL     1      -0.088  15.739  18.633  0.00  0.00    +0.000 A 
ATOM     14  C   UNL     1      -0.387  14.405  18.917  0.00  0.00    +0.000 A 
ENDBRANCH   8   9
BRANCH   8  15
ATOM     15  C   UNL     1      -1.261  12.336  21.210  0.00  0.00    +0.000 A 
ATOM     16  C   UNL     1      -2.483  12.831  20.716  0.00  0.00    +0.000 A 
ATOM     17  C   UNL     1      -3.619  12.874  21.525  0.00  0.00    +0.000 A 
ATOM     18  C   UNL     1      -3.552  12.430  22.844  0.00  0.00    +0.000 A 
ATOM     19  C   UNL     1      -2.351  11.941  23.351  0.00  0.00    +0.000 A 
ATOM     20  C   UNL     1      -1.219  11.880  22.537  0.00  0.00    +0.000 A 
ENDBRANCH   8  15
ENDBRANCH   5   8
ENDBRANCH   1   2
BRANCH   1  21
ATOM     21  C   UNL     1       2.709   7.499  17.798  0.00  0.00    +0.000 C 
BRANCH  21  22
ATOM     22  C   UNL     1       2.813   6.038  18.222  0.00  0.00    +0.000 C 
BRANCH  22  23
ATOM     23  C   UNL     1       4.109   5.433  17.700  0.00  0.00    +0.000 C 
BRANCH  23  26
ATOM     24  C   UNL     1       6.496   5.830  18.107  0.00  0.00    +0.000 C 
ATOM     25  O   UNL     1       6.786   4.642  18.111  0.00  0.00    +0.000 OA
ATOM     26  N   UNL     1       5.225   6.319  17.929  0.00  0.00    +0.000 N 
ATOM     27  H   UNL     1       5.064   7.315  17.870  0.00  0.00    +0.000 HD
BRANCH  24  29
ATOM     28  C   UNL     1       7.480   7.981  17.495  0.00  0.00    +0.000 C 
ATOM     29  C   UNL     1       7.499   6.905  18.296  0.00  0.00    +0.000 C 
BRANCH  28  31
ATOM     30  C   UNL     1       8.610   9.755  18.746  0.00  0.00    +0.000 C 
ATOM     31  C   UNL     1       8.435   9.056  17.615  0.00  0.00    +0.000 C 
BRANCH  30  36
ATOM     32  C   UNL     1      12.333  14.104  19.052  0.00  0.00    +0.000 C 
ATOM     33  C   UNL     1      11.379  12.949  19.021  0.00  0.00    +0.000 A 
ATOM     34  C   UNL     1      11.392  11.985  20.021  0.00  0.00    +0.000 A 
ATOM     35  C   UNL     1      10.487  10.926  19.951  0.00  0.00    +0.000 A 
ATOM     36  C   UNL     1       9.574  10.852  18.898  0.00  0.00    +0.000 A 
ATOM     37  C   UNL     1       9.651  11.857  17.937  0.00  0.00    +0.000 A 
ATOM     38  N   UNL     1      10.521  12.896  17.976  0.00  0.00    +0.000 NA
ENDBRANCH  30  36
ENDBRANCH  28  31
ENDBRANCH  24  29
ENDBRANCH  23  26
ENDBRANCH  22  23
ENDBRANCH  21  22
ENDBRANCH   1  21
TORSDOF 11
ENDMDL
MODEL 5
REMARK VINA RESULT:      -7.6      1.134      1.643
REMARK  Name = 
REMARK  12 active torsions:
REMARK  status: ('A' for Active; 'I' for Inactive)
REMARK    1  A    between atoms: C_1  and  C_2
REMARK    2  A    between atoms: C_5  and  C_6
REMARK    3  A    between atoms: C_7  and  C_8
REMARK    4  A    between atoms: C_9  and  C_10
REMARK    5  A    between atoms: N_12  and  C_13
REMARK    6  A    between atoms: C_13  and  C_14
REMARK    7  A    between atoms: C_14  and  C_15
REMARK    8  A    between atoms: C_15  and  C_16
REMARK    9  A    between atoms: C_16  and  N_17
REMARK   10  A    between atoms: N_20  and  C_21
REMARK   11  A    between atoms: C_21  and  C_22
REMARK   12  A    between atoms: C_21  and  C_28
REMARK                            x       y       z     vdW  Elec       q    Type
REMARK                         _______ _______ _______ _____ _____    ______ ____
ROOT
ATOM      1  C   UNL     1       2.315   4.304  19.626  0.00  0.00    +0.000 C 
ENDROOT
BRANCH   1   2
ATOM      2  N   UNL     1       3.787   4.323  19.539  0.00  0.00    +0.000 NA
ATOM      3  C   UNL     1       4.250   3.117  18.811  0.00  0.00    +0.000 C 
ATOM      4  C   UNL     1       3.975   3.150  17.283  0.00  0.00    +0.000 C 
ATOM      5  N   UNL     1       4.496   4.358  16.582  0.00  0.00    +0.000 NA
ATOM      6  C   UNL     1       4.000   5.540  17.325  0.00  0.00    +0.000 C 
ATOM      7  C   UNL     1       4.312   5.516  18.837  0.00  0.00    +0.000 C 
BRANCH   5   8
ATOM      8  C   UNL     1       5.988   4.317  16.471  0.00  0.00    +0.000 C 
BRANCH   8   9
ATOM      9  C   UNL     1       6.419   4.259  15.000  0.00  0.00    +0.000 A 
ATOM     10  C   UNL     1       7.522   4.998  14.541  0.00  0.00    +0.000 A 
ATOM     11  C   UNL     1       7.832   5.042  13.183  0.00  0.00    +0.000 A 
ATOM     12  C   UNL     1       7.046   4.347  12.266  0.00  0.00    +0.000 A 
ATOM     13  C   UNL     1       5.960   3.595  12.706  0.00  0.00    +0.000 A 
ATOM     14  C   UNL     1       5.650   3.543  14.067  0.00  0.00    +0.000 A 
ENDBRANCH   8   9
BRANCH   8  15
ATOM     15  C   UNL     1       6.737   5.443  17.197  0.00  0.00    +0.000 A 
ATOM     16  C   UNL     1       7.457   5.142  18.370  0.00  0.00    +0.000 A 
ATOM     17  C   UNL     1       8.179   6.129  19.041  0.00  0.00    +0.000 A 
ATOM     18  C   UNL     1       8.188   7.436  18.559  0.00  0.00    +0.000 A 
ATOM     19  C   UNL     1       7.479   7.754  17.404  0.00  0.00    +0.000 A 
ATOM     20  C   UNL     1       6.772   6.763  16.720  0.00  0.00    +0.000 A 
ENDBRANCH   8  15
ENDBRANCH   5   8
ENDBRANCH   1   2
BRANCH   1  21
ATOM     21  C   UNL     1       1.766   4.935  20.906  0.00  0.00    +0.000 C 
BRANCH  21  22
ATOM     22  C   UNL     1       2.225   6.383  21.030  0.00  0.00    +0.000 C 
BRANCH  22  23
ATOM     23  C   UNL     1       1.441   7.264  20.067  0.00  0.00    +0.000 C 
BRANCH  23  26
ATOM     24  C   UNL     1       0.070   8.792  21.411  0.00  0.00    +0.000 C 
ATOM     25  O   UNL     1      -0.788   7.954  21.653  0.00  0.00    +0.000 OA
ATOM     26  N   UNL     1       1.184   8.563  20.641  0.00  0.00    +0.000 N 
ATOM     27  H   UNL     1       1.888   9.279  20.534  0.00  0.00    +0.000 HD
BRANCH  24  29
ATOM     28  C   UNL     1      -1.074  10.594  22.601  0.00  0.00    +0.000 C 
ATOM     29  C   UNL     1       0.011  10.179  21.929  0.00  0.00    +0.000 C 
BRANCH  28  31
ATOM     30  C   UNL     1      -2.386  12.513  23.365  0.00  0.00    +0.000 C 
ATOM     31  C   UNL     1      -1.202  11.934  23.119  0.00  0.00    +0.000 C 
BRANCH  30  36
ATOM     32  C   UNL     1      -3.288  17.830  25.310  0.00  0.00    +0.000 C 
ATOM     33  C   UNL     1      -2.998  16.446  24.813  0.00  0.00    +0.000 A 
ATOM     34  C   UNL     1      -1.696  15.963  24.764  0.00  0.00    +0.000 A 
ATOM     35  C   UNL     1      -1.473  14.669  24.292  0.00  0.00    +0.000 A 
ATOM     36  C   UNL     1      -2.547  13.873  23.894  0.00  0.00    +0.000 A 
ATOM     37  C   UNL     1      -3.811  14.452  23.966  0.00  0.00    +0.000 A 
ATOM     38  N   UNL     1      -4.060  15.707  24.416  0.00  0.00    +0.000 NA
ENDBRANCH  30  36
ENDBRANCH  28  31
ENDBRANCH  24  29
ENDBRANCH  23  26
ENDBRANCH  22  23
ENDBRANCH  21  22
ENDBRANCH   1  21
TORSDOF 11
ENDMDL
MODEL 6
REMARK VINA RESULT:      -7.6      0.981      1.563
REMARK  Name = 
REMARK  12 active torsions:
REMARK  status: ('A' for Active; 'I' for Inactive)
REMARK    1  A    between atoms: C_1  and  C_2
REMARK    2  A    between atoms: C_5  and  C_6
REMARK    3  A    between atoms: C_7  and  C_8
REMARK    4  A    between atoms: C_9  and  C_10
REMARK    5  A    between atoms: N_12  and  C_13
REMARK    6  A    between atoms: C_13  and  C_14
REMARK    7  A    between atoms: C_14  and  C_15
REMARK    8  A    between atoms: C_15  and  C_16
REMARK    9  A    between atoms: C_16  and  N_17
REMARK   10  A    between atoms: N_20  and  C_21
REMARK   11  A    between atoms: C_21  and  C_22
REMARK   12  A    between atoms: C_21  and  C_28
REMARK                            x       y       z     vdW  Elec       q    Type
REMARK                         _______ _______ _______ _____ _____    ______ ____
ROOT
ATOM      1  C   UNL     1       2.455   4.164  19.990  0.00  0.00    +0.000 C 
ENDROOT
BRANCH   1   2
ATOM      2  N   UNL     1       3.920   4.160  19.819  0.00  0.00    +0.000 NA
ATOM      3  C   UNL     1       4.312   2.998  18.985  0.00  0.00    +0.000 C 
ATOM      4  C   UNL     1       3.951   3.142  17.482  0.00  0.00    +0.000 C 
ATOM      5  N   UNL     1       4.461   4.385  16.835  0.00  0.00    +0.000 NA
ATOM      6  C   UNL     1       4.036   5.522  17.685  0.00  0.00    +0.000 C 
ATOM      7  C   UNL     1       4.433   5.387  19.170  0.00  0.00    +0.000 C 
BRANCH   5   8
ATOM      8  C   UNL     1       5.943   4.322  16.635  0.00  0.00    +0.000 C 
BRANCH   8   9
ATOM      9  C   UNL     1       6.283   4.238  15.142  0.00  0.00    +0.000 A 
ATOM     10  C   UNL     1       7.410   4.896  14.619  0.00  0.00    +0.000 A 
ATOM     11  C   UNL     1       7.643   4.922  13.246  0.00  0.00    +0.000 A 
ATOM     12  C   UNL     1       6.757   4.290  12.376  0.00  0.00    +0.000 A 
ATOM     13  C   UNL     1       5.646   3.617  12.879  0.00  0.00    +0.000 A 
ATOM     14  C   UNL     1       5.411   3.584  14.255  0.00  0.00    +0.000 A 
ENDBRANCH   8   9
BRANCH   8  15
ATOM     15  C   UNL     1       6.748   5.448  17.299  0.00  0.00    +0.000 A 
ATOM     16  C   UNL     1       6.639   6.757  16.792  0.00  0.00    +0.000 A 
ATOM     17  C   UNL     1       7.328   7.816  17.387  0.00  0.00    +0.000 A 
ATOM     18  C   UNL     1       8.143   7.584  18.492  0.00  0.00    +0.000 A 
ATOM     19  C   UNL     1       8.266   6.295  19.005  0.00  0.00    +0.000 A 
ATOM     20  C   UNL     1       7.563   5.238  18.423  0.00  0.00    +0.000 A 
ENDBRANCH   8  15
ENDBRANCH   5   8
ENDBRANCH   1   2
BRANCH   1  21
ATOM     21  C   UNL     1       1.783   5.448  19.505  0.00  0.00    +0.000 C 
BRANCH  21  22
ATOM     22  C   UNL     1       1.440   6.353  20.684  0.00  0.00    +0.000 C 
BRANCH  22  23
ATOM     23  C   UNL     1       1.803   7.796  20.357  0.00  0.00    +0.000 C 
BRANCH  23  26
ATOM     24  C   UNL     1       1.036   9.353  22.091  0.00  0.00    +0.000 C 
ATOM     25  O   UNL     1       2.023   9.194  22.797  0.00  0.00    +0.000 OA
ATOM     26  N   UNL     1       0.827   8.712  20.895  0.00  0.00    +0.000 N 
ATOM     27  H   UNL     1       0.021   8.938  20.328  0.00  0.00    +0.000 HD
BRANCH  24  29
ATOM     28  C   UNL     1      -0.274  11.381  21.721  0.00  0.00    +0.000 C 
ATOM     29  C   UNL     1      -0.070  10.272  22.447  0.00  0.00    +0.000 C 
BRANCH  28  31
ATOM     30  C   UNL     1      -1.442  12.934  23.209  0.00  0.00    +0.000 C 
ATOM     31  C   UNL     1      -1.323  12.325  22.020  0.00  0.00    +0.000 C 
BRANCH  30  36
ATOM     32  C   UNL     1      -5.358  16.865  24.652  0.00  0.00    +0.000 C 
ATOM     33  C   UNL     1      -4.375  15.803  24.261  0.00  0.00    +0.000 A 
ATOM     34  C   UNL     1      -4.807  14.551  23.841  0.00  0.00    +0.000 A 
ATOM     35  C   UNL     1      -3.857  13.592  23.487  0.00  0.00    +0.000 A 
ATOM     36  C   UNL     1      -2.497  13.899  23.542  0.00  0.00    +0.000 A 
ATOM     37  C   UNL     1      -2.165  15.175  23.990  0.00  0.00    +0.000 A 
ATOM     38  N   UNL     1      -3.064  16.126  24.344  0.00  0.00    +0.000 NA
ENDBRANCH  30  36
ENDBRANCH  28  31
ENDBRANCH  24  29
ENDBRANCH  23  26
ENDBRANCH  22  23
ENDBRANCH  21  22
ENDBRANCH   1  21
TORSDOF 11
ENDMDL
MODEL 7
REMARK VINA RESULT:      -7.6      4.686     11.113
REMARK  Name = 
REMARK  12 active torsions:
REMARK  status: ('A' for Active; 'I' for Inactive)
REMARK    1  A    between atoms: C_1  and  C_2
REMARK    2  A    between atoms: C_5  and  C_6
REMARK    3  A    between atoms: C_7  and  C_8
REMARK    4  A    between atoms: C_9  and  C_10
REMARK    5  A    between atoms: N_12  and  C_13
REMARK    6  A    between atoms: C_13  and  C_14
REMARK    7  A    between atoms: C_14  and  C_15
REMARK    8  A    between atoms: C_15  and  C_16
REMARK    9  A    between atoms: C_16  and  N_17
REMARK   10  A    between atoms: N_20  and  C_21
REMARK   11  A    between atoms: C_21  and  C_22
REMARK   12  A    between atoms: C_21  and  C_28
REMARK                            x       y       z     vdW  Elec       q    Type
REMARK                         _______ _______ _______ _____ _____    ______ ____
ROOT
ATOM      1  C   UNL     1       2.155   8.298  18.352  0.00  0.00    +0.000 C 
ENDROOT
BRANCH   1   2
ATOM      2  N   UNL     1       1.545   9.407  17.595  0.00  0.00    +0.000 NA
ATOM      3  C   UNL     1       0.078   9.396  17.808  0.00  0.00    +0.000 C 
ATOM      4  C   UNL     1      -0.365   9.870  19.219  0.00  0.00    +0.000 C 
ATOM      5  N   UNL     1       0.164  11.204  19.622  0.00  0.00    +0.000 NA
ATOM      6  C   UNL     1       1.631  11.172  19.413  0.00  0.00    +0.000 C 
ATOM      7  C   UNL     1       2.059  10.736  17.995  0.00  0.00    +0.000 C 
BRANCH   5   8
ATOM      8  C   UNL     1      -0.514  12.305  18.868  0.00  0.00    +0.000 C 
BRANCH   8   9
ATOM      9  C   UNL     1      -2.036  12.116  18.888  0.00  0.00    +0.000 A 
ATOM     10  C   UNL     1      -2.717  11.614  17.765  0.00  0.00    +0.000 A 
ATOM     11  C   UNL     1      -4.109  11.564  17.743  0.00  0.00    +0.000 A 
ATOM     12  C   UNL     1      -4.840  12.012  18.842  0.00  0.00    +0.000 A 
ATOM     13  C   UNL     1      -4.180  12.495  19.970  0.00  0.00    +0.000 A 
ATOM     14  C   UNL     1      -2.785  12.541  19.998  0.00  0.00    +0.000 A 
ENDBRANCH   8   9
BRANCH   8  15
ATOM     15  C   UNL     1      -0.151  13.730  19.310  0.00  0.00    +0.000 A 
ATOM     16  C   UNL     1       0.393  13.931  20.593  0.00  0.00    +0.000 A 
ATOM     17  C   UNL     1       0.768  15.205  21.022  0.00  0.00    +0.000 A 
ATOM     18  C   UNL     1       0.598  16.302  20.180  0.00  0.00    +0.000 A 
ATOM     19  C   UNL     1       0.057  16.123  18.909  0.00  0.00    +0.000 A 
ATOM     20  C   UNL     1      -0.300  14.846  18.472  0.00  0.00    +0.000 A 
ENDBRANCH   8  15
ENDBRANCH   5   8
ENDBRANCH   1   2
BRANCH   1  21
ATOM     21  C   UNL     1       3.543   7.900  17.849  0.00  0.00    +0.000 C 
BRANCH  21  22
ATOM     22  C   UNL     1       3.620   6.394  17.618  0.00  0.00    +0.000 C 
BRANCH  22  23
ATOM     23  C   UNL     1       5.032   6.000  17.209  0.00  0.00    +0.000 C 
BRANCH  23  26
ATOM     24  C   UNL     1       7.055   7.289  17.728  0.00  0.00    +0.000 C 
ATOM     25  O   UNL     1       7.484   6.466  18.525  0.00  0.00    +0.000 OA
ATOM     26  N   UNL     1       5.870   7.164  17.046  0.00  0.00    +0.000 N 
ATOM     27  H   UNL     1       5.605   7.848  16.350  0.00  0.00    +0.000 HD
BRANCH  24  29
ATOM     28  C   UNL     1       8.535   9.139  18.324  0.00  0.00    +0.000 C 
ATOM     29  C   UNL     1       7.776   8.539  17.395  0.00  0.00    +0.000 C 
BRANCH  28  31
ATOM     30  C   UNL     1       8.690  11.577  18.184  0.00  0.00    +0.000 C 
ATOM     31  C   UNL     1       9.251  10.365  18.071  0.00  0.00    +0.000 C 
BRANCH  30  36
ATOM     32  C   UNL     1      11.695  16.358  17.193  0.00  0.00    +0.000 C 
ATOM     33  C   UNL     1      10.867  15.140  17.468  0.00  0.00    +0.000 A 
ATOM     34  C   UNL     1       9.588  15.251  18.000  0.00  0.00    +0.000 A 
ATOM     35  C   UNL     1       8.853  14.090  18.241  0.00  0.00    +0.000 A 
ATOM     36  C   UNL     1       9.394  12.841  17.935  0.00  0.00    +0.000 A 
ATOM     37  C   UNL     1      10.688  12.833  17.421  0.00  0.00    +0.000 A 
ATOM     38  N   UNL     1      11.429  13.943  17.179  0.00  0.00    +0.000 NA
ENDBRANCH  30  36
ENDBRANCH  28  31
ENDBRANCH  24  29
ENDBRANCH  23  26
ENDBRANCH  22  23
ENDBRANCH  21  22
ENDBRANCH   1  21
TORSDOF 11
ENDMDL
MODEL 8
REMARK VINA RESULT:      -7.5      1.017      1.351
REMARK  Name = 
REMARK  12 active torsions:
REMARK  status: ('A' for Active; 'I' for Inactive)
REMARK    1  A    between atoms: C_1  and  C_2
REMARK    2  A    between atoms: C_5  and  C_6
REMARK    3  A    between atoms: C_7  and  C_8
REMARK    4  A    between atoms: C_9  and  C_10
REMARK    5  A    between atoms: N_12  and  C_13
REMARK    6  A    between atoms: C_13  and  C_14
REMARK    7  A    between atoms: C_14  and  C_15
REMARK    8  A    between atoms: C_15  and  C_16
REMARK    9  A    between atoms: C_16  and  N_17
REMARK   10  A    between atoms: N_20  and  C_21
REMARK   11  A    between atoms: C_21  and  C_22
REMARK   12  A    between atoms: C_21  and  C_28
REMARK                            x       y       z     vdW  Elec       q    Type
REMARK                         _______ _______ _______ _____ _____    ______ ____
ROOT
ATOM      1  C   UNL     1       2.395   4.083  19.838  0.00  0.00    +0.000 C 
ENDROOT
BRANCH   1   2
ATOM      2  N   UNL     1       3.858   4.054  19.649  0.00  0.00    +0.000 NA
ATOM      3  C   UNL     1       4.209   2.952  18.721  0.00  0.00    +0.000 C 
ATOM      4  C   UNL     1       3.837   3.225  17.238  0.00  0.00    +0.000 C 
ATOM      5  N   UNL     1       4.373   4.502  16.686  0.00  0.00    +0.000 NA
ATOM      6  C   UNL     1       3.989   5.579  17.628  0.00  0.00    +0.000 C 
ATOM      7  C   UNL     1       4.398   5.315  19.093  0.00  0.00    +0.000 C 
BRANCH   5   8
ATOM      8  C   UNL     1       5.851   4.415  16.462  0.00  0.00    +0.000 C 
BRANCH   8   9
ATOM      9  C   UNL     1       6.171   4.412  14.962  0.00  0.00    +0.000 A 
ATOM     10  C   UNL     1       5.363   3.709  14.052  0.00  0.00    +0.000 A 
ATOM     11  C   UNL     1       5.729   3.605  12.712  0.00  0.00    +0.000 A 
ATOM     12  C   UNL     1       6.904   4.203  12.261  0.00  0.00    +0.000 A 
ATOM     13  C   UNL     1       7.707   4.919  13.146  0.00  0.00    +0.000 A 
ATOM     14  C   UNL     1       7.341   5.031  14.489  0.00  0.00    +0.000 A 
ENDBRANCH   8   9
BRANCH   8  15
ATOM     15  C   UNL     1       6.692   5.480  17.181  0.00  0.00    +0.000 A 
ATOM     16  C   UNL     1       6.665   6.806  16.708  0.00  0.00    +0.000 A 
ATOM     17  C   UNL     1       7.388   7.812  17.353  0.00  0.00    +0.000 A 
ATOM     18  C   UNL     1       8.155   7.509  18.475  0.00  0.00    +0.000 A 
ATOM     19  C   UNL     1       8.197   6.202  18.955  0.00  0.00    +0.000 A 
ATOM     20  C   UNL     1       7.459   5.199  18.323  0.00  0.00    +0.000 A 
ENDBRANCH   8  15
ENDBRANCH   5   8
ENDBRANCH   1   2
BRANCH   1  21
ATOM     21  C   UNL     1       1.955   4.799  21.115  0.00  0.00    +0.000 C 
BRANCH  21  22
ATOM     22  C   UNL     1       1.060   5.988  20.783  0.00  0.00    +0.000 C 
BRANCH  22  23
ATOM     23  C   UNL     1       1.912   7.197  20.419  0.00  0.00    +0.000 C 
BRANCH  23  26
ATOM     24  C   UNL     1       0.205   8.516  21.587  0.00  0.00    +0.000 C 
ATOM     25  O   UNL     1      -0.693   7.714  21.369  0.00  0.00    +0.000 OA
ATOM     26  N   UNL     1       1.501   8.365  21.158  0.00  0.00    +0.000 N 
ATOM     27  H   UNL     1       2.210   9.032  21.429  0.00  0.00    +0.000 HD
BRANCH  24  29
ATOM     28  C   UNL     1      -0.489  10.854  21.736  0.00  0.00    +0.000 C 
ATOM     29  C   UNL     1       0.000   9.767  22.353  0.00  0.00    +0.000 C 
BRANCH  28  31
ATOM     30  C   UNL     1      -1.909  12.531  22.813  0.00  0.00    +0.000 C 
ATOM     31  C   UNL     1      -0.700  12.107  22.419  0.00  0.00    +0.000 C 
BRANCH  30  36
ATOM     32  C   UNL     1      -2.577  17.489  25.613  0.00  0.00    +0.000 C 
ATOM     33  C   UNL     1      -2.457  16.188  24.879  0.00  0.00    +0.000 A 
ATOM     34  C   UNL     1      -3.585  15.435  24.573  0.00  0.00    +0.000 A 
ATOM     35  C   UNL     1      -3.426  14.228  23.890  0.00  0.00    +0.000 A 
ATOM     36  C   UNL     1      -2.154  13.799  23.510  0.00  0.00    +0.000 A 
ATOM     37  C   UNL     1      -1.087  14.615  23.877  0.00  0.00    +0.000 A 
ATOM     38  N   UNL     1      -1.208  15.790  24.543  0.00  0.00    +0.000 NA
ENDBRANCH  30  36
ENDBRANCH  28  31
ENDBRANCH  24  29
ENDBRANCH  23  26
ENDBRANCH  22  23
ENDBRANCH  21  22
ENDBRANCH   1  21
TORSDOF 11
ENDMDL
MODEL 9
REMARK VINA RESULT:      -7.3      4.679      7.773
REMARK  Name = 
REMARK  12 active torsions:
REMARK  status: ('A' for Active; 'I' for Inactive)
REMARK    1  A    between atoms: C_1  and  C_2
REMARK    2  A    between atoms: C_5  and  C_6
REMARK    3  A    between atoms: C_7  and  C_8
REMARK    4  A    between atoms: C_9  and  C_10
REMARK    5  A    between atoms: N_12  and  C_13
REMARK    6  A    between atoms: C_13  and  C_14
REMARK    7  A    between atoms: C_14  and  C_15
REMARK    8  A    between atoms: C_15  and  C_16
REMARK    9  A    between atoms: C_16  and  N_17
REMARK   10  A    between atoms: N_20  and  C_21
REMARK   11  A    between atoms: C_21  and  C_22
REMARK   12  A    between atoms: C_21  and  C_28
REMARK                            x       y       z     vdW  Elec       q    Type
REMARK                         _______ _______ _______ _____ _____    ______ ____
ROOT
ATOM      1  C   UNL     1       1.660   8.896  20.116  0.00  0.00    +0.000 C 
ENDROOT
BRANCH   1   2
ATOM      2  N   UNL     1       1.347   7.770  19.217  0.00  0.00    +0.000 NA
ATOM      3  C   UNL     1       1.939   8.031  17.882  0.00  0.00    +0.000 C 
ATOM      4  C   UNL     1       3.485   7.884  17.831  0.00  0.00    +0.000 C 
ATOM      5  N   UNL     1       4.004   6.581  18.336  0.00  0.00    +0.000 NA
ATOM      6  C   UNL     1       3.406   6.363  19.674  0.00  0.00    +0.000 C 
ATOM      7  C   UNL     1       1.867   6.473  19.706  0.00  0.00    +0.000 C 
BRANCH   5   8
ATOM      8  C   UNL     1       3.710   5.473  17.373  0.00  0.00    +0.000 C 
BRANCH   8   9
ATOM      9  C   UNL     1       4.890   5.263  16.416  0.00  0.00    +0.000 A 
ATOM     10  C   UNL     1       4.769   4.426  15.293  0.00  0.00    +0.000 A 
ATOM     11  C   UNL     1       5.878   4.138  14.499  0.00  0.00    +0.000 A 
ATOM     12  C   UNL     1       7.121   4.683  14.813  0.00  0.00    +0.000 A 
ATOM     13  C   UNL     1       7.254   5.529  15.912  0.00  0.00    +0.000 A 
ATOM     14  C   UNL     1       6.145   5.825  16.707  0.00  0.00    +0.000 A 
ENDBRANCH   8   9
BRANCH   8  15
ATOM     15  C   UNL     1       3.300   4.137  18.008  0.00  0.00    +0.000 A 
ATOM     16  C   UNL     1       1.981   3.674  17.836  0.00  0.00    +0.000 A 
ATOM     17  C   UNL     1       1.576   2.448  18.367  0.00  0.00    +0.000 A 
ATOM     18  C   UNL     1       2.479   1.668  19.087  0.00  0.00    +0.000 A 
ATOM     19  C   UNL     1       3.786   2.111  19.270  0.00  0.00    +0.000 A 
ATOM     20  C   UNL     1       4.198   3.328  18.723  0.00  0.00    +0.000 A 
ENDBRANCH   8  15
ENDBRANCH   5   8
ENDBRANCH   1   2
BRANCH   1  21
ATOM     21  C   UNL     1       0.446   9.756  20.469  0.00  0.00    +0.000 C 
BRANCH  21  22
ATOM     22  C   UNL     1       0.019  10.599  19.271  0.00  0.00    +0.000 C 
BRANCH  22  23
ATOM     23  C   UNL     1       0.053  12.077  19.635  0.00  0.00    +0.000 C 
BRANCH  23  26
ATOM     24  C   UNL     1       1.720  13.847  19.310  0.00  0.00    +0.000 C 
ATOM     25  O   UNL     1       0.911  14.654  18.873  0.00  0.00    +0.000 OA
ATOM     26  N   UNL     1       1.409  12.567  19.696  0.00  0.00    +0.000 N 
ATOM     27  H   UNL     1       2.112  11.972  20.112  0.00  0.00    +0.000 HD
BRANCH  24  29
ATOM     28  C   UNL     1       3.871  14.606  18.435  0.00  0.00    +0.000 C 
ATOM     29  C   UNL     1       3.158  14.159  19.480  0.00  0.00    +0.000 C 
BRANCH  28  31
ATOM     30  C   UNL     1       6.212  14.302  17.789  0.00  0.00    +0.000 C 
ATOM     31  C   UNL     1       5.277  14.916  18.528  0.00  0.00    +0.000 C 
BRANCH  30  36
ATOM     32  C   UNL     1      11.764  15.723  17.956  0.00  0.00    +0.000 C 
ATOM     33  C   UNL     1      10.327  15.299  17.920  0.00  0.00    +0.000 A 
ATOM     34  C   UNL     1       9.976  13.957  18.014  0.00  0.00    +0.000 A 
ATOM     35  C   UNL     1       8.626  13.608  17.976  0.00  0.00    +0.000 A 
ATOM     36  C   UNL     1       7.649  14.597  17.861  0.00  0.00    +0.000 A 
ATOM     37  C   UNL     1       8.101  15.909  17.757  0.00  0.00    +0.000 A 
ATOM     38  N   UNL     1       9.405  16.280  17.788  0.00  0.00    +0.000 NA
ENDBRANCH  30  36
ENDBRANCH  28  31
ENDBRANCH  24  29
ENDBRANCH  23  26
ENDBRANCH  22  23
ENDBRANCH  21  22
ENDBRANCH   1  21
TORSDOF 11
ENDMDL
