MODEL 1
REMARK VINA RESULT:      -6.7      0.000      0.000
REMARK  Name = 
REMARK  4 active torsions:
REMARK  status: ('A' for Active; 'I' for Inactive)
REMARK    1  A    between atoms: N_1  and  C_2
REMARK    2  A    between atoms: C_2  and  C_3
REMARK    3  A    between atoms: C_5  and  O_6
REMARK    4  A    between atoms: O_6  and  C_7
REMARK                            x       y       z     vdW  Elec       q    Type
REMARK                         _______ _______ _______ _____ _____    ______ ____
ROOT
ATOM      1  C   UNL     1       6.757   4.973  15.180  0.00  0.00    +0.000 A 
ATOM      2  C   UNL     1       5.557   5.590  15.525  0.00  0.00    +0.000 A 
ATOM      3  C   UNL     1       5.270   5.787  16.875  0.00  0.00    +0.000 A 
ATOM      4  C   UNL     1       6.227   5.465  17.829  0.00  0.00    +0.000 A 
ATOM      5  C   UNL     1       7.413   4.901  17.397  0.00  0.00    +0.000 A 
ATOM      6  N   UNL     1       7.688   4.629  16.102  0.00  0.00    +0.000 NA
ENDROOT
BRANCH   1   7
ATOM      7  C   UNL     1       7.023   4.594  13.739  0.00  0.00    +0.000 C 
BRANCH   7   8
ATOM      8  N   UNL     1       6.300   3.392  13.311  0.00  0.00    +0.000 NA
ATOM      9  H   UNL     1       6.035   3.506  12.336  0.00  0.00    +0.000 HD
ATOM     10  H   UNL     1       5.427   3.354  13.836  0.00  0.00    +0.000 HD
ENDBRANCH   7   8
ENDBRANCH   1   7
BRANCH   3  11
ATOM     11  O   UNL     1       4.097   6.326  17.349  0.00  0.00    +0.000 OA
BRANCH  11  12
ATOM     12  C   UNL     1       3.317   5.609  18.230  0.00  0.00    +0.000 A 
ATOM     13  C   UNL     1       3.048   5.994  19.548  0.00  0.00    +0.000 A 
ATOM     14  C   UNL     1       2.279   5.174  20.376  0.00  0.00    +0.000 A 
ATOM     15  C   UNL     1       1.725   4.000  19.867  0.00  0.00    +0.000 A 
ATOM     16 CL   UNL     1       0.786   2.987  20.890  0.00  0.00    +0.000 Cl
ATOM     17  C   UNL     1       1.928   3.647  18.534  0.00  0.00    +0.000 A 
ATOM     18  C   UNL     1       2.722   4.452  17.716  0.00  0.00    +0.000 A 
ENDBRANCH  11  12
ENDBRANCH   3  11
TORSDOF 4
ENDMDL
MODEL 2
REMARK VINA RESULT:      -6.6      1.595      2.827
REMARK  Name = 
REMARK  4 active torsions:
REMARK  status: ('A' for Active; 'I' for Inactive)
REMARK    1  A    between atoms: N_1  and  C_2
REMARK    2  A    between atoms: C_2  and  C_3
REMARK    3  A    between atoms: C_5  and  O_6
REMARK    4  A    between atoms: O_6  and  C_7
REMARK                            x       y       z     vdW  Elec       q    Type
REMARK                         _______ _______ _______ _____ _____    ______ ____
ROOT
ATOM      1  C   UNL     1       6.989   5.220  17.324  0.00  0.00    +0.000 A 
ATOM      2  C   UNL     1       5.752   4.602  17.486  0.00  0.00    +0.000 A 
ATOM      3  C   UNL     1       4.993   4.316  16.353  0.00  0.00    +0.000 A 
ATOM      4  C   UNL     1       5.531   4.552  15.095  0.00  0.00    +0.000 A 
ATOM      5  C   UNL     1       6.788   5.123  15.021  0.00  0.00    +0.000 A 
ATOM      6  N   UNL     1       7.516   5.480  16.102  0.00  0.00    +0.000 NA
ENDROOT
BRANCH   1   7
ATOM      7  C   UNL     1       7.761   5.694  18.536  0.00  0.00    +0.000 C 
BRANCH   7   8
ATOM      8  N   UNL     1       7.072   5.429  19.803  0.00  0.00    +0.000 NA
ATOM      9  H   UNL     1       6.755   4.463  19.801  0.00  0.00    +0.000 HD
ATOM     10  H   UNL     1       6.226   5.999  19.820  0.00  0.00    +0.000 HD
ENDBRANCH   7   8
ENDBRANCH   1   7
BRANCH   3  11
ATOM     11  O   UNL     1       3.731   3.766  16.381  0.00  0.00    +0.000 OA
BRANCH  11  12
ATOM     12  C   UNL     1       3.084   3.589  17.584  0.00  0.00    +0.000 A 
ATOM     13  C   UNL     1       2.345   4.577  18.241  0.00  0.00    +0.000 A 
ATOM     14  C   UNL     1       1.761   4.309  19.482  0.00  0.00    +0.000 A 
ATOM     15  C   UNL     1       1.862   3.033  20.034  0.00  0.00    +0.000 A 
ATOM     16 CL   UNL     1       1.151   2.706  21.564  0.00  0.00    +0.000 Cl
ATOM     17  C   UNL     1       2.535   2.022  19.349  0.00  0.00    +0.000 A 
ATOM     18  C   UNL     1       3.145   2.300  18.124  0.00  0.00    +0.000 A 
ENDBRANCH  11  12
ENDBRANCH   3  11
TORSDOF 4
ENDMDL
MODEL 3
REMARK VINA RESULT:      -6.6      0.910      1.506
REMARK  Name = 
REMARK  4 active torsions:
REMARK  status: ('A' for Active; 'I' for Inactive)
REMARK    1  A    between atoms: N_1  and  C_2
REMARK    2  A    between atoms: C_2  and  C_3
REMARK    3  A    between atoms: C_5  and  O_6
REMARK    4  A    between atoms: O_6  and  C_7
REMARK                            x       y       z     vdW  Elec       q    Type
REMARK                         _______ _______ _______ _____ _____    ______ ____
ROOT
ATOM      1  C   UNL     1       6.784   4.996  15.244  0.00  0.00    +0.000 A 
ATOM      2  C   UNL     1       5.516   5.446  15.601  0.00  0.00    +0.000 A 
ATOM      3  C   UNL     1       5.161   5.449  16.948  0.00  0.00    +0.000 A 
ATOM      4  C   UNL     1       6.111   5.110  17.903  0.00  0.00    +0.000 A 
ATOM      5  C   UNL     1       7.364   4.723  17.466  0.00  0.00    +0.000 A 
ATOM      6  N   UNL     1       7.713   4.638  16.164  0.00  0.00    +0.000 NA
ENDROOT
BRANCH   1   7
ATOM      7  C   UNL     1       7.141   4.823  13.783  0.00  0.00    +0.000 C 
BRANCH   7   8
ATOM      8  N   UNL     1       8.233   5.698  13.345  0.00  0.00    +0.000 NA
ATOM      9  H   UNL     1       8.827   5.175  12.706  0.00  0.00    +0.000 HD
ATOM     10  H   UNL     1       8.812   5.902  14.159  0.00  0.00    +0.000 HD
ENDBRANCH   7   8
ENDBRANCH   1   7
BRANCH   3  11
ATOM     11  O   UNL     1       3.921   5.808  17.425  0.00  0.00    +0.000 OA
BRANCH  11  12
ATOM     12  C   UNL     1       3.280   5.008  18.346  0.00  0.00    +0.000 A 
ATOM     13  C   UNL     1       2.819   3.713  18.089  0.00  0.00    +0.000 A 
ATOM     14  C   UNL     1       2.141   3.000  19.081  0.00  0.00    +0.000 A 
ATOM     15  C   UNL     1       1.981   3.556  20.349  0.00  0.00    +0.000 A 
ATOM     16 CL   UNL     1       1.139   2.681  21.565  0.00  0.00    +0.000 Cl
ATOM     17  C   UNL     1       2.503   4.817  20.633  0.00  0.00    +0.000 A 
ATOM     18  C   UNL     1       3.153   5.542  19.633  0.00  0.00    +0.000 A 
ENDBRANCH  11  12
ENDBRANCH   3  11
TORSDOF 4
ENDMDL
MODEL 4
REMARK VINA RESULT:      -6.6      1.864      2.244
REMARK  Name = 
REMARK  4 active torsions:
REMARK  status: ('A' for Active; 'I' for Inactive)
REMARK    1  A    between atoms: N_1  and  C_2
REMARK    2  A    between atoms: C_2  and  C_3
REMARK    3  A    between atoms: C_5  and  O_6
REMARK    4  A    between atoms: O_6  and  C_7
REMARK                            x       y       z     vdW  Elec       q    Type
REMARK                         _______ _______ _______ _____ _____    ______ ____
ROOT
ATOM      1  C   UNL     1       6.943   5.281  15.961  0.00  0.00    +0.000 A 
ATOM      2  C   UNL     1       6.358   4.472  16.932  0.00  0.00    +0.000 A 
ATOM      3  C   UNL     1       6.463   4.848  18.269  0.00  0.00    +0.000 A 
ATOM      4  C   UNL     1       7.050   6.066  18.590  0.00  0.00    +0.000 A 
ATOM      5  C   UNL     1       7.563   6.833  17.561  0.00  0.00    +0.000 A 
ATOM      6  N   UNL     1       7.541   6.459  16.262  0.00  0.00    +0.000 NA
ENDROOT
BRANCH   1   7
ATOM      7  C   UNL     1       6.991   4.818  14.521  0.00  0.00    +0.000 C 
BRANCH   7   8
ATOM      8  N   UNL     1       7.958   5.559  13.705  0.00  0.00    +0.000 NA
ATOM      9  H   UNL     1       8.051   5.088  12.808  0.00  0.00    +0.000 HD
ATOM     10  H   UNL     1       8.869   5.480  14.157  0.00  0.00    +0.000 HD
ENDBRANCH   7   8
ENDBRANCH   1   7
BRANCH   3  11
ATOM     11  O   UNL     1       5.985   4.108  19.326  0.00  0.00    +0.000 OA
BRANCH  11  12
ATOM     12  C   UNL     1       4.666   3.710  19.347  0.00  0.00    +0.000 A 
ATOM     13  C   UNL     1       4.235   2.383  19.261  0.00  0.00    +0.000 A 
ATOM     14  C   UNL     1       2.870   2.088  19.248  0.00  0.00    +0.000 A 
ATOM     15  C   UNL     1       1.937   3.114  19.385  0.00  0.00    +0.000 A 
ATOM     16 CL   UNL     1       0.258   2.751  19.359  0.00  0.00    +0.000 Cl
ATOM     17  C   UNL     1       2.362   4.432  19.544  0.00  0.00    +0.000 A 
ATOM     18  C   UNL     1       3.725   4.730  19.527  0.00  0.00    +0.000 A 
ENDBRANCH  11  12
ENDBRANCH   3  11
TORSDOF 4
ENDMDL
MODEL 5
REMARK VINA RESULT:      -6.6      1.610      2.907
REMARK  Name = 
REMARK  4 active torsions:
REMARK  status: ('A' for Active; 'I' for Inactive)
REMARK    1  A    between atoms: N_1  and  C_2
REMARK    2  A    between atoms: C_2  and  C_3
REMARK    3  A    between atoms: C_5  and  O_6
REMARK    4  A    between atoms: O_6  and  C_7
REMARK                            x       y       z     vdW  Elec       q    Type
REMARK                         _______ _______ _______ _____ _____    ______ ____
ROOT
ATOM      1  C   UNL     1       6.970   5.632  17.235  0.00  0.00    +0.000 A 
ATOM      2  C   UNL     1       5.739   5.023  17.466  0.00  0.00    +0.000 A 
ATOM      3  C   UNL     1       5.059   4.459  16.389  0.00  0.00    +0.000 A 
ATOM      4  C   UNL     1       5.670   4.421  15.141  0.00  0.00    +0.000 A 
ATOM      5  C   UNL     1       6.916   5.005  15.009  0.00  0.00    +0.000 A 
ATOM      6  N   UNL     1       7.566   5.625  16.018  0.00  0.00    +0.000 NA
ENDROOT
BRANCH   1   7
ATOM      7  C   UNL     1       7.654   6.397  18.347  0.00  0.00    +0.000 C 
BRANCH   7   8
ATOM      8  N   UNL     1       7.895   5.587  19.546  0.00  0.00    +0.000 NA
ATOM      9  H   UNL     1       8.801   5.135  19.452  0.00  0.00    +0.000 HD
ATOM     10  H   UNL     1       7.207   4.834  19.554  0.00  0.00    +0.000 HD
ENDBRANCH   7   8
ENDBRANCH   1   7
BRANCH   3  11
ATOM     11  O   UNL     1       3.811   3.886  16.471  0.00  0.00    +0.000 OA
BRANCH  11  12
ATOM     12  C   UNL     1       3.277   3.574  17.702  0.00  0.00    +0.000 A 
ATOM     13  C   UNL     1       3.718   2.526  18.516  0.00  0.00    +0.000 A 
ATOM     14  C   UNL     1       3.079   2.265  19.731  0.00  0.00    +0.000 A 
ATOM     15  C   UNL     1       2.042   3.090  20.160  0.00  0.00    +0.000 A 
ATOM     16 CL   UNL     1       1.251   2.761  21.651  0.00  0.00    +0.000 Cl
ATOM     17  C   UNL     1       1.645   4.180  19.387  0.00  0.00    +0.000 A 
ATOM     18  C   UNL     1       2.263   4.422  18.159  0.00  0.00    +0.000 A 
ENDBRANCH  11  12
ENDBRANCH   3  11
TORSDOF 4
ENDMDL
MODEL 6
REMARK VINA RESULT:      -6.6      1.456      2.715
REMARK  Name = 
REMARK  4 active torsions:
REMARK  status: ('A' for Active; 'I' for Inactive)
REMARK    1  A    between atoms: N_1  and  C_2
REMARK    2  A    between atoms: C_2  and  C_3
REMARK    3  A    between atoms: C_5  and  O_6
REMARK    4  A    between atoms: O_6  and  C_7
REMARK                            x       y       z     vdW  Elec       q    Type
REMARK                         _______ _______ _______ _____ _____    ______ ____
ROOT
ATOM      1  C   UNL     1       6.996   5.959  17.845  0.00  0.00    +0.000 A 
ATOM      2  C   UNL     1       5.652   5.895  18.203  0.00  0.00    +0.000 A 
ATOM      3  C   UNL     1       4.697   5.752  17.199  0.00  0.00    +0.000 A 
ATOM      4  C   UNL     1       5.112   5.567  15.886  0.00  0.00    +0.000 A 
ATOM      5  C   UNL     1       6.469   5.594  15.623  0.00  0.00    +0.000 A 
ATOM      6  N   UNL     1       7.414   5.806  16.565  0.00  0.00    +0.000 NA
ENDROOT
BRANCH   1   7
ATOM      7  C   UNL     1       8.041   6.280  18.891  0.00  0.00    +0.000 C 
BRANCH   7   8
ATOM      8  N   UNL     1       7.866   5.528  20.138  0.00  0.00    +0.000 NA
ATOM      9  H   UNL     1       6.882   5.553  20.393  0.00  0.00    +0.000 HD
ATOM     10  H   UNL     1       8.358   6.032  20.875  0.00  0.00    +0.000 HD
ENDBRANCH   7   8
ENDBRANCH   1   7
BRANCH   3  11
ATOM     11  O   UNL     1       3.338   5.739  17.413  0.00  0.00    +0.000 OA
BRANCH  11  12
ATOM     12  C   UNL     1       2.817   5.052  18.488  0.00  0.00    +0.000 A 
ATOM     13  C   UNL     1       2.393   5.648  19.680  0.00  0.00    +0.000 A 
ATOM     14  C   UNL     1       1.918   4.857  20.729  0.00  0.00    +0.000 A 
ATOM     15  C   UNL     1       1.808   3.478  20.563  0.00  0.00    +0.000 A 
ATOM     16 CL   UNL     1       1.233   2.506  21.858  0.00  0.00    +0.000 Cl
ATOM     17  C   UNL     1       2.161   2.886  19.352  0.00  0.00    +0.000 A 
ATOM     18  C   UNL     1       2.664   3.673  18.314  0.00  0.00    +0.000 A 
ENDBRANCH  11  12
ENDBRANCH   3  11
TORSDOF 4
ENDMDL
MODEL 7
REMARK VINA RESULT:      -6.5      1.790      1.920
REMARK  Name = 
REMARK  4 active torsions:
REMARK  status: ('A' for Active; 'I' for Inactive)
REMARK    1  A    between atoms: N_1  and  C_2
REMARK    2  A    between atoms: C_2  and  C_3
REMARK    3  A    between atoms: C_5  and  O_6
REMARK    4  A    between atoms: O_6  and  C_7
REMARK                            x       y       z     vdW  Elec       q    Type
REMARK                         _______ _______ _______ _____ _____    ______ ____
ROOT
ATOM      1  C   UNL     1       6.935   5.288  15.916  0.00  0.00    +0.000 A 
ATOM      2  C   UNL     1       6.337   4.469  16.870  0.00  0.00    +0.000 A 
ATOM      3  C   UNL     1       6.462   4.808  18.216  0.00  0.00    +0.000 A 
ATOM      4  C   UNL     1       7.079   6.003  18.564  0.00  0.00    +0.000 A 
ATOM      5  C   UNL     1       7.602   6.784  17.550  0.00  0.00    +0.000 A 
ATOM      6  N   UNL     1       7.563   6.443  16.243  0.00  0.00    +0.000 NA
ENDROOT
BRANCH   1   7
ATOM      7  C   UNL     1       6.962   4.860  14.465  0.00  0.00    +0.000 C 
BRANCH   7   8
ATOM      8  N   UNL     1       7.977   5.562  13.672  0.00  0.00    +0.000 NA
ATOM      9  H   UNL     1       8.623   4.874  13.293  0.00  0.00    +0.000 HD
ATOM     10  H   UNL     1       8.526   6.137  14.311  0.00  0.00    +0.000 HD
ENDBRANCH   7   8
ENDBRANCH   1   7
BRANCH   3  11
ATOM     11  O   UNL     1       5.974   4.052  19.257  0.00  0.00    +0.000 OA
BRANCH  11  12
ATOM     12  C   UNL     1       4.615   3.872  19.400  0.00  0.00    +0.000 A 
ATOM     13  C   UNL     1       3.699   4.901  19.643  0.00  0.00    +0.000 A 
ATOM     14  C   UNL     1       2.344   4.608  19.816  0.00  0.00    +0.000 A 
ATOM     15  C   UNL     1       1.896   3.295  19.680  0.00  0.00    +0.000 A 
ATOM     16 CL   UNL     1       0.230   2.935  19.902  0.00  0.00    +0.000 Cl
ATOM     17  C   UNL     1       2.793   2.275  19.366  0.00  0.00    +0.000 A 
ATOM     18  C   UNL     1       4.151   2.564  19.224  0.00  0.00    +0.000 A 
ENDBRANCH  11  12
ENDBRANCH   3  11
TORSDOF 4
ENDMDL
MODEL 8
REMARK VINA RESULT:      -6.5      2.159      3.398
REMARK  Name = 
REMARK  4 active torsions:
REMARK  status: ('A' for Active; 'I' for Inactive)
REMARK    1  A    between atoms: N_1  and  C_2
REMARK    2  A    between atoms: C_2  and  C_3
REMARK    3  A    between atoms: C_5  and  O_6
REMARK    4  A    between atoms: O_6  and  C_7
REMARK                            x       y       z     vdW  Elec       q    Type
REMARK                         _______ _______ _______ _____ _____    ______ ____
ROOT
ATOM      1  C   UNL     1       7.093   5.244  18.064  0.00  0.00    +0.000 A 
ATOM      2  C   UNL     1       5.737   5.209  18.378  0.00  0.00    +0.000 A 
ATOM      3  C   UNL     1       4.835   4.781  17.407  0.00  0.00    +0.000 A 
ATOM      4  C   UNL     1       5.316   4.298  16.196  0.00  0.00    +0.000 A 
ATOM      5  C   UNL     1       6.682   4.322  15.983  0.00  0.00    +0.000 A 
ATOM      6  N   UNL     1       7.574   4.802  16.877  0.00  0.00    +0.000 NA
ENDROOT
BRANCH   1   7
ATOM      7  C   UNL     1       8.078   5.860  19.034  0.00  0.00    +0.000 C 
BRANCH   7   8
ATOM      8  N   UNL     1       7.942   5.347  20.402  0.00  0.00    +0.000 NA
ATOM      9  H   UNL     1       7.947   6.136  21.043  0.00  0.00    +0.000 HD
ATOM     10  H   UNL     1       8.783   4.810  20.615  0.00  0.00    +0.000 HD
ENDBRANCH   7   8
ENDBRANCH   1   7
BRANCH   3  11
ATOM     11  O   UNL     1       3.469   4.759  17.569  0.00  0.00    +0.000 OA
BRANCH  11  12
ATOM     12  C   UNL     1       2.876   5.558  18.522  0.00  0.00    +0.000 A 
ATOM     13  C   UNL     1       2.431   5.108  19.770  0.00  0.00    +0.000 A 
ATOM     14  C   UNL     1       1.802   5.991  20.651  0.00  0.00    +0.000 A 
ATOM     15  C   UNL     1       1.676   7.337  20.310  0.00  0.00    +0.000 A 
ATOM     16 CL   UNL     1       0.894   8.421  21.391  0.00  0.00    +0.000 Cl
ATOM     17  C   UNL     1       2.183   7.806  19.100  0.00  0.00    +0.000 A 
ATOM     18  C   UNL     1       2.784   6.917  18.207  0.00  0.00    +0.000 A 
ENDBRANCH  11  12
ENDBRANCH   3  11
TORSDOF 4
ENDMDL
MODEL 9
REMARK VINA RESULT:      -6.4      0.870      1.432
REMARK  Name = 
REMARK  4 active torsions:
REMARK  status: ('A' for Active; 'I' for Inactive)
REMARK    1  A    between atoms: N_1  and  C_2
REMARK    2  A    between atoms: C_2  and  C_3
REMARK    3  A    between atoms: C_5  and  O_6
REMARK    4  A    between atoms: O_6  and  C_7
REMARK                            x       y       z     vdW  Elec       q    Type
REMARK                         _______ _______ _______ _____ _____    ______ ____
ROOT
ATOM      1  C   UNL     1       6.545   5.389  15.368  0.00  0.00    +0.000 A 
ATOM      2  C   UNL     1       5.191   5.459  15.685  0.00  0.00    +0.000 A 
ATOM      3  C   UNL     1       4.817   6.009  16.909  0.00  0.00    +0.000 A 
ATOM      4  C   UNL     1       5.790   6.569  17.729  0.00  0.00    +0.000 A 
ATOM      5  C   UNL     1       7.107   6.501  17.316  0.00  0.00    +0.000 A 
ATOM      6  N   UNL     1       7.506   5.907  16.170  0.00  0.00    +0.000 NA
ENDROOT
BRANCH   1   7
ATOM      7  C   UNL     1       6.992   4.649  14.125  0.00  0.00    +0.000 C 
BRANCH   7   8
ATOM      8  N   UNL     1       6.185   3.458  13.837  0.00  0.00    +0.000 NA
ATOM      9  H   UNL     1       6.652   2.922  13.111  0.00  0.00    +0.000 HD
ATOM     10  H   UNL     1       5.305   3.773  13.429  0.00  0.00    +0.000 HD
ENDBRANCH   7   8
ENDBRANCH   1   7
BRANCH   3  11
ATOM     11  O   UNL     1       3.522   6.080  17.368  0.00  0.00    +0.000 OA
BRANCH  11  12
ATOM     12  C   UNL     1       3.089   5.209  18.344  0.00  0.00    +0.000 A 
ATOM     13  C   UNL     1       3.168   3.815  18.256  0.00  0.00    +0.000 A 
ATOM     14  C   UNL     1       2.660   3.018  19.284  0.00  0.00    +0.000 A 
ATOM     15  C   UNL     1       2.131   3.614  20.428  0.00  0.00    +0.000 A 
ATOM     16 CL   UNL     1       1.498   2.631  21.688  0.00  0.00    +0.000 Cl
ATOM     17  C   UNL     1       2.116   5.002  20.553  0.00  0.00    +0.000 A 
ATOM     18  C   UNL     1       2.596   5.799  19.512  0.00  0.00    +0.000 A 
ENDBRANCH  11  12
ENDBRANCH   3  11
TORSDOF 4
ENDMDL
