MODEL 1
REMARK VINA RESULT:      -8.3      0.000      0.000
REMARK  Name = 
REMARK  7 active torsions:
REMARK  status: ('A' for Active; 'I' for Inactive)
REMARK    1  A    between atoms: C_1  and  C_2
REMARK    2  A    between atoms: C_2  and  O_3
REMARK    3  A    between atoms: O_3  and  C_4
REMARK    4  A    between atoms: C_6  and  C_7
REMARK    5  A    between atoms: N_12  and  C_13
REMARK    6  A    between atoms: C_22  and  N_23
REMARK    7  A    between atoms: C_26  and  O_27
REMARK                            x       y       z     vdW  Elec       q    Type
REMARK                         _______ _______ _______ _____ _____    ______ ____
ROOT
ATOM      1  C   UNL     1       2.756   7.527  18.119  0.00  0.00    +0.000 C 
ATOM      2  C   UNL     1       1.977   8.210  18.967  0.00  0.00    +0.000 C 
ATOM      3  C   UNL     1       1.605   7.889  20.359  0.00  0.00    +0.000 C 
ATOM      4  O   UNL     1       1.870   6.895  21.001  0.00  0.00    +0.000 OA
ATOM      5  N   UNL     1       0.834   8.957  20.767  0.00  0.00    +0.000 N 
ATOM      6  N   UNL     1       0.523   9.809  19.693  0.00  0.00    +0.000 N 
ATOM      7  C   UNL     1       1.245   9.435  18.550  0.00  0.00    +0.000 C 
ATOM      8  O   UNL     1       1.285   9.912  17.430  0.00  0.00    +0.000 OA
ATOM      9  H   UNL     1       0.240   8.871  21.579  0.00  0.00    +0.000 HD
ENDROOT
BRANCH   1  12
ATOM     10  C   UNL     1       3.155   3.817  18.783  0.00  0.00    +0.000 A 
ATOM     11  C   UNL     1       2.572   5.057  18.475  0.00  0.00    +0.000 A 
ATOM     12  C   UNL     1       3.341   6.218  18.406  0.00  0.00    +0.000 A 
ATOM     13  C   UNL     1       4.718   6.143  18.609  0.00  0.00    +0.000 A 
ATOM     14  C   UNL     1       5.321   4.905  18.883  0.00  0.00    +0.000 A 
ATOM     15  C   UNL     1       4.545   3.731  18.982  0.00  0.00    +0.000 A 
BRANCH  14  16
ATOM     16  N   UNL     1       6.774   4.881  19.058  0.00  0.00    +0.000 N 
ATOM     17  O   UNL     1       7.253   5.401  20.078  0.00  0.00    +0.000 OA
ATOM     18  O   UNL     1       7.450   4.337  18.170  0.00  0.00    +0.000 OA
ENDBRANCH  14  16
BRANCH  15  19
ATOM     19  O   UNL     1       5.095   2.503  19.247  0.00  0.00    +0.000 OA
ATOM     20  H   UNL     1       5.379   2.445  20.182  0.00  0.00    +0.000 HD
ENDBRANCH  15  19
BRANCH  10  21
ATOM     21  O   UNL     1       2.241   2.794  18.815  0.00  0.00    +0.000 OA
BRANCH  21  23
ATOM     22  C   UNL     1       1.559   2.844  21.103  0.00  0.00    +0.000 C 
ATOM     23  C   UNL     1       1.100   2.949  19.657  0.00  0.00    +0.000 C 
ENDBRANCH  21  23
ENDBRANCH  10  21
ENDBRANCH   1  12
BRANCH   6  24
ATOM     24  C   UNL     1      -0.450  10.835  19.793  0.00  0.00    +0.000 A 
ATOM     25  C   UNL     1      -1.542  10.894  18.916  0.00  0.00    +0.000 A 
ATOM     26  C   UNL     1      -2.516  11.889  19.040  0.00  0.00    +0.000 A 
ATOM     27  C   UNL     1      -2.410  12.851  20.037  0.00  0.00    +0.000 A 
ATOM     28  C   UNL     1      -1.330  12.818  20.913  0.00  0.00    +0.000 A 
ATOM     29  C   UNL     1      -0.360  11.817  20.794  0.00  0.00    +0.000 A 
ENDBRANCH   6  24
TORSDOF 6
ENDMDL
MODEL 2
REMARK VINA RESULT:      -8.3      1.144      1.284
REMARK  Name = 
REMARK  7 active torsions:
REMARK  status: ('A' for Active; 'I' for Inactive)
REMARK    1  A    between atoms: C_1  and  C_2
REMARK    2  A    between atoms: C_2  and  O_3
REMARK    3  A    between atoms: O_3  and  C_4
REMARK    4  A    between atoms: C_6  and  C_7
REMARK    5  A    between atoms: N_12  and  C_13
REMARK    6  A    between atoms: C_22  and  N_23
REMARK    7  A    between atoms: C_26  and  O_27
REMARK                            x       y       z     vdW  Elec       q    Type
REMARK                         _______ _______ _______ _____ _____    ______ ____
ROOT
ATOM      1  C   UNL     1       2.523   7.620  18.183  0.00  0.00    +0.000 C 
ATOM      2  C   UNL     1       1.882   8.069  19.271  0.00  0.00    +0.000 C 
ATOM      3  C   UNL     1       1.611   7.378  20.546  0.00  0.00    +0.000 C 
ATOM      4  O   UNL     1       1.848   6.228  20.848  0.00  0.00    +0.000 OA
ATOM      5  N   UNL     1       0.970   8.322  21.322  0.00  0.00    +0.000 N 
ATOM      6  N   UNL     1       0.636   9.464  20.575  0.00  0.00    +0.000 N 
ATOM      7  C   UNL     1       1.220   9.399  19.301  0.00  0.00    +0.000 C 
ATOM      8  O   UNL     1       1.198  10.178  18.365  0.00  0.00    +0.000 OA
ATOM      9  H   UNL     1       0.446   8.036  22.137  0.00  0.00    +0.000 HD
ENDROOT
BRANCH   1  12
ATOM     10  C   UNL     1       2.670   3.858  17.753  0.00  0.00    +0.000 A 
ATOM     11  C   UNL     1       2.165   5.164  17.876  0.00  0.00    +0.000 A 
ATOM     12  C   UNL     1       3.020   6.255  18.022  0.00  0.00    +0.000 A 
ATOM     13  C   UNL     1       4.399   6.055  18.010  0.00  0.00    +0.000 A 
ATOM     14  C   UNL     1       4.919   4.761  17.854  0.00  0.00    +0.000 A 
ATOM     15  C   UNL     1       4.060   3.648  17.733  0.00  0.00    +0.000 A 
BRANCH  14  16
ATOM     16  N   UNL     1       6.375   4.613  17.818  0.00  0.00    +0.000 N 
ATOM     17  O   UNL     1       7.009   4.770  18.874  0.00  0.00    +0.000 OA
ATOM     18  O   UNL     1       6.898   4.336  16.727  0.00  0.00    +0.000 OA
ENDBRANCH  14  16
BRANCH  15  19
ATOM     19  O   UNL     1       4.528   2.368  17.577  0.00  0.00    +0.000 OA
ATOM     20  H   UNL     1       3.827   1.784  17.222  0.00  0.00    +0.000 HD
ENDBRANCH  15  19
BRANCH  10  21
ATOM     21  O   UNL     1       1.680   2.916  17.628  0.00  0.00    +0.000 OA
BRANCH  21  23
ATOM     22  C   UNL     1       1.589   2.321  19.939  0.00  0.00    +0.000 C 
ATOM     23  C   UNL     1       0.781   2.748  18.723  0.00  0.00    +0.000 C 
ENDBRANCH  21  23
ENDBRANCH  10  21
ENDBRANCH   1  12
BRANCH   6  24
ATOM     24  C   UNL     1      -0.235  10.467  21.067  0.00  0.00    +0.000 A 
ATOM     25  C   UNL     1      -0.973  11.284  20.199  0.00  0.00    +0.000 A 
ATOM     26  C   UNL     1      -1.856  12.251  20.690  0.00  0.00    +0.000 A 
ATOM     27  C   UNL     1      -2.009  12.425  22.061  0.00  0.00    +0.000 A 
ATOM     28  C   UNL     1      -1.281  11.633  22.941  0.00  0.00    +0.000 A 
ATOM     29  C   UNL     1      -0.404  10.660  22.449  0.00  0.00    +0.000 A 
ENDBRANCH   6  24
TORSDOF 6
ENDMDL
MODEL 3
REMARK VINA RESULT:      -8.2      1.138      1.615
REMARK  Name = 
REMARK  7 active torsions:
REMARK  status: ('A' for Active; 'I' for Inactive)
REMARK    1  A    between atoms: C_1  and  C_2
REMARK    2  A    between atoms: C_2  and  O_3
REMARK    3  A    between atoms: O_3  and  C_4
REMARK    4  A    between atoms: C_6  and  C_7
REMARK    5  A    between atoms: N_12  and  C_13
REMARK    6  A    between atoms: C_22  and  N_23
REMARK    7  A    between atoms: C_26  and  O_27
REMARK                            x       y       z     vdW  Elec       q    Type
REMARK                         _______ _______ _______ _____ _____    ______ ____
ROOT
ATOM      1  C   UNL     1       2.519   7.635  18.183  0.00  0.00    +0.000 C 
ATOM      2  C   UNL     1       1.880   8.082  19.272  0.00  0.00    +0.000 C 
ATOM      3  C   UNL     1       1.614   7.390  20.548  0.00  0.00    +0.000 C 
ATOM      4  O   UNL     1       1.856   6.241  20.850  0.00  0.00    +0.000 OA
ATOM      5  N   UNL     1       0.973   8.332  21.326  0.00  0.00    +0.000 N 
ATOM      6  N   UNL     1       0.633   9.472  20.579  0.00  0.00    +0.000 N 
ATOM      7  C   UNL     1       1.213   9.410  19.304  0.00  0.00    +0.000 C 
ATOM      8  O   UNL     1       1.187  10.188  18.367  0.00  0.00    +0.000 OA
ATOM      9  H   UNL     1       0.452   8.044  22.142  0.00  0.00    +0.000 HD
ENDROOT
BRANCH   1  12
ATOM     10  C   UNL     1       2.678   3.875  17.740  0.00  0.00    +0.000 A 
ATOM     11  C   UNL     1       2.169   5.179  17.863  0.00  0.00    +0.000 A 
ATOM     12  C   UNL     1       3.021   6.272  18.020  0.00  0.00    +0.000 A 
ATOM     13  C   UNL     1       4.400   6.074  18.019  0.00  0.00    +0.000 A 
ATOM     14  C   UNL     1       4.924   4.781  17.862  0.00  0.00    +0.000 A 
ATOM     15  C   UNL     1       4.068   3.667  17.730  0.00  0.00    +0.000 A 
BRANCH  14  16
ATOM     16  N   UNL     1       6.380   4.637  17.837  0.00  0.00    +0.000 N 
ATOM     17  O   UNL     1       6.924   4.335  16.764  0.00  0.00    +0.000 OA
ATOM     18  O   UNL     1       6.995   4.828  18.899  0.00  0.00    +0.000 OA
ENDBRANCH  14  16
BRANCH  15  19
ATOM     19  O   UNL     1       4.540   2.389  17.572  0.00  0.00    +0.000 OA
ATOM     20  H   UNL     1       3.799   1.756  17.478  0.00  0.00    +0.000 HD
ENDBRANCH  15  19
BRANCH  10  21
ATOM     21  O   UNL     1       1.691   2.931  17.603  0.00  0.00    +0.000 OA
BRANCH  21  23
ATOM     22  C   UNL     1       1.639   2.284  19.901  0.00  0.00    +0.000 C 
ATOM     23  C   UNL     1       0.809   2.727  18.706  0.00  0.00    +0.000 C 
ENDBRANCH  21  23
ENDBRANCH  10  21
ENDBRANCH   1  12
BRANCH   6  24
ATOM     24  C   UNL     1      -0.240  10.473  21.074  0.00  0.00    +0.000 A 
ATOM     25  C   UNL     1      -0.434  10.659  22.449  0.00  0.00    +0.000 A 
ATOM     26  C   UNL     1      -1.272  11.670  22.932  0.00  0.00    +0.000 A 
ATOM     27  C   UNL     1      -1.939  12.507  22.046  0.00  0.00    +0.000 A 
ATOM     28  C   UNL     1      -1.769  12.336  20.677  0.00  0.00    +0.000 A 
ATOM     29  C   UNL     1      -0.924  11.330  20.194  0.00  0.00    +0.000 A 
ENDBRANCH   6  24
TORSDOF 6
ENDMDL
MODEL 4
REMARK VINA RESULT:      -8.2      1.341      3.040
REMARK  Name = 
REMARK  7 active torsions:
REMARK  status: ('A' for Active; 'I' for Inactive)
REMARK    1  A    between atoms: C_1  and  C_2
REMARK    2  A    between atoms: C_2  and  O_3
REMARK    3  A    between atoms: O_3  and  C_4
REMARK    4  A    between atoms: C_6  and  C_7
REMARK    5  A    between atoms: N_12  and  C_13
REMARK    6  A    between atoms: C_22  and  N_23
REMARK    7  A    between atoms: C_26  and  O_27
REMARK                            x       y       z     vdW  Elec       q    Type
REMARK                         _______ _______ _______ _____ _____    ______ ____
ROOT
ATOM      1  C   UNL     1       2.819   7.533  18.157  0.00  0.00    +0.000 C 
ATOM      2  C   UNL     1       2.001   8.202  18.980  0.00  0.00    +0.000 C 
ATOM      3  C   UNL     1       1.574   7.865  20.352  0.00  0.00    +0.000 C 
ATOM      4  O   UNL     1       1.820   6.866  20.995  0.00  0.00    +0.000 OA
ATOM      5  N   UNL     1       0.780   8.924  20.738  0.00  0.00    +0.000 N 
ATOM      6  N   UNL     1       0.507   9.784  19.662  0.00  0.00    +0.000 N 
ATOM      7  C   UNL     1       1.278   9.426  18.546  0.00  0.00    +0.000 C 
ATOM      8  O   UNL     1       1.360   9.914  17.433  0.00  0.00    +0.000 OA
ATOM      9  H   UNL     1       0.153   8.825  21.524  0.00  0.00    +0.000 HD
ENDROOT
BRANCH   1  12
ATOM     10  C   UNL     1       5.237   4.812  19.211  0.00  0.00    +0.000 A 
ATOM     11  C   UNL     1       4.691   6.082  18.963  0.00  0.00    +0.000 A 
ATOM     12  C   UNL     1       3.400   6.225  18.455  0.00  0.00    +0.000 A 
ATOM     13  C   UNL     1       2.624   5.092  18.224  0.00  0.00    +0.000 A 
ATOM     14  C   UNL     1       3.142   3.816  18.500  0.00  0.00    +0.000 A 
ATOM     15  C   UNL     1       4.457   3.663  18.988  0.00  0.00    +0.000 A 
BRANCH  14  16
ATOM     16  N   UNL     1       2.271   2.664  18.267  0.00  0.00    +0.000 N 
ATOM     17  O   UNL     1       1.131   2.678  18.758  0.00  0.00    +0.000 OA
ATOM     18  O   UNL     1       2.723   1.731  17.584  0.00  0.00    +0.000 OA
ENDBRANCH  14  16
BRANCH  15  19
ATOM     19  O   UNL     1       5.000   2.435  19.272  0.00  0.00    +0.000 OA
ATOM     20  H   UNL     1       5.275   1.980  18.449  0.00  0.00    +0.000 HD
ENDBRANCH  15  19
BRANCH  10  21
ATOM     21  O   UNL     1       6.518   4.870  19.699  0.00  0.00    +0.000 OA
BRANCH  21  23
ATOM     22  C   UNL     1       7.703   4.625  17.640  0.00  0.00    +0.000 C 
ATOM     23  C   UNL     1       7.513   5.484  18.881  0.00  0.00    +0.000 C 
ENDBRANCH  21  23
ENDBRANCH  10  21
ENDBRANCH   1  12
BRANCH   6  24
ATOM     24  C   UNL     1      -0.476  10.803  19.731  0.00  0.00    +0.000 A 
ATOM     25  C   UNL     1      -1.552  10.842  18.834  0.00  0.00    +0.000 A 
ATOM     26  C   UNL     1      -2.538  11.830  18.928  0.00  0.00    +0.000 A 
ATOM     27  C   UNL     1      -2.458  12.805  19.916  0.00  0.00    +0.000 A 
ATOM     28  C   UNL     1      -1.395  12.791  20.811  0.00  0.00    +0.000 A 
ATOM     29  C   UNL     1      -0.414  11.797  20.722  0.00  0.00    +0.000 A 
ENDBRANCH   6  24
TORSDOF 6
ENDMDL
MODEL 5
REMARK VINA RESULT:      -7.9      1.707      2.029
REMARK  Name = 
REMARK  7 active torsions:
REMARK  status: ('A' for Active; 'I' for Inactive)
REMARK    1  A    between atoms: C_1  and  C_2
REMARK    2  A    between atoms: C_2  and  O_3
REMARK    3  A    between atoms: O_3  and  C_4
REMARK    4  A    between atoms: C_6  and  C_7
REMARK    5  A    between atoms: N_12  and  C_13
REMARK    6  A    between atoms: C_22  and  N_23
REMARK    7  A    between atoms: C_26  and  O_27
REMARK                            x       y       z     vdW  Elec       q    Type
REMARK                         _______ _______ _______ _____ _____    ______ ____
ROOT
ATOM      1  C   UNL     1       2.856   7.890  17.820  0.00  0.00    +0.000 C 
ATOM      2  C   UNL     1       2.256   8.151  18.989  0.00  0.00    +0.000 C 
ATOM      3  C   UNL     1       2.174   7.316  20.203  0.00  0.00    +0.000 C 
ATOM      4  O   UNL     1       2.571   6.182  20.368  0.00  0.00    +0.000 OA
ATOM      5  N   UNL     1       1.490   8.094  21.113  0.00  0.00    +0.000 N 
ATOM      6  N   UNL     1       0.962   9.249  20.512  0.00  0.00    +0.000 N 
ATOM      7  C   UNL     1       1.444   9.378  19.200  0.00  0.00    +0.000 C 
ATOM      8  O   UNL     1       1.254  10.231  18.352  0.00  0.00    +0.000 OA
ATOM      9  H   UNL     1       1.072   7.669  21.928  0.00  0.00    +0.000 HD
ENDROOT
BRANCH   1  12
ATOM     10  C   UNL     1       3.470   4.195  17.249  0.00  0.00    +0.000 A 
ATOM     11  C   UNL     1       2.819   5.404  17.546  0.00  0.00    +0.000 A 
ATOM     12  C   UNL     1       3.498   6.620  17.486  0.00  0.00    +0.000 A 
ATOM     13  C   UNL     1       4.834   6.643  17.089  0.00  0.00    +0.000 A 
ATOM     14  C   UNL     1       5.488   5.447  16.756  0.00  0.00    +0.000 A 
ATOM     15  C   UNL     1       4.816   4.209  16.841  0.00  0.00    +0.000 A 
BRANCH  14  16
ATOM     16  N   UNL     1       6.882   5.534  16.318  0.00  0.00    +0.000 N 
ATOM     17  O   UNL     1       7.304   4.677  15.526  0.00  0.00    +0.000 OA
ATOM     18  O   UNL     1       7.567   6.468  16.764  0.00  0.00    +0.000 OA
ENDBRANCH  14  16
BRANCH  15  19
ATOM     19  O   UNL     1       5.418   3.019  16.523  0.00  0.00    +0.000 OA
ATOM     20  H   UNL     1       4.928   2.267  16.915  0.00  0.00    +0.000 HD
ENDBRANCH  15  19
BRANCH  10  21
ATOM     21  O   UNL     1       2.646   3.104  17.371  0.00  0.00    +0.000 OA
BRANCH  21  23
ATOM     22  C   UNL     1       1.009   2.522  19.011  0.00  0.00    +0.000 C 
ATOM     23  C   UNL     1       2.492   2.530  18.669  0.00  0.00    +0.000 C 
ENDBRANCH  21  23
ENDBRANCH  10  21
ENDBRANCH   1  12
BRANCH   6  24
ATOM     24  C   UNL     1       0.020  10.084  21.163  0.00  0.00    +0.000 A 
ATOM     25  C   UNL     1      -0.703  11.056  20.459  0.00  0.00    +0.000 A 
ATOM     26  C   UNL     1      -1.656  11.855  21.100  0.00  0.00    +0.000 A 
ATOM     27  C   UNL     1      -1.894  11.703  22.460  0.00  0.00    +0.000 A 
ATOM     28  C   UNL     1      -1.182  10.750  23.181  0.00  0.00    +0.000 A 
ATOM     29  C   UNL     1      -0.235   9.946  22.538  0.00  0.00    +0.000 A 
ENDBRANCH   6  24
TORSDOF 6
ENDMDL
MODEL 6
REMARK VINA RESULT:      -7.9      2.219      3.724
REMARK  Name = 
REMARK  7 active torsions:
REMARK  status: ('A' for Active; 'I' for Inactive)
REMARK    1  A    between atoms: C_1  and  C_2
REMARK    2  A    between atoms: C_2  and  O_3
REMARK    3  A    between atoms: O_3  and  C_4
REMARK    4  A    between atoms: C_6  and  C_7
REMARK    5  A    between atoms: N_12  and  C_13
REMARK    6  A    between atoms: C_22  and  N_23
REMARK    7  A    between atoms: C_26  and  O_27
REMARK                            x       y       z     vdW  Elec       q    Type
REMARK                         _______ _______ _______ _____ _____    ______ ____
ROOT
ATOM      1  C   UNL     1       1.945   7.177  20.009  0.00  0.00    +0.000 C 
ATOM      2  C   UNL     1       1.829   8.285  19.265  0.00  0.00    +0.000 C 
ATOM      3  C   UNL     1       2.283   8.534  17.883  0.00  0.00    +0.000 C 
ATOM      4  O   UNL     1       2.926   7.807  17.156  0.00  0.00    +0.000 OA
ATOM      5  N   UNL     1       1.856   9.816  17.604  0.00  0.00    +0.000 N 
ATOM      6  N   UNL     1       1.364  10.457  18.752  0.00  0.00    +0.000 N 
ATOM      7  C   UNL     1       1.266   9.546  19.814  0.00  0.00    +0.000 C 
ATOM      8  O   UNL     1       0.875   9.682  20.960  0.00  0.00    +0.000 OA
ATOM      9  H   UNL     1       2.259  10.325  16.830  0.00  0.00    +0.000 HD
ENDROOT
BRANCH   1  12
ATOM     10  C   UNL     1       4.718   4.708  19.250  0.00  0.00    +0.000 A 
ATOM     11  C   UNL     1       4.050   5.865  19.686  0.00  0.00    +0.000 A 
ATOM     12  C   UNL     1       2.664   5.974  19.592  0.00  0.00    +0.000 A 
ATOM     13  C   UNL     1       1.923   4.906  19.091  0.00  0.00    +0.000 A 
ATOM     14  C   UNL     1       2.572   3.730  18.683  0.00  0.00    +0.000 A 
ATOM     15  C   UNL     1       3.977   3.623  18.749  0.00  0.00    +0.000 A 
BRANCH  14  16
ATOM     16  N   UNL     1       1.741   2.630  18.194  0.00  0.00    +0.000 N 
ATOM     17  O   UNL     1       0.659   2.411  18.762  0.00  0.00    +0.000 OA
ATOM     18  O   UNL     1       2.166   1.973  17.230  0.00  0.00    +0.000 OA
ENDBRANCH  14  16
BRANCH  15  19
ATOM     19  O   UNL     1       4.650   2.491  18.363  0.00  0.00    +0.000 OA
ATOM     20  H   UNL     1       4.071   1.909  17.830  0.00  0.00    +0.000 HD
ENDBRANCH  15  19
BRANCH  10  21
ATOM     21  O   UNL     1       6.079   4.788  19.413  0.00  0.00    +0.000 OA
BRANCH  21  23
ATOM     22  C   UNL     1       7.559   4.631  17.545  0.00  0.00    +0.000 C 
ATOM     23  C   UNL     1       6.815   5.575  18.478  0.00  0.00    +0.000 C 
ENDBRANCH  21  23
ENDBRANCH  10  21
ENDBRANCH   1  12
BRANCH   6  24
ATOM     24  C   UNL     1       1.094  11.848  18.791  0.00  0.00    +0.000 A 
ATOM     25  C   UNL     1      -0.215  12.336  18.909  0.00  0.00    +0.000 A 
ATOM     26  C   UNL     1      -0.473  13.708  18.980  0.00  0.00    +0.000 A 
ATOM     27  C   UNL     1       0.575  14.620  18.924  0.00  0.00    +0.000 A 
ATOM     28  C   UNL     1       1.881  14.160  18.798  0.00  0.00    +0.000 A 
ATOM     29  C   UNL     1       2.139  12.786  18.736  0.00  0.00    +0.000 A 
ENDBRANCH   6  24
TORSDOF 6
ENDMDL
MODEL 7
REMARK VINA RESULT:      -7.8      2.238      3.804
REMARK  Name = 
REMARK  7 active torsions:
REMARK  status: ('A' for Active; 'I' for Inactive)
REMARK    1  A    between atoms: C_1  and  C_2
REMARK    2  A    between atoms: C_2  and  O_3
REMARK    3  A    between atoms: O_3  and  C_4
REMARK    4  A    between atoms: C_6  and  C_7
REMARK    5  A    between atoms: N_12  and  C_13
REMARK    6  A    between atoms: C_22  and  N_23
REMARK    7  A    between atoms: C_26  and  O_27
REMARK                            x       y       z     vdW  Elec       q    Type
REMARK                         _______ _______ _______ _____ _____    ______ ____
ROOT
ATOM      1  C   UNL     1       1.950   7.121  20.024  0.00  0.00    +0.000 C 
ATOM      2  C   UNL     1       1.832   8.233  19.287  0.00  0.00    +0.000 C 
ATOM      3  C   UNL     1       2.270   8.486  17.901  0.00  0.00    +0.000 C 
ATOM      4  O   UNL     1       2.899   7.757  17.162  0.00  0.00    +0.000 OA
ATOM      5  N   UNL     1       1.849   9.772  17.633  0.00  0.00    +0.000 N 
ATOM      6  N   UNL     1       1.376  10.411  18.791  0.00  0.00    +0.000 N 
ATOM      7  C   UNL     1       1.286   9.495  19.850  0.00  0.00    +0.000 C 
ATOM      8  O   UNL     1       0.910   9.628  21.001  0.00  0.00    +0.000 OA
ATOM      9  H   UNL     1       2.245  10.282  16.857  0.00  0.00    +0.000 HD
ENDROOT
BRANCH   1  12
ATOM     10  C   UNL     1       4.697   4.642  19.203  0.00  0.00    +0.000 A 
ATOM     11  C   UNL     1       4.043   5.801  19.653  0.00  0.00    +0.000 A 
ATOM     12  C   UNL     1       2.655   5.915  19.592  0.00  0.00    +0.000 A 
ATOM     13  C   UNL     1       1.899   4.848  19.111  0.00  0.00    +0.000 A 
ATOM     14  C   UNL     1       2.535   3.670  18.689  0.00  0.00    +0.000 A 
ATOM     15  C   UNL     1       3.941   3.558  18.723  0.00  0.00    +0.000 A 
BRANCH  14  16
ATOM     16  N   UNL     1       1.689   2.571  18.221  0.00  0.00    +0.000 N 
ATOM     17  O   UNL     1       0.589   2.400  18.770  0.00  0.00    +0.000 OA
ATOM     18  O   UNL     1       2.122   1.867  17.295  0.00  0.00    +0.000 OA
ENDBRANCH  14  16
BRANCH  15  19
ATOM     19  O   UNL     1       4.601   2.424  18.322  0.00  0.00    +0.000 OA
ATOM     20  H   UNL     1       4.162   1.624  18.676  0.00  0.00    +0.000 HD
ENDBRANCH  15  19
BRANCH  10  21
ATOM     21  O   UNL     1       6.061   4.718  19.334  0.00  0.00    +0.000 OA
BRANCH  21  23
ATOM     22  C   UNL     1       7.961   6.121  18.985  0.00  0.00    +0.000 C 
ATOM     23  C   UNL     1       6.788   5.415  18.323  0.00  0.00    +0.000 C 
ENDBRANCH  21  23
ENDBRANCH  10  21
ENDBRANCH   1  12
BRANCH   6  24
ATOM     24  C   UNL     1       1.116  11.803  18.840  0.00  0.00    +0.000 A 
ATOM     25  C   UNL     1       2.145  12.744  18.692  0.00  0.00    +0.000 A 
ATOM     26  C   UNL     1       1.878  14.117  18.708  0.00  0.00    +0.000 A 
ATOM     27  C   UNL     1       0.578  14.574  18.883  0.00  0.00    +0.000 A 
ATOM     28  C   UNL     1      -0.458  13.660  19.041  0.00  0.00    +0.000 A 
ATOM     29  C   UNL     1      -0.192  12.286  19.016  0.00  0.00    +0.000 A 
ENDBRANCH   6  24
TORSDOF 6
ENDMDL
MODEL 8
REMARK VINA RESULT:      -7.7      1.825      3.378
REMARK  Name = 
REMARK  7 active torsions:
REMARK  status: ('A' for Active; 'I' for Inactive)
REMARK    1  A    between atoms: C_1  and  C_2
REMARK    2  A    between atoms: C_2  and  O_3
REMARK    3  A    between atoms: O_3  and  C_4
REMARK    4  A    between atoms: C_6  and  C_7
REMARK    5  A    between atoms: N_12  and  C_13
REMARK    6  A    between atoms: C_22  and  N_23
REMARK    7  A    between atoms: C_26  and  O_27
REMARK                            x       y       z     vdW  Elec       q    Type
REMARK                         _______ _______ _______ _____ _____    ______ ____
ROOT
ATOM      1  C   UNL     1       2.413   7.989  18.093  0.00  0.00    +0.000 C 
ATOM      2  C   UNL     1       1.815   8.388  19.224  0.00  0.00    +0.000 C 
ATOM      3  C   UNL     1       1.728   7.702  20.527  0.00  0.00    +0.000 C 
ATOM      4  O   UNL     1       2.118   6.592  20.824  0.00  0.00    +0.000 OA
ATOM      5  N   UNL     1       1.050   8.586  21.340  0.00  0.00    +0.000 N 
ATOM      6  N   UNL     1       0.529   9.665  20.607  0.00  0.00    +0.000 N 
ATOM      7  C   UNL     1       1.012   9.637  19.290  0.00  0.00    +0.000 C 
ATOM      8  O   UNL     1       0.826  10.386  18.348  0.00  0.00    +0.000 OA
ATOM      9  H   UNL     1       0.629   8.262  22.199  0.00  0.00    +0.000 HD
ENDROOT
BRANCH   1  12
ATOM     10  C   UNL     1       4.988   5.284  17.449  0.00  0.00    +0.000 A 
ATOM     11  C   UNL     1       4.410   6.549  17.651  0.00  0.00    +0.000 A 
ATOM     12  C   UNL     1       3.047   6.684  17.911  0.00  0.00    +0.000 A 
ATOM     13  C   UNL     1       2.249   5.546  18.008  0.00  0.00    +0.000 A 
ATOM     14  C   UNL     1       2.818   4.273  17.842  0.00  0.00    +0.000 A 
ATOM     15  C   UNL     1       4.191   4.130  17.553  0.00  0.00    +0.000 A 
BRANCH  14  16
ATOM     16  N   UNL     1       1.939   3.112  17.985  0.00  0.00    +0.000 N 
ATOM     17  O   UNL     1       2.111   2.146  17.225  0.00  0.00    +0.000 OA
ATOM     18  O   UNL     1       1.065   3.158  18.866  0.00  0.00    +0.000 OA
ENDBRANCH  14  16
BRANCH  15  19
ATOM     19  O   UNL     1       4.787   2.905  17.386  0.00  0.00    +0.000 OA
ATOM     20  H   UNL     1       4.216   2.312  16.855  0.00  0.00    +0.000 HD
ENDBRANCH  15  19
BRANCH  10  21
ATOM     21  O   UNL     1       6.335   5.350  17.198  0.00  0.00    +0.000 OA
BRANCH  21  23
ATOM     22  C   UNL     1       7.791   5.845  19.026  0.00  0.00    +0.000 C 
ATOM     23  C   UNL     1       7.074   6.408  17.809  0.00  0.00    +0.000 C 
ENDBRANCH  21  23
ENDBRANCH  10  21
ENDBRANCH   1  12
BRANCH   6  24
ATOM     24  C   UNL     1      -0.407  10.577  21.156  0.00  0.00    +0.000 A 
ATOM     25  C   UNL     1      -1.103  11.485  20.346  0.00  0.00    +0.000 A 
ATOM     26  C   UNL     1      -2.050  12.360  20.888  0.00  0.00    +0.000 A 
ATOM     27  C   UNL     1      -2.312  12.349  22.253  0.00  0.00    +0.000 A 
ATOM     28  C   UNL     1      -1.627  11.462  23.077  0.00  0.00    +0.000 A 
ATOM     29  C   UNL     1      -0.686  10.581  22.533  0.00  0.00    +0.000 A 
ENDBRANCH   6  24
TORSDOF 6
ENDMDL
MODEL 9
REMARK VINA RESULT:      -7.7      1.838      3.422
REMARK  Name = 
REMARK  7 active torsions:
REMARK  status: ('A' for Active; 'I' for Inactive)
REMARK    1  A    between atoms: C_1  and  C_2
REMARK    2  A    between atoms: C_2  and  O_3
REMARK    3  A    between atoms: O_3  and  C_4
REMARK    4  A    between atoms: C_6  and  C_7
REMARK    5  A    between atoms: N_12  and  C_13
REMARK    6  A    between atoms: C_22  and  N_23
REMARK    7  A    between atoms: C_26  and  O_27
REMARK                            x       y       z     vdW  Elec       q    Type
REMARK                         _______ _______ _______ _____ _____    ______ ____
ROOT
ATOM      1  C   UNL     1       2.395   8.008  18.071  0.00  0.00    +0.000 C 
ATOM      2  C   UNL     1       1.798   8.401  19.203  0.00  0.00    +0.000 C 
ATOM      3  C   UNL     1       1.719   7.712  20.506  0.00  0.00    +0.000 C 
ATOM      4  O   UNL     1       2.119   6.606  20.801  0.00  0.00    +0.000 OA
ATOM      5  N   UNL     1       1.037   8.590  21.322  0.00  0.00    +0.000 N 
ATOM      6  N   UNL     1       0.506   9.667  20.592  0.00  0.00    +0.000 N 
ATOM      7  C   UNL     1       0.985   9.644  19.273  0.00  0.00    +0.000 C 
ATOM      8  O   UNL     1       0.791  10.392  18.332  0.00  0.00    +0.000 OA
ATOM      9  H   UNL     1       0.621   8.262  22.182  0.00  0.00    +0.000 HD
ENDROOT
BRANCH   1  12
ATOM     10  C   UNL     1       4.990   5.324  17.423  0.00  0.00    +0.000 A 
ATOM     11  C   UNL     1       4.403   6.583  17.628  0.00  0.00    +0.000 A 
ATOM     12  C   UNL     1       3.038   6.709  17.884  0.00  0.00    +0.000 A 
ATOM     13  C   UNL     1       2.249   5.564  17.974  0.00  0.00    +0.000 A 
ATOM     14  C   UNL     1       2.827   4.296  17.806  0.00  0.00    +0.000 A 
ATOM     15  C   UNL     1       4.202   4.163  17.519  0.00  0.00    +0.000 A 
BRANCH  14  16
ATOM     16  N   UNL     1       1.955   3.129  17.941  0.00  0.00    +0.000 N 
ATOM     17  O   UNL     1       1.012   3.188  18.747  0.00  0.00    +0.000 OA
ATOM     18  O   UNL     1       2.207   2.138  17.237  0.00  0.00    +0.000 OA
ENDBRANCH  14  16
BRANCH  15  19
ATOM     19  O   UNL     1       4.806   2.943  17.350  0.00  0.00    +0.000 OA
ATOM     20  H   UNL     1       5.132   2.597  18.205  0.00  0.00    +0.000 HD
ENDBRANCH  15  19
BRANCH  10  21
ATOM     21  O   UNL     1       6.338   5.400  17.176  0.00  0.00    +0.000 OA
BRANCH  21  23
ATOM     22  C   UNL     1       7.797   5.922  18.994  0.00  0.00    +0.000 C 
ATOM     23  C   UNL     1       7.064   6.470  17.779  0.00  0.00    +0.000 C 
ENDBRANCH  21  23
ENDBRANCH  10  21
ENDBRANCH   1  12
BRANCH   6  24
ATOM     24  C   UNL     1      -0.436  10.570  21.144  0.00  0.00    +0.000 A 
ATOM     25  C   UNL     1      -0.668  10.630  22.525  0.00  0.00    +0.000 A 
ATOM     26  C   UNL     1      -1.575  11.547  23.068  0.00  0.00    +0.000 A 
ATOM     27  C   UNL     1      -2.274  12.414  22.236  0.00  0.00    +0.000 A 
ATOM     28  C   UNL     1      -2.066  12.367  20.863  0.00  0.00    +0.000 A 
ATOM     29  C   UNL     1      -1.153  11.455  20.321  0.00  0.00    +0.000 A 
ENDBRANCH   6  24
TORSDOF 6
ENDMDL
