MODEL 1
REMARK VINA RESULT:      -7.1      0.000      0.000
REMARK  Name = 
REMARK  2 active torsions:
REMARK  status: ('A' for Active; 'I' for Inactive)
REMARK    1  A    between atoms: C_1  and  N_2
REMARK    2  A    between atoms: C_4  and  C_5
REMARK                            x       y       z     vdW  Elec       q    Type
REMARK                         _______ _______ _______ _____ _____    ______ ____
ROOT
ATOM      1  C   UNL     1       3.760   2.377  20.674  0.00  0.00    +0.000 C 
ATOM      2  N   UNL     1       3.691   3.580  19.865  0.00  0.00    +0.000 N 
ATOM      3  N   UNL     1       4.466   3.580  18.712  0.00  0.00    +0.000 NA
ATOM      4  C   UNL     1       4.481   4.643  17.958  0.00  0.00    +0.000 A 
ATOM      5  C   UNL     1       3.670   5.769  18.327  0.00  0.00    +0.000 A 
ATOM      6  N   UNL     1       3.519   6.895  17.664  0.00  0.00    +0.000 NA
ATOM      7  C   UNL     1       2.670   7.644  18.429  0.00  0.00    +0.000 A 
ATOM      8 BR   UNL     1       2.178   9.388  17.910  0.00  0.00    +0.000 Br
ATOM      9  C   UNL     1       2.284   6.953  19.555  0.00  0.00    +0.000 A 
ATOM     10 BR   UNL     1       1.134   7.580  20.885  0.00  0.00    +0.000 Br
ATOM     11  N   UNL     1       2.924   5.734  19.475  0.00  0.00    +0.000 N 
ATOM     12  C   UNL     1       2.894   4.632  20.329  0.00  0.00    +0.000 A 
ATOM     13  O   UNL     1       2.221   4.653  21.351  0.00  0.00    +0.000 OA
ENDROOT
BRANCH   4  14
ATOM     14  C   UNL     1       5.329   4.677  16.732  0.00  0.00    +0.000 A 
ATOM     15  C   UNL     1       4.789   4.256  15.510  0.00  0.00    +0.000 A 
ATOM     16  C   UNL     1       5.566   4.296  14.349  0.00  0.00    +0.000 A 
ATOM     17  C   UNL     1       6.885   4.746  14.404  0.00  0.00    +0.000 A 
ATOM     18  C   UNL     1       7.435   5.145  15.619  0.00  0.00    +0.000 A 
ATOM     19  C   UNL     1       6.663   5.103  16.780  0.00  0.00    +0.000 A 
ENDBRANCH   4  14
TORSDOF 1
ENDMDL
MODEL 2
REMARK VINA RESULT:      -7.1      0.054      1.110
REMARK  Name = 
REMARK  2 active torsions:
REMARK  status: ('A' for Active; 'I' for Inactive)
REMARK    1  A    between atoms: C_1  and  N_2
REMARK    2  A    between atoms: C_4  and  C_5
REMARK                            x       y       z     vdW  Elec       q    Type
REMARK                         _______ _______ _______ _____ _____    ______ ____
ROOT
ATOM      1  C   UNL     1       3.714   2.427  20.687  0.00  0.00    +0.000 C 
ATOM      2  N   UNL     1       3.652   3.625  19.870  0.00  0.00    +0.000 N 
ATOM      3  N   UNL     1       4.421   3.610  18.713  0.00  0.00    +0.000 NA
ATOM      4  C   UNL     1       4.443   4.668  17.952  0.00  0.00    +0.000 A 
ATOM      5  C   UNL     1       3.645   5.804  18.319  0.00  0.00    +0.000 A 
ATOM      6  N   UNL     1       3.501   6.927  17.649  0.00  0.00    +0.000 NA
ATOM      7  C   UNL     1       2.663   7.689  18.413  0.00  0.00    +0.000 A 
ATOM      8 BR   UNL     1       2.185   9.435  17.886  0.00  0.00    +0.000 Br
ATOM      9  C   UNL     1       2.276   7.010  19.546  0.00  0.00    +0.000 A 
ATOM     10 BR   UNL     1       1.140   7.656  20.877  0.00  0.00    +0.000 Br
ATOM     11  N   UNL     1       2.904   5.783  19.470  0.00  0.00    +0.000 N 
ATOM     12  C   UNL     1       2.868   4.687  20.331  0.00  0.00    +0.000 A 
ATOM     13  O   UNL     1       2.201   4.722  21.356  0.00  0.00    +0.000 OA
ENDROOT
BRANCH   4  14
ATOM     14  C   UNL     1       5.284   4.685  16.722  0.00  0.00    +0.000 A 
ATOM     15  C   UNL     1       6.612   5.123  16.802  0.00  0.00    +0.000 A 
ATOM     16  C   UNL     1       7.419   5.130  15.661  0.00  0.00    +0.000 A 
ATOM     17  C   UNL     1       6.902   4.711  14.435  0.00  0.00    +0.000 A 
ATOM     18  C   UNL     1       5.577   4.295  14.343  0.00  0.00    +0.000 A 
ATOM     19  C   UNL     1       4.768   4.290  15.480  0.00  0.00    +0.000 A 
ENDBRANCH   4  14
TORSDOF 1
ENDMDL
MODEL 3
REMARK VINA RESULT:      -6.8      2.875      5.886
REMARK  Name = 
REMARK  2 active torsions:
REMARK  status: ('A' for Active; 'I' for Inactive)
REMARK    1  A    between atoms: C_1  and  N_2
REMARK    2  A    between atoms: C_4  and  C_5
REMARK                            x       y       z     vdW  Elec       q    Type
REMARK                         _______ _______ _______ _____ _____    ______ ____
ROOT
ATOM      1  C   UNL     1       5.217   6.605  15.921  0.00  0.00    +0.000 C 
ATOM      2  N   UNL     1       4.329   6.231  17.006  0.00  0.00    +0.000 N 
ATOM      3  N   UNL     1       3.555   7.256  17.537  0.00  0.00    +0.000 NA
ATOM      4  C   UNL     1       2.763   6.998  18.540  0.00  0.00    +0.000 A 
ATOM      5  C   UNL     1       2.692   5.655  19.042  0.00  0.00    +0.000 A 
ATOM      6  N   UNL     1       1.915   5.202  20.003  0.00  0.00    +0.000 NA
ATOM      7  C   UNL     1       2.230   3.878  20.118  0.00  0.00    +0.000 A 
ATOM      8 BR   UNL     1       1.400   2.791  21.415  0.00  0.00    +0.000 Br
ATOM      9  C   UNL     1       3.191   3.520  19.200  0.00  0.00    +0.000 A 
ATOM     10 BR   UNL     1       3.926   1.817  18.990  0.00  0.00    +0.000 Br
ATOM     11  N   UNL     1       3.474   4.672  18.496  0.00  0.00    +0.000 N 
ATOM     12  C   UNL     1       4.356   4.902  17.441  0.00  0.00    +0.000 A 
ATOM     13  O   UNL     1       5.044   3.993  16.996  0.00  0.00    +0.000 OA
ENDROOT
BRANCH   4  14
ATOM     14  C   UNL     1       1.947   8.089  19.146  0.00  0.00    +0.000 A 
ATOM     15  C   UNL     1       1.462   9.119  18.330  0.00  0.00    +0.000 A 
ATOM     16  C   UNL     1       0.682  10.140  18.880  0.00  0.00    +0.000 A 
ATOM     17  C   UNL     1       0.392  10.143  20.245  0.00  0.00    +0.000 A 
ATOM     18  C   UNL     1       0.889   9.134  21.064  0.00  0.00    +0.000 A 
ATOM     19  C   UNL     1       1.670   8.115  20.519  0.00  0.00    +0.000 A 
ENDBRANCH   4  14
TORSDOF 1
ENDMDL
MODEL 4
REMARK VINA RESULT:      -6.7      2.866      5.897
REMARK  Name = 
REMARK  2 active torsions:
REMARK  status: ('A' for Active; 'I' for Inactive)
REMARK    1  A    between atoms: C_1  and  N_2
REMARK    2  A    between atoms: C_4  and  C_5
REMARK                            x       y       z     vdW  Elec       q    Type
REMARK                         _______ _______ _______ _____ _____    ______ ____
ROOT
ATOM      1  C   UNL     1       5.226   6.503  15.841  0.00  0.00    +0.000 C 
ATOM      2  N   UNL     1       4.334   6.147  16.928  0.00  0.00    +0.000 N 
ATOM      3  N   UNL     1       3.591   7.189  17.470  0.00  0.00    +0.000 NA
ATOM      4  C   UNL     1       2.797   6.947  18.475  0.00  0.00    +0.000 A 
ATOM      5  C   UNL     1       2.693   5.603  18.970  0.00  0.00    +0.000 A 
ATOM      6  N   UNL     1       1.909   5.166  19.932  0.00  0.00    +0.000 NA
ATOM      7  C   UNL     1       2.188   3.833  20.038  0.00  0.00    +0.000 A 
ATOM      8 BR   UNL     1       1.336   2.761  21.332  0.00  0.00    +0.000 Br
ATOM      9  C   UNL     1       3.134   3.454  19.112  0.00  0.00    +0.000 A 
ATOM     10 BR   UNL     1       3.823   1.734  18.890  0.00  0.00    +0.000 Br
ATOM     11  N   UNL     1       3.445   4.603  18.414  0.00  0.00    +0.000 N 
ATOM     12  C   UNL     1       4.328   4.815  17.356  0.00  0.00    +0.000 A 
ATOM     13  O   UNL     1       4.989   3.891  16.902  0.00  0.00    +0.000 OA
ENDROOT
BRANCH   4  14
ATOM     14  C   UNL     1       2.014   8.055  19.091  0.00  0.00    +0.000 A 
ATOM     15  C   UNL     1       1.749   8.029  20.466  0.00  0.00    +0.000 A 
ATOM     16  C   UNL     1       1.030   9.069  21.062  0.00  0.00    +0.000 A 
ATOM     17  C   UNL     1       0.563  10.133  20.287  0.00  0.00    +0.000 A 
ATOM     18  C   UNL     1       0.804  10.153  18.916  0.00  0.00    +0.000 A 
ATOM     19  C   UNL     1       1.519   9.115  18.319  0.00  0.00    +0.000 A 
ENDBRANCH   4  14
TORSDOF 1
ENDMDL
MODEL 5
REMARK VINA RESULT:      -6.5      3.008      5.693
REMARK  Name = 
REMARK  2 active torsions:
REMARK  status: ('A' for Active; 'I' for Inactive)
REMARK    1  A    between atoms: C_1  and  N_2
REMARK    2  A    between atoms: C_4  and  C_5
REMARK                            x       y       z     vdW  Elec       q    Type
REMARK                         _______ _______ _______ _____ _____    ______ ____
ROOT
ATOM      1  C   UNL     1       6.553   6.733  16.946  0.00  0.00    +0.000 C 
ATOM      2  N   UNL     1       5.265   6.269  17.426  0.00  0.00    +0.000 N 
ATOM      3  N   UNL     1       4.360   7.259  17.788  0.00  0.00    +0.000 NA
ATOM      4  C   UNL     1       3.197   6.912  18.264  0.00  0.00    +0.000 A 
ATOM      5  C   UNL     1       2.876   5.517  18.367  0.00  0.00    +0.000 A 
ATOM      6  N   UNL     1       1.741   4.986  18.768  0.00  0.00    +0.000 NA
ATOM      7  C   UNL     1       1.940   3.636  18.704  0.00  0.00    +0.000 A 
ATOM      8 BR   UNL     1       0.591   2.430  19.232  0.00  0.00    +0.000 Br
ATOM      9  C   UNL     1       3.201   3.346  18.236  0.00  0.00    +0.000 A 
ATOM     10 BR   UNL     1       3.911   1.639  17.985  0.00  0.00    +0.000 Br
ATOM     11  N   UNL     1       3.797   4.569  18.005  0.00  0.00    +0.000 N 
ATOM     12  C   UNL     1       5.063   4.887  17.517  0.00  0.00    +0.000 A 
ATOM     13  O   UNL     1       5.856   4.004  17.219  0.00  0.00    +0.000 OA
ENDROOT
BRANCH   4  14
ATOM     14  C   UNL     1       2.222   7.958  18.687  0.00  0.00    +0.000 A 
ATOM     15  C   UNL     1       1.687   8.828  17.729  0.00  0.00    +0.000 A 
ATOM     16  C   UNL     1       0.759   9.803  18.107  0.00  0.00    +0.000 A 
ATOM     17  C   UNL     1       0.371   9.920  19.442  0.00  0.00    +0.000 A 
ATOM     18  C   UNL     1       0.916   9.073  20.403  0.00  0.00    +0.000 A 
ATOM     19  C   UNL     1       1.844   8.101  20.029  0.00  0.00    +0.000 A 
ENDBRANCH   4  14
TORSDOF 1
ENDMDL
MODEL 6
REMARK VINA RESULT:      -6.5      3.012      5.733
REMARK  Name = 
REMARK  2 active torsions:
REMARK  status: ('A' for Active; 'I' for Inactive)
REMARK    1  A    between atoms: C_1  and  N_2
REMARK    2  A    between atoms: C_4  and  C_5
REMARK                            x       y       z     vdW  Elec       q    Type
REMARK                         _______ _______ _______ _____ _____    ______ ____
ROOT
ATOM      1  C   UNL     1       6.598   6.727  17.007  0.00  0.00    +0.000 C 
ATOM      2  N   UNL     1       5.303   6.262  17.466  0.00  0.00    +0.000 N 
ATOM      3  N   UNL     1       4.391   7.252  17.811  0.00  0.00    +0.000 NA
ATOM      4  C   UNL     1       3.220   6.905  18.268  0.00  0.00    +0.000 A 
ATOM      5  C   UNL     1       2.899   5.509  18.368  0.00  0.00    +0.000 A 
ATOM      6  N   UNL     1       1.758   4.978  18.751  0.00  0.00    +0.000 NA
ATOM      7  C   UNL     1       1.959   3.628  18.693  0.00  0.00    +0.000 A 
ATOM      8 BR   UNL     1       0.603   2.421  19.200  0.00  0.00    +0.000 Br
ATOM      9  C   UNL     1       3.228   3.339  18.246  0.00  0.00    +0.000 A 
ATOM     10 BR   UNL     1       3.945   1.632  18.010  0.00  0.00    +0.000 Br
ATOM     11  N   UNL     1       3.827   4.562  18.023  0.00  0.00    +0.000 N 
ATOM     12  C   UNL     1       5.101   4.881  17.556  0.00  0.00    +0.000 A 
ATOM     13  O   UNL     1       5.900   3.998  17.273  0.00  0.00    +0.000 OA
ENDROOT
BRANCH   4  14
ATOM     14  C   UNL     1       2.237   7.950  18.673  0.00  0.00    +0.000 A 
ATOM     15  C   UNL     1       1.861   8.056  20.018  0.00  0.00    +0.000 A 
ATOM     16  C   UNL     1       0.954   9.041  20.417  0.00  0.00    +0.000 A 
ATOM     17  C   UNL     1       0.410   9.916  19.476  0.00  0.00    +0.000 A 
ATOM     18  C   UNL     1       0.762   9.801  18.134  0.00  0.00    +0.000 A 
ATOM     19  C   UNL     1       1.666   8.817  17.732  0.00  0.00    +0.000 A 
ENDBRANCH   4  14
TORSDOF 1
ENDMDL
MODEL 7
REMARK VINA RESULT:      -6.3      3.077      5.358
REMARK  Name = 
REMARK  2 active torsions:
REMARK  status: ('A' for Active; 'I' for Inactive)
REMARK    1  A    between atoms: C_1  and  N_2
REMARK    2  A    between atoms: C_4  and  C_5
REMARK                            x       y       z     vdW  Elec       q    Type
REMARK                         _______ _______ _______ _____ _____    ______ ____
ROOT
ATOM      1  C   UNL     1       1.949   2.797  17.856  0.00  0.00    +0.000 C 
ATOM      2  N   UNL     1       2.755   4.003  17.908  0.00  0.00    +0.000 N 
ATOM      3  N   UNL     1       2.102   5.150  18.343  0.00  0.00    +0.000 NA
ATOM      4  C   UNL     1       2.755   6.278  18.377  0.00  0.00    +0.000 A 
ATOM      5  C   UNL     1       4.139   6.291  17.995  0.00  0.00    +0.000 A 
ATOM      6  N   UNL     1       4.963   7.316  18.019  0.00  0.00    +0.000 NA
ATOM      7  C   UNL     1       6.149   6.827  17.550  0.00  0.00    +0.000 A 
ATOM      8 BR   UNL     1       7.653   7.946  17.353  0.00  0.00    +0.000 Br
ATOM      9  C   UNL     1       6.048   5.485  17.261  0.00  0.00    +0.000 A 
ATOM     10 BR   UNL     1       7.413   4.400  16.596  0.00  0.00    +0.000 Br
ATOM     11  N   UNL     1       4.747   5.141  17.566  0.00  0.00    +0.000 N 
ATOM     12  C   UNL     1       4.085   3.917  17.486  0.00  0.00    +0.000 A 
ATOM     13  O   UNL     1       4.669   2.919  17.084  0.00  0.00    +0.000 OA
ENDROOT
BRANCH   4  14
ATOM     14  C   UNL     1       2.066   7.526  18.811  0.00  0.00    +0.000 A 
ATOM     15  C   UNL     1       1.740   8.500  17.857  0.00  0.00    +0.000 A 
ATOM     16  C   UNL     1       1.079   9.668  18.245  0.00  0.00    +0.000 A 
ATOM     17  C   UNL     1       0.751   9.876  19.586  0.00  0.00    +0.000 A 
ATOM     18  C   UNL     1       1.091   8.923  20.541  0.00  0.00    +0.000 A 
ATOM     19  C   UNL     1       1.753   7.757  20.157  0.00  0.00    +0.000 A 
ENDBRANCH   4  14
TORSDOF 1
ENDMDL
MODEL 8
REMARK VINA RESULT:      -6.3      3.095      5.422
REMARK  Name = 
REMARK  2 active torsions:
REMARK  status: ('A' for Active; 'I' for Inactive)
REMARK    1  A    between atoms: C_1  and  N_2
REMARK    2  A    between atoms: C_4  and  C_5
REMARK                            x       y       z     vdW  Elec       q    Type
REMARK                         _______ _______ _______ _____ _____    ______ ____
ROOT
ATOM      1  C   UNL     1       1.939   2.899  17.832  0.00  0.00    +0.000 C 
ATOM      2  N   UNL     1       2.755   4.097  17.890  0.00  0.00    +0.000 N 
ATOM      3  N   UNL     1       2.110   5.250  18.320  0.00  0.00    +0.000 NA
ATOM      4  C   UNL     1       2.774   6.371  18.360  0.00  0.00    +0.000 A 
ATOM      5  C   UNL     1       4.161   6.371  17.987  0.00  0.00    +0.000 A 
ATOM      6  N   UNL     1       4.996   7.388  18.018  0.00  0.00    +0.000 NA
ATOM      7  C   UNL     1       6.180   6.887  17.557  0.00  0.00    +0.000 A 
ATOM      8 BR   UNL     1       7.696   7.992  17.371  0.00  0.00    +0.000 Br
ATOM      9  C   UNL     1       6.067   5.547  17.267  0.00  0.00    +0.000 A 
ATOM     10 BR   UNL     1       7.426   4.449  16.611  0.00  0.00    +0.000 Br
ATOM     11  N   UNL     1       4.761   5.216  17.563  0.00  0.00    +0.000 N 
ATOM     12  C   UNL     1       4.088   3.998  17.477  0.00  0.00    +0.000 A 
ATOM     13  O   UNL     1       4.665   2.994  17.079  0.00  0.00    +0.000 OA
ENDROOT
BRANCH   4  14
ATOM     14  C   UNL     1       2.095   7.627  18.789  0.00  0.00    +0.000 A 
ATOM     15  C   UNL     1       1.780   7.811  20.142  0.00  0.00    +0.000 A 
ATOM     16  C   UNL     1       1.158   8.989  20.563  0.00  0.00    +0.000 A 
ATOM     17  C   UNL     1       0.837   9.982  19.637  0.00  0.00    +0.000 A 
ATOM     18  C   UNL     1       1.127   9.796  18.288  0.00  0.00    +0.000 A 
ATOM     19  C   UNL     1       1.746   8.620  17.864  0.00  0.00    +0.000 A 
ENDBRANCH   4  14
TORSDOF 1
ENDMDL
MODEL 9
REMARK VINA RESULT:      -6.1      4.143      5.982
REMARK  Name = 
REMARK  2 active torsions:
REMARK  status: ('A' for Active; 'I' for Inactive)
REMARK    1  A    between atoms: C_1  and  N_2
REMARK    2  A    between atoms: C_4  and  C_5
REMARK                            x       y       z     vdW  Elec       q    Type
REMARK                         _______ _______ _______ _____ _____    ______ ____
ROOT
ATOM      1  C   UNL     1       7.390   6.623  18.626  0.00  0.00    +0.000 C 
ATOM      2  N   UNL     1       6.664   5.867  17.622  0.00  0.00    +0.000 N 
ATOM      3  N   UNL     1       5.524   5.208  18.066  0.00  0.00    +0.000 NA
ATOM      4  C   UNL     1       4.845   4.479  17.226  0.00  0.00    +0.000 A 
ATOM      5  C   UNL     1       5.279   4.406  15.860  0.00  0.00    +0.000 A 
ATOM      6  N   UNL     1       4.693   3.770  14.869  0.00  0.00    +0.000 NA
ATOM      7  C   UNL     1       5.495   3.988  13.785  0.00  0.00    +0.000 A 
ATOM      8 BR   UNL     1       5.090   3.228  12.108  0.00  0.00    +0.000 Br
ATOM      9  C   UNL     1       6.566   4.786  14.118  0.00  0.00    +0.000 A 
ATOM     10 BR   UNL     1       7.919   5.343  12.961  0.00  0.00    +0.000 Br
ATOM     11  N   UNL     1       6.412   5.065  15.460  0.00  0.00    +0.000 N 
ATOM     12  C   UNL     1       7.188   5.835  16.325  0.00  0.00    +0.000 A 
ATOM     13  O   UNL     1       8.199   6.395  15.924  0.00  0.00    +0.000 OA
ENDROOT
BRANCH   4  14
ATOM     14  C   UNL     1       3.636   3.739  17.688  0.00  0.00    +0.000 A 
ATOM     15  C   UNL     1       3.751   2.391  18.051  0.00  0.00    +0.000 A 
ATOM     16  C   UNL     1       2.631   1.688  18.502  0.00  0.00    +0.000 A 
ATOM     17  C   UNL     1       1.390   2.322  18.582  0.00  0.00    +0.000 A 
ATOM     18  C   UNL     1       1.264   3.656  18.202  0.00  0.00    +0.000 A 
ATOM     19  C   UNL     1       2.381   4.359  17.749  0.00  0.00    +0.000 A 
ENDBRANCH   4  14
TORSDOF 1
ENDMDL
