MODEL 1
REMARK VINA RESULT:      -6.7      0.000      0.000
REMARK  Name = 
REMARK  9 active torsions:
REMARK  status: ('A' for Active; 'I' for Inactive)
REMARK    1  A    between atoms: O_1  and  C_2
REMARK    2  A    between atoms: C_2  and  C_3
REMARK    3  A    between atoms: C_3  and  N_4
REMARK    4  A    between atoms: C_6  and  C_7
REMARK    5  A    between atoms: C_7  and  N_8
REMARK    6  A    between atoms: N_11  and  C_12
REMARK    7  A    between atoms: C_12  and  C_13
REMARK    8  A    between atoms: C_13  and  O_14
REMARK    9  A    between atoms: O_14  and  C_15
REMARK                            x       y       z     vdW  Elec       q    Type
REMARK                         _______ _______ _______ _____ _____    ______ ____
ROOT
ATOM      1  N   UNL     1       4.487   6.021  18.135  0.00  0.00    +0.000 NA
ATOM      2  C   UNL     1       5.381   5.718  19.266  0.00  0.00    +0.000 C 
ATOM      3  C   UNL     1       6.853   5.423  18.887  0.00  0.00    +0.000 C 
ATOM      4  N   UNL     1       7.508   6.365  17.954  0.00  0.00    +0.000 NA
ATOM      5  C   UNL     1       6.584   6.840  16.911  0.00  0.00    +0.000 C 
ATOM      6  C   UNL     1       5.130   7.118  17.367  0.00  0.00    +0.000 C 
ENDROOT
BRANCH   1   7
ATOM      7  C   UNL     1       4.245   4.864  17.255  0.00  0.00    +0.000 C 
BRANCH   7  10
ATOM      8  N   UNL     1       2.110   2.630  19.219  0.00  0.00    +0.000 N 
ATOM      9  C   UNL     1       2.372   3.871  18.711  0.00  0.00    +0.000 A 
ATOM     10  C   UNL     1       3.474   3.748  17.893  0.00  0.00    +0.000 A 
ATOM     11  C   UNL     1       3.756   2.359  17.926  0.00  0.00    +0.000 A 
ATOM     12  N   UNL     1       2.933   1.682  18.738  0.00  0.00    +0.000 NA
BRANCH   8  13
ATOM     13  C   UNL     1       1.110   2.306  20.218  0.00  0.00    +0.000 C 
BRANCH  13  14
ATOM     14  C   UNL     1       1.478   2.828  21.600  0.00  0.00    +0.000 C 
BRANCH  14  15
ATOM     15  O   UNL     1       2.813   2.441  21.926  0.00  0.00    +0.000 OA
ATOM     16  H   UNL     1       2.849   2.320  22.891  0.00  0.00    +0.000 HD
ENDBRANCH  14  15
ENDBRANCH  13  14
ENDBRANCH   8  13
ENDBRANCH   7  10
ENDBRANCH   1   7
BRANCH   4  17
ATOM     17  C   UNL     1       8.217   7.468  18.619  0.00  0.00    +0.000 C 
BRANCH  17  18
ATOM     18  C   UNL     1       8.325   8.713  17.720  0.00  0.00    +0.000 C 
BRANCH  18  19
ATOM     19  O   UNL     1       8.105   9.900  18.482  0.00  0.00    +0.000 OA
BRANCH  19  20
ATOM     20  C   UNL     1       9.244  10.588  18.824  0.00  0.00    +0.000 A 
ATOM     21  C   UNL     1       9.993  11.041  17.733  0.00  0.00    +0.000 A 
ATOM     22  C   UNL     1      11.176  11.756  17.931  0.00  0.00    +0.000 A 
ATOM     23  C   UNL     1      11.624  12.030  19.222  0.00  0.00    +0.000 A 
ATOM     24  C   UNL     1      10.883  11.587  20.316  0.00  0.00    +0.000 A 
ATOM     25  C   UNL     1       9.709  10.869  20.116  0.00  0.00    +0.000 A 
ATOM     26  F   UNL     1       9.051  10.467  21.213  0.00  0.00    +0.000 F 
ENDBRANCH  19  20
ENDBRANCH  18  19
ENDBRANCH  17  18
ENDBRANCH   4  17
TORSDOF 9
ENDMDL
MODEL 2
REMARK VINA RESULT:      -6.6      1.509      1.931
REMARK  Name = 
REMARK  9 active torsions:
REMARK  status: ('A' for Active; 'I' for Inactive)
REMARK    1  A    between atoms: O_1  and  C_2
REMARK    2  A    between atoms: C_2  and  C_3
REMARK    3  A    between atoms: C_3  and  N_4
REMARK    4  A    between atoms: C_6  and  C_7
REMARK    5  A    between atoms: C_7  and  N_8
REMARK    6  A    between atoms: N_11  and  C_12
REMARK    7  A    between atoms: C_12  and  C_13
REMARK    8  A    between atoms: C_13  and  O_14
REMARK    9  A    between atoms: O_14  and  C_15
REMARK                            x       y       z     vdW  Elec       q    Type
REMARK                         _______ _______ _______ _____ _____    ______ ____
ROOT
ATOM      1  N   UNL     1       5.992   4.047  17.055  0.00  0.00    +0.000 NA
ATOM      2  C   UNL     1       6.961   4.689  16.150  0.00  0.00    +0.000 C 
ATOM      3  C   UNL     1       6.797   6.218  15.978  0.00  0.00    +0.000 C 
ATOM      4  N   UNL     1       6.638   7.020  17.211  0.00  0.00    +0.000 NA
ATOM      5  C   UNL     1       5.824   6.323  18.221  0.00  0.00    +0.000 C 
ATOM      6  C   UNL     1       6.048   4.794  18.337  0.00  0.00    +0.000 C 
ENDROOT
BRANCH   1   7
ATOM      7  C   UNL     1       4.615   4.049  16.531  0.00  0.00    +0.000 C 
BRANCH   7  10
ATOM      8  N   UNL     1       2.069   3.255  19.040  0.00  0.00    +0.000 N 
ATOM      9  C   UNL     1       2.655   4.153  18.193  0.00  0.00    +0.000 A 
ATOM     10  C   UNL     1       3.594   3.462  17.459  0.00  0.00    +0.000 A 
ATOM     11  C   UNL     1       3.441   2.124  17.903  0.00  0.00    +0.000 A 
ATOM     12  N   UNL     1       2.521   2.000  18.869  0.00  0.00    +0.000 NA
BRANCH   8  13
ATOM     13  C   UNL     1       1.104   3.560  20.079  0.00  0.00    +0.000 C 
BRANCH  13  14
ATOM     14  C   UNL     1       1.303   2.708  21.326  0.00  0.00    +0.000 C 
BRANCH  14  15
ATOM     15  O   UNL     1       2.171   3.380  22.239  0.00  0.00    +0.000 OA
ATOM     16  H   UNL     1       2.270   4.294  21.919  0.00  0.00    +0.000 HD
ENDBRANCH  14  15
ENDBRANCH  13  14
ENDBRANCH   8  13
ENDBRANCH   7  10
ENDBRANCH   1   7
BRANCH   4  17
ATOM     17  C   UNL     1       7.905   7.523  17.764  0.00  0.00    +0.000 C 
BRANCH  17  18
ATOM     18  C   UNL     1       8.006   9.056  17.678  0.00  0.00    +0.000 C 
BRANCH  18  19
ATOM     19  O   UNL     1       8.747   9.571  18.784  0.00  0.00    +0.000 OA
BRANCH  19  20
ATOM     20  C   UNL     1       9.319  10.803  18.576  0.00  0.00    +0.000 A 
ATOM     21  C   UNL     1      10.580  10.958  19.161  0.00  0.00    +0.000 A 
ATOM     22  C   UNL     1      11.280  12.159  19.031  0.00  0.00    +0.000 A 
ATOM     23  C   UNL     1      10.730  13.220  18.313  0.00  0.00    +0.000 A 
ATOM     24  C   UNL     1       9.475  13.075  17.724  0.00  0.00    +0.000 A 
ATOM     25  C   UNL     1       8.778  11.879  17.860  0.00  0.00    +0.000 A 
ATOM     26  F   UNL     1       7.573  11.812  17.275  0.00  0.00    +0.000 F 
ENDBRANCH  19  20
ENDBRANCH  18  19
ENDBRANCH  17  18
ENDBRANCH   4  17
TORSDOF 9
ENDMDL
MODEL 3
REMARK VINA RESULT:      -6.5      1.392      1.886
REMARK  Name = 
REMARK  9 active torsions:
REMARK  status: ('A' for Active; 'I' for Inactive)
REMARK    1  A    between atoms: O_1  and  C_2
REMARK    2  A    between atoms: C_2  and  C_3
REMARK    3  A    between atoms: C_3  and  N_4
REMARK    4  A    between atoms: C_6  and  C_7
REMARK    5  A    between atoms: C_7  and  N_8
REMARK    6  A    between atoms: N_11  and  C_12
REMARK    7  A    between atoms: C_12  and  C_13
REMARK    8  A    between atoms: C_13  and  O_14
REMARK    9  A    between atoms: O_14  and  C_15
REMARK                            x       y       z     vdW  Elec       q    Type
REMARK                         _______ _______ _______ _____ _____    ______ ____
ROOT
ATOM      1  N   UNL     1       5.977   4.297  17.618  0.00  0.00    +0.000 NA
ATOM      2  C   UNL     1       7.105   4.554  16.706  0.00  0.00    +0.000 C 
ATOM      3  C   UNL     1       7.112   5.950  16.037  0.00  0.00    +0.000 C 
ATOM      4  N   UNL     1       6.889   7.117  16.917  0.00  0.00    +0.000 NA
ATOM      5  C   UNL     1       5.897   6.834  17.968  0.00  0.00    +0.000 C 
ATOM      6  C   UNL     1       5.955   5.418  18.593  0.00  0.00    +0.000 C 
ENDROOT
BRANCH   1   7
ATOM      7  C   UNL     1       4.678   4.202  16.929  0.00  0.00    +0.000 C 
BRANCH   7  10
ATOM      8  N   UNL     1       1.997   2.991  19.109  0.00  0.00    +0.000 N 
ATOM      9  C   UNL     1       2.600   4.014  18.434  0.00  0.00    +0.000 A 
ATOM     10  C   UNL     1       3.621   3.461  17.692  0.00  0.00    +0.000 A 
ATOM     11  C   UNL     1       3.497   2.071  17.945  0.00  0.00    +0.000 A 
ATOM     12  N   UNL     1       2.517   1.787  18.812  0.00  0.00    +0.000 NA
BRANCH   8  13
ATOM     13  C   UNL     1       0.946   3.120  20.100  0.00  0.00    +0.000 C 
BRANCH  13  14
ATOM     14  C   UNL     1       1.493   3.401  21.494  0.00  0.00    +0.000 C 
BRANCH  14  15
ATOM     15  O   UNL     1       2.130   2.232  22.010  0.00  0.00    +0.000 OA
ATOM     16  H   UNL     1       2.330   1.657  21.250  0.00  0.00    +0.000 HD
ENDBRANCH  14  15
ENDBRANCH  13  14
ENDBRANCH   8  13
ENDBRANCH   7  10
ENDBRANCH   1   7
BRANCH   4  17
ATOM     17  C   UNL     1       8.125   7.703  17.457  0.00  0.00    +0.000 C 
BRANCH  17  18
ATOM     18  C   UNL     1       7.898   9.117  18.021  0.00  0.00    +0.000 C 
BRANCH  18  19
ATOM     19  O   UNL     1       8.913  10.008  17.559  0.00  0.00    +0.000 OA
BRANCH  19  20
ATOM     20  C   UNL     1       9.547  10.725  18.545  0.00  0.00    +0.000 A 
ATOM     21  C   UNL     1       8.988  10.573  19.818  0.00  0.00    +0.000 A 
ATOM     22  C   UNL     1       9.530  11.243  20.916  0.00  0.00    +0.000 A 
ATOM     23  C   UNL     1      10.640  12.071  20.758  0.00  0.00    +0.000 A 
ATOM     24  C   UNL     1      11.208  12.226  19.494  0.00  0.00    +0.000 A 
ATOM     25  C   UNL     1      10.662  11.562  18.400  0.00  0.00    +0.000 A 
ATOM     26  F   UNL     1      11.253  11.763  17.214  0.00  0.00    +0.000 F 
ENDBRANCH  19  20
ENDBRANCH  18  19
ENDBRANCH  17  18
ENDBRANCH   4  17
TORSDOF 9
ENDMDL
MODEL 4
REMARK VINA RESULT:      -6.5      3.008      9.277
REMARK  Name = 
REMARK  9 active torsions:
REMARK  status: ('A' for Active; 'I' for Inactive)
REMARK    1  A    between atoms: O_1  and  C_2
REMARK    2  A    between atoms: C_2  and  C_3
REMARK    3  A    between atoms: C_3  and  N_4
REMARK    4  A    between atoms: C_6  and  C_7
REMARK    5  A    between atoms: C_7  and  N_8
REMARK    6  A    between atoms: N_11  and  C_12
REMARK    7  A    between atoms: C_12  and  C_13
REMARK    8  A    between atoms: C_13  and  O_14
REMARK    9  A    between atoms: O_14  and  C_15
REMARK                            x       y       z     vdW  Elec       q    Type
REMARK                         _______ _______ _______ _____ _____    ______ ____
ROOT
ATOM      1  N   UNL     1       6.676   7.015  17.990  0.00  0.00    +0.000 NA
ATOM      2  C   UNL     1       5.357   6.871  17.351  0.00  0.00    +0.000 C 
ATOM      3  C   UNL     1       5.337   6.032  16.051  0.00  0.00    +0.000 C 
ATOM      4  N   UNL     1       6.036   4.729  16.082  0.00  0.00    +0.000 NA
ATOM      5  C   UNL     1       7.275   4.786  16.877  0.00  0.00    +0.000 C 
ATOM      6  C   UNL     1       7.215   5.642  18.167  0.00  0.00    +0.000 C 
ENDROOT
BRANCH   1   7
ATOM      7  C   UNL     1       7.620   7.830  17.205  0.00  0.00    +0.000 C 
BRANCH   7  10
ATOM      8  N   UNL     1       9.218  10.886  18.436  0.00  0.00    +0.000 N 
ATOM      9  C   UNL     1       8.460  10.243  17.498  0.00  0.00    +0.000 A 
ATOM     10  C   UNL     1       8.243   8.964  17.962  0.00  0.00    +0.000 A 
ATOM     11  C   UNL     1       8.865   8.965  19.237  0.00  0.00    +0.000 A 
ATOM     12  N   UNL     1       9.463  10.130  19.520  0.00  0.00    +0.000 NA
BRANCH   8  13
ATOM     13  C   UNL     1       9.783  12.216  18.317  0.00  0.00    +0.000 C 
BRANCH  13  14
ATOM     14  C   UNL     1      11.292  12.227  18.523  0.00  0.00    +0.000 C 
BRANCH  14  15
ATOM     15  O   UNL     1      11.950  11.860  17.310  0.00  0.00    +0.000 OA
ATOM     16  H   UNL     1      11.718  12.531  16.644  0.00  0.00    +0.000 HD
ENDBRANCH  14  15
ENDBRANCH  13  14
ENDBRANCH   8  13
ENDBRANCH   7  10
ENDBRANCH   1   7
BRANCH   4  17
ATOM     17  C   UNL     1       5.177   3.599  16.466  0.00  0.00    +0.000 C 
BRANCH  17  18
ATOM     18  C   UNL     1       3.806   4.065  16.987  0.00  0.00    +0.000 C 
BRANCH  18  19
ATOM     19  O   UNL     1       3.029   2.948  17.419  0.00  0.00    +0.000 OA
BRANCH  19  20
ATOM     20  C   UNL     1       2.617   3.000  18.729  0.00  0.00    +0.000 A 
ATOM     21  C   UNL     1       1.327   3.511  18.907  0.00  0.00    +0.000 A 
ATOM     22  C   UNL     1       0.777   3.622  20.185  0.00  0.00    +0.000 A 
ATOM     23  C   UNL     1       1.508   3.221  21.303  0.00  0.00    +0.000 A 
ATOM     24  C   UNL     1       2.793   2.708  21.137  0.00  0.00    +0.000 A 
ATOM     25  C   UNL     1       3.341   2.604  19.862  0.00  0.00    +0.000 A 
ATOM     26  F   UNL     1       4.584   2.109  19.777  0.00  0.00    +0.000 F 
ENDBRANCH  19  20
ENDBRANCH  18  19
ENDBRANCH  17  18
ENDBRANCH   4  17
TORSDOF 9
ENDMDL
MODEL 5
REMARK VINA RESULT:      -6.4      5.315      7.874
REMARK  Name = 
REMARK  9 active torsions:
REMARK  status: ('A' for Active; 'I' for Inactive)
REMARK    1  A    between atoms: O_1  and  C_2
REMARK    2  A    between atoms: C_2  and  C_3
REMARK    3  A    between atoms: C_3  and  N_4
REMARK    4  A    between atoms: C_6  and  C_7
REMARK    5  A    between atoms: C_7  and  N_8
REMARK    6  A    between atoms: N_11  and  C_12
REMARK    7  A    between atoms: C_12  and  C_13
REMARK    8  A    between atoms: C_13  and  O_14
REMARK    9  A    between atoms: O_14  and  C_15
REMARK                            x       y       z     vdW  Elec       q    Type
REMARK                         _______ _______ _______ _____ _____    ______ ____
ROOT
ATOM      1  N   UNL     1       3.345   4.771  17.194  0.00  0.00    +0.000 NA
ATOM      2  C   UNL     1       2.298   4.040  17.928  0.00  0.00    +0.000 C 
ATOM      3  C   UNL     1       2.457   4.022  19.468  0.00  0.00    +0.000 C 
ATOM      4  N   UNL     1       2.738   5.315  20.128  0.00  0.00    +0.000 NA
ATOM      5  C   UNL     1       3.639   6.159  19.327  0.00  0.00    +0.000 C 
ATOM      6  C   UNL     1       3.417   6.128  17.794  0.00  0.00    +0.000 C 
ENDROOT
BRANCH   1   7
ATOM      7  C   UNL     1       4.666   4.121  17.258  0.00  0.00    +0.000 C 
BRANCH   7  10
ATOM      8  N   UNL     1       6.571   4.316  14.137  0.00  0.00    +0.000 N 
ATOM      9  C   UNL     1       5.441   3.949  14.811  0.00  0.00    +0.000 A 
ATOM     10  C   UNL     1       5.567   4.426  16.098  0.00  0.00    +0.000 A 
ATOM     11  C   UNL     1       6.795   5.132  16.070  0.00  0.00    +0.000 A 
ATOM     12  N   UNL     1       7.409   5.059  14.881  0.00  0.00    +0.000 NA
BRANCH   8  13
ATOM     13  C   UNL     1       6.925   3.931  12.784  0.00  0.00    +0.000 C 
BRANCH  13  14
ATOM     14  C   UNL     1       5.769   3.269  12.046  0.00  0.00    +0.000 C 
BRANCH  14  15
ATOM     15  O   UNL     1       6.063   1.890  11.822  0.00  0.00    +0.000 OA
ATOM     16  H   UNL     1       6.328   1.802  10.889  0.00  0.00    +0.000 HD
ENDBRANCH  14  15
ENDBRANCH  13  14
ENDBRANCH   8  13
ENDBRANCH   7  10
ENDBRANCH   1   7
BRANCH   4  17
ATOM     17  C   UNL     1       1.533   6.038  20.563  0.00  0.00    +0.000 C 
BRANCH  17  18
ATOM     18  C   UNL     1       1.844   7.488  20.973  0.00  0.00    +0.000 C 
BRANCH  18  19
ATOM     19  O   UNL     1       1.032   8.401  20.235  0.00  0.00    +0.000 OA
BRANCH  19  20
ATOM     20  C   UNL     1       0.434   9.384  20.986  0.00  0.00    +0.000 A 
ATOM     21  C   UNL     1      -0.005   8.960  22.245  0.00  0.00    +0.000 A 
ATOM     22  C   UNL     1      -0.632   9.852  23.116  0.00  0.00    +0.000 A 
ATOM     23  C   UNL     1      -0.825  11.181  22.743  0.00  0.00    +0.000 A 
ATOM     24  C   UNL     1      -0.388  11.615  21.492  0.00  0.00    +0.000 A 
ATOM     25  C   UNL     1       0.231  10.722  20.624  0.00  0.00    +0.000 A 
ATOM     26  F   UNL     1       0.619  11.206  19.435  0.00  0.00    +0.000 F 
ENDBRANCH  19  20
ENDBRANCH  18  19
ENDBRANCH  17  18
ENDBRANCH   4  17
TORSDOF 9
ENDMDL
MODEL 6
REMARK VINA RESULT:      -6.4      4.706      8.561
REMARK  Name = 
REMARK  9 active torsions:
REMARK  status: ('A' for Active; 'I' for Inactive)
REMARK    1  A    between atoms: O_1  and  C_2
REMARK    2  A    between atoms: C_2  and  C_3
REMARK    3  A    between atoms: C_3  and  N_4
REMARK    4  A    between atoms: C_6  and  C_7
REMARK    5  A    between atoms: C_7  and  N_8
REMARK    6  A    between atoms: N_11  and  C_12
REMARK    7  A    between atoms: C_12  and  C_13
REMARK    8  A    between atoms: C_13  and  O_14
REMARK    9  A    between atoms: O_14  and  C_15
REMARK                            x       y       z     vdW  Elec       q    Type
REMARK                         _______ _______ _______ _____ _____    ______ ____
ROOT
ATOM      1  N   UNL     1       6.791   4.195  16.251  0.00  0.00    +0.000 NA
ATOM      2  C   UNL     1       7.230   4.637  17.586  0.00  0.00    +0.000 C 
ATOM      3  C   UNL     1       6.573   5.939  18.104  0.00  0.00    +0.000 C 
ATOM      4  N   UNL     1       5.102   6.039  17.990  0.00  0.00    +0.000 NA
ATOM      5  C   UNL     1       4.603   5.433  16.744  0.00  0.00    +0.000 C 
ATOM      6  C   UNL     1       5.308   4.130  16.292  0.00  0.00    +0.000 C 
ENDROOT
BRANCH   1   7
ATOM      7  C   UNL     1       7.227   5.092  15.166  0.00  0.00    +0.000 C 
BRANCH   7  10
ATOM      8  N   UNL     1       6.062   3.418  12.125  0.00  0.00    +0.000 N 
ATOM      9  C   UNL     1       5.892   3.722  13.446  0.00  0.00    +0.000 A 
ATOM     10  C   UNL     1       6.889   4.610  13.787  0.00  0.00    +0.000 A 
ATOM     11  C   UNL     1       7.570   4.828  12.563  0.00  0.00    +0.000 A 
ATOM     12  N   UNL     1       7.072   4.097  11.556  0.00  0.00    +0.000 NA
BRANCH   8  13
ATOM     13  C   UNL     1       5.312   2.434  11.369  0.00  0.00    +0.000 C 
BRANCH  13  14
ATOM     14  C   UNL     1       6.079   1.131  11.188  0.00  0.00    +0.000 C 
BRANCH  14  15
ATOM     15  O   UNL     1       7.482   1.376  11.287  0.00  0.00    +0.000 OA
ATOM     16  H   UNL     1       7.787   0.963  12.113  0.00  0.00    +0.000 HD
ENDBRANCH  14  15
ENDBRANCH  13  14
ENDBRANCH   8  13
ENDBRANCH   7  10
ENDBRANCH   1   7
BRANCH   4  17
ATOM     17  C   UNL     1       4.376   5.559  19.175  0.00  0.00    +0.000 C 
BRANCH  17  18
ATOM     18  C   UNL     1       5.078   4.360  19.837  0.00  0.00    +0.000 C 
BRANCH  18  19
ATOM     19  O   UNL     1       4.535   3.133  19.350  0.00  0.00    +0.000 OA
BRANCH  19  20
ATOM     20  C   UNL     1       3.175   3.002  19.494  0.00  0.00    +0.000 A 
ATOM     21  C   UNL     1       2.721   3.127  20.811  0.00  0.00    +0.000 A 
ATOM     22  C   UNL     1       1.361   3.016  21.107  0.00  0.00    +0.000 A 
ATOM     23  C   UNL     1       0.437   2.781  20.090  0.00  0.00    +0.000 A 
ATOM     24  C   UNL     1       0.879   2.658  18.773  0.00  0.00    +0.000 A 
ATOM     25  C   UNL     1       2.235   2.763  18.483  0.00  0.00    +0.000 A 
ATOM     26  F   UNL     1       2.590   2.626  17.197  0.00  0.00    +0.000 F 
ENDBRANCH  19  20
ENDBRANCH  18  19
ENDBRANCH  17  18
ENDBRANCH   4  17
TORSDOF 9
ENDMDL
MODEL 7
REMARK VINA RESULT:      -6.4      1.641      2.035
REMARK  Name = 
REMARK  9 active torsions:
REMARK  status: ('A' for Active; 'I' for Inactive)
REMARK    1  A    between atoms: O_1  and  C_2
REMARK    2  A    between atoms: C_2  and  C_3
REMARK    3  A    between atoms: C_3  and  N_4
REMARK    4  A    between atoms: C_6  and  C_7
REMARK    5  A    between atoms: C_7  and  N_8
REMARK    6  A    between atoms: N_11  and  C_12
REMARK    7  A    between atoms: C_12  and  C_13
REMARK    8  A    between atoms: C_13  and  O_14
REMARK    9  A    between atoms: O_14  and  C_15
REMARK                            x       y       z     vdW  Elec       q    Type
REMARK                         _______ _______ _______ _____ _____    ______ ____
ROOT
ATOM      1  N   UNL     1       5.029   5.041  16.158  0.00  0.00    +0.000 NA
ATOM      2  C   UNL     1       4.676   6.319  16.798  0.00  0.00    +0.000 C 
ATOM      3  C   UNL     1       5.604   6.761  17.956  0.00  0.00    +0.000 C 
ATOM      4  N   UNL     1       7.061   6.696  17.709  0.00  0.00    +0.000 NA
ATOM      5  C   UNL     1       7.433   5.521  16.903  0.00  0.00    +0.000 C 
ATOM      6  C   UNL     1       6.456   5.144  15.761  0.00  0.00    +0.000 C 
ENDROOT
BRANCH   1   7
ATOM      7  C   UNL     1       4.833   3.874  17.036  0.00  0.00    +0.000 C 
BRANCH   7  10
ATOM      8  N   UNL     1       1.870   3.593  19.170  0.00  0.00    +0.000 N 
ATOM      9  C   UNL     1       3.186   3.927  19.011  0.00  0.00    +0.000 A 
ATOM     10  C   UNL     1       3.477   3.793  17.671  0.00  0.00    +0.000 A 
ATOM     11  C   UNL     1       2.231   3.436  17.097  0.00  0.00    +0.000 A 
ATOM     12  N   UNL     1       1.258   3.306  18.008  0.00  0.00    +0.000 NA
BRANCH   8  13
ATOM     13  C   UNL     1       1.162   3.478  20.430  0.00  0.00    +0.000 C 
BRANCH  13  14
ATOM     14  C   UNL     1       2.073   3.690  21.632  0.00  0.00    +0.000 C 
BRANCH  14  15
ATOM     15  O   UNL     1       2.534   2.430  22.119  0.00  0.00    +0.000 OA
ATOM     16  H   UNL     1       3.261   2.612  22.740  0.00  0.00    +0.000 HD
ENDBRANCH  14  15
ENDBRANCH  13  14
ENDBRANCH   8  13
ENDBRANCH   7  10
ENDBRANCH   1   7
BRANCH   4  17
ATOM     17  C   UNL     1       7.633   7.943  17.177  0.00  0.00    +0.000 C 
BRANCH  17  18
ATOM     18  C   UNL     1       8.161   8.860  18.295  0.00  0.00    +0.000 C 
BRANCH  18  19
ATOM     19  O   UNL     1       9.008   9.872  17.751  0.00  0.00    +0.000 OA
BRANCH  19  20
ATOM     20  C   UNL     1       9.209  10.960  18.566  0.00  0.00    +0.000 A 
ATOM     21  C   UNL     1       9.723  10.647  19.829  0.00  0.00    +0.000 A 
ATOM     22  C   UNL     1       9.977  11.654  20.762  0.00  0.00    +0.000 A 
ATOM     23  C   UNL     1       9.722  12.988  20.445  0.00  0.00    +0.000 A 
ATOM     24  C   UNL     1       9.212  13.311  19.188  0.00  0.00    +0.000 A 
ATOM     25  C   UNL     1       8.955  12.305  18.263  0.00  0.00    +0.000 A 
ATOM     26  F   UNL     1       8.457  12.687  17.077  0.00  0.00    +0.000 F 
ENDBRANCH  19  20
ENDBRANCH  18  19
ENDBRANCH  17  18
ENDBRANCH   4  17
TORSDOF 9
ENDMDL
MODEL 8
REMARK VINA RESULT:      -6.3      4.934      7.658
REMARK  Name = 
REMARK  9 active torsions:
REMARK  status: ('A' for Active; 'I' for Inactive)
REMARK    1  A    between atoms: O_1  and  C_2
REMARK    2  A    between atoms: C_2  and  C_3
REMARK    3  A    between atoms: C_3  and  N_4
REMARK    4  A    between atoms: C_6  and  C_7
REMARK    5  A    between atoms: C_7  and  N_8
REMARK    6  A    between atoms: N_11  and  C_12
REMARK    7  A    between atoms: C_12  and  C_13
REMARK    8  A    between atoms: C_13  and  O_14
REMARK    9  A    between atoms: O_14  and  C_15
REMARK                            x       y       z     vdW  Elec       q    Type
REMARK                         _______ _______ _______ _____ _____    ______ ____
ROOT
ATOM      1  N   UNL     1       3.998   5.140  17.523  0.00  0.00    +0.000 NA
ATOM      2  C   UNL     1       2.543   5.052  17.743  0.00  0.00    +0.000 C 
ATOM      3  C   UNL     1       2.082   3.908  18.679  0.00  0.00    +0.000 C 
ATOM      4  N   UNL     1       2.805   3.757  19.960  0.00  0.00    +0.000 NA
ATOM      5  C   UNL     1       4.246   4.024  19.816  0.00  0.00    +0.000 C 
ATOM      6  C   UNL     1       4.629   5.186  18.866  0.00  0.00    +0.000 C 
ENDROOT
BRANCH   1   7
ATOM      7  C   UNL     1       4.540   4.009  16.749  0.00  0.00    +0.000 C 
BRANCH   7  10
ATOM      8  N   UNL     1       6.701   4.444  13.825  0.00  0.00    +0.000 N 
ATOM      9  C   UNL     1       5.509   4.051  14.367  0.00  0.00    +0.000 A 
ATOM     10  C   UNL     1       5.541   4.395  15.701  0.00  0.00    +0.000 A 
ATOM     11  C   UNL     1       6.785   5.059  15.842  0.00  0.00    +0.000 A 
ATOM     12  N   UNL     1       7.493   5.081  14.704  0.00  0.00    +0.000 NA
BRANCH   8  13
ATOM     13  C   UNL     1       7.155   4.182  12.473  0.00  0.00    +0.000 C 
BRANCH  13  14
ATOM     14  C   UNL     1       6.291   3.151  11.758  0.00  0.00    +0.000 C 
BRANCH  14  15
ATOM     15  O   UNL     1       7.045   1.961  11.528  0.00  0.00    +0.000 OA
ATOM     16  H   UNL     1       7.198   1.901  10.568  0.00  0.00    +0.000 HD
ENDBRANCH  14  15
ENDBRANCH  13  14
ENDBRANCH   8  13
ENDBRANCH   7  10
ENDBRANCH   1   7
BRANCH   4  17
ATOM     17  C   UNL     1       2.206   4.504  21.077  0.00  0.00    +0.000 C 
BRANCH  17  18
ATOM     18  C   UNL     1       1.391   5.716  20.591  0.00  0.00    +0.000 C 
BRANCH  18  19
ATOM     19  O   UNL     1       2.167   6.910  20.685  0.00  0.00    +0.000 OA
BRANCH  19  20
ATOM     20  C   UNL     1       1.491   8.067  20.381  0.00  0.00    +0.000 A 
ATOM     21  C   UNL     1       0.705   8.566  21.425  0.00  0.00    +0.000 A 
ATOM     22  C   UNL     1      -0.039   9.735  21.258  0.00  0.00    +0.000 A 
ATOM     23  C   UNL     1      -0.005  10.424  20.047  0.00  0.00    +0.000 A 
ATOM     24  C   UNL     1       0.778   9.937  19.001  0.00  0.00    +0.000 A 
ATOM     25  C   UNL     1       1.513   8.768  19.168  0.00  0.00    +0.000 A 
ATOM     26  F   UNL     1       2.237   8.354  18.118  0.00  0.00    +0.000 F 
ENDBRANCH  19  20
ENDBRANCH  18  19
ENDBRANCH  17  18
ENDBRANCH   4  17
TORSDOF 9
ENDMDL
MODEL 9
REMARK VINA RESULT:      -6.3      1.219      1.710
REMARK  Name = 
REMARK  9 active torsions:
REMARK  status: ('A' for Active; 'I' for Inactive)
REMARK    1  A    between atoms: O_1  and  C_2
REMARK    2  A    between atoms: C_2  and  C_3
REMARK    3  A    between atoms: C_3  and  N_4
REMARK    4  A    between atoms: C_6  and  C_7
REMARK    5  A    between atoms: C_7  and  N_8
REMARK    6  A    between atoms: N_11  and  C_12
REMARK    7  A    between atoms: C_12  and  C_13
REMARK    8  A    between atoms: C_13  and  O_14
REMARK    9  A    between atoms: O_14  and  C_15
REMARK                            x       y       z     vdW  Elec       q    Type
REMARK                         _______ _______ _______ _____ _____    ______ ____
ROOT
ATOM      1  N   UNL     1       6.034   4.135  17.021  0.00  0.00    +0.000 NA
ATOM      2  C   UNL     1       6.971   4.727  16.049  0.00  0.00    +0.000 C 
ATOM      3  C   UNL     1       6.837   6.255  15.845  0.00  0.00    +0.000 C 
ATOM      4  N   UNL     1       6.767   7.091  17.063  0.00  0.00    +0.000 NA
ATOM      5  C   UNL     1       5.990   6.443  18.133  0.00  0.00    +0.000 C 
ATOM      6  C   UNL     1       6.179   4.912  18.278  0.00  0.00    +0.000 C 
ENDROOT
BRANCH   1   7
ATOM      7  C   UNL     1       4.631   4.162  16.570  0.00  0.00    +0.000 C 
BRANCH   7  10
ATOM      8  N   UNL     1       2.287   3.099  19.174  0.00  0.00    +0.000 N 
ATOM      9  C   UNL     1       3.419   2.880  18.442  0.00  0.00    +0.000 A 
ATOM     10  C   UNL     1       3.622   4.001  17.667  0.00  0.00    +0.000 A 
ATOM     11  C   UNL     1       2.578   4.872  18.068  0.00  0.00    +0.000 A 
ATOM     12  N   UNL     1       1.763   4.321  18.977  0.00  0.00    +0.000 NA
BRANCH   8  13
ATOM     13  C   UNL     1       1.629   2.142  20.043  0.00  0.00    +0.000 C 
BRANCH  13  14
ATOM     14  C   UNL     1       1.173   2.765  21.356  0.00  0.00    +0.000 C 
BRANCH  14  15
ATOM     15  O   UNL     1       2.305   3.239  22.086  0.00  0.00    +0.000 OA
ATOM     16  H   UNL     1       2.902   3.662  21.445  0.00  0.00    +0.000 HD
ENDBRANCH  14  15
ENDBRANCH  13  14
ENDBRANCH   8  13
ENDBRANCH   7  10
ENDBRANCH   1   7
BRANCH   4  17
ATOM     17  C   UNL     1       8.074   7.573  17.534  0.00  0.00    +0.000 C 
BRANCH  17  18
ATOM     18  C   UNL     1       8.014   9.033  18.018  0.00  0.00    +0.000 C 
BRANCH  18  19
ATOM     19  O   UNL     1       9.010   9.271  19.012  0.00  0.00    +0.000 OA
BRANCH  19  20
ATOM     20  C   UNL     1       9.430  10.576  19.110  0.00  0.00    +0.000 A 
ATOM     21  C   UNL     1       9.849  11.139  17.899  0.00  0.00    +0.000 A 
ATOM     22  C   UNL     1      10.302  12.458  17.849  0.00  0.00    +0.000 A 
ATOM     23  C   UNL     1      10.342  13.234  19.007  0.00  0.00    +0.000 A 
ATOM     24  C   UNL     1       9.924  12.683  20.218  0.00  0.00    +0.000 A 
ATOM     25  C   UNL     1       9.478  11.366  20.266  0.00  0.00    +0.000 A 
ATOM     26  F   UNL     1       9.099  10.900  21.465  0.00  0.00    +0.000 F 
ENDBRANCH  19  20
ENDBRANCH  18  19
ENDBRANCH  17  18
ENDBRANCH   4  17
TORSDOF 9
ENDMDL
