MODEL 1
REMARK VINA RESULT:      -8.9      0.000      0.000
REMARK  Name = 
REMARK  8 active torsions:
REMARK  status: ('A' for Active; 'I' for Inactive)
REMARK    1  A    between atoms: C_1  and  O_2
REMARK    2  A    between atoms: O_2  and  C_3
REMARK    3  A    between atoms: C_6  and  C_7
REMARK    4  A    between atoms: C_12  and  C_13
REMARK    5  A    between atoms: C_16  and  O_17
REMARK    6  A    between atoms: O_17  and  C_18
REMARK    7  A    between atoms: C_28  and  O_29
REMARK    8  A    between atoms: O_29  and  C_30
REMARK                            x       y       z     vdW  Elec       q    Type
REMARK                         _______ _______ _______ _____ _____    ______ ____
ROOT
ATOM      1  C   UNL     1       3.514   5.439  18.301  0.00  0.00    +0.000 C 
ATOM      2  C   UNL     1       3.726   4.672  19.609  0.00  0.00    +0.000 C 
ATOM      3  C   UNL     1       2.558   4.872  20.546  0.00  0.00    +0.000 C 
ATOM      4  O   UNL     1       2.221   4.014  21.359  0.00  0.00    +0.000 OA
ATOM      5  C   UNL     1       1.852   6.176  20.538  0.00  0.00    +0.000 C 
ATOM      6  C   UNL     1       2.185   7.121  19.645  0.00  0.00    +0.000 C 
ATOM      7  C   UNL     1       3.230   6.934  18.576  0.00  0.00    +0.000 C 
ENDROOT
BRANCH   1  11
ATOM      8  C   UNL     1       6.738   5.073  15.425  0.00  0.00    +0.000 A 
ATOM      9  C   UNL     1       5.700   4.130  15.468  0.00  0.00    +0.000 A 
ATOM     10  C   UNL     1       4.665   4.242  16.400  0.00  0.00    +0.000 A 
ATOM     11  C   UNL     1       4.676   5.267  17.345  0.00  0.00    +0.000 A 
ATOM     12  C   UNL     1       5.775   6.135  17.365  0.00  0.00    +0.000 A 
ATOM     13  C   UNL     1       6.806   6.059  16.417  0.00  0.00    +0.000 A 
BRANCH   8  15
ATOM     14  C   UNL     1       7.215   4.709  13.137  0.00  0.00    +0.000 C 
ATOM     15  O   UNL     1       7.696   5.021  14.446  0.00  0.00    +0.000 OA
ENDBRANCH   8  15
BRANCH  13  16
ATOM     16  O   UNL     1       7.746   7.033  16.615  0.00  0.00    +0.000 OA
ATOM     17  C   UNL     1       7.600   7.926  17.708  0.00  0.00    +0.000 C 
ENDBRANCH  13  16
ENDBRANCH   1  11
BRANCH   6  18
ATOM     18  C   UNL     1       1.478   8.407  19.670  0.00  0.00    +0.000 A 
ATOM     19  C   UNL     1       0.727   8.787  20.788  0.00  0.00    +0.000 A 
ATOM     20  C   UNL     1       0.062  10.016  20.802  0.00  0.00    +0.000 A 
ATOM     21  C   UNL     1       0.149  10.873  19.700  0.00  0.00    +0.000 A 
ATOM     22  C   UNL     1       0.844  10.467  18.563  0.00  0.00    +0.000 A 
ATOM     23  C   UNL     1       1.531   9.251  18.557  0.00  0.00    +0.000 A 
BRANCH  21  24
ATOM     24  O   UNL     1      -0.545  12.060  19.808  0.00  0.00    +0.000 OA
BRANCH  24  25
ATOM     25  C   UNL     1      -1.908  12.081  19.602  0.00  0.00    +0.000 A 
ATOM     26  C   UNL     1      -2.660  12.749  20.573  0.00  0.00    +0.000 A 
ATOM     27  C   UNL     1      -4.049  12.828  20.455  0.00  0.00    +0.000 A 
ATOM     28  C   UNL     1      -4.689  12.239  19.366  0.00  0.00    +0.000 A 
ATOM     29  C   UNL     1      -3.940  11.603  18.378  0.00  0.00    +0.000 A 
ATOM     30  C   UNL     1      -2.549  11.549  18.481  0.00  0.00    +0.000 A 
ENDBRANCH  24  25
ENDBRANCH  21  24
ENDBRANCH   6  18
TORSDOF 6
ENDMDL
MODEL 2
REMARK VINA RESULT:      -8.8      1.193      1.496
REMARK  Name = 
REMARK  8 active torsions:
REMARK  status: ('A' for Active; 'I' for Inactive)
REMARK    1  A    between atoms: C_1  and  O_2
REMARK    2  A    between atoms: O_2  and  C_3
REMARK    3  A    between atoms: C_6  and  C_7
REMARK    4  A    between atoms: C_12  and  C_13
REMARK    5  A    between atoms: C_16  and  O_17
REMARK    6  A    between atoms: O_17  and  C_18
REMARK    7  A    between atoms: C_28  and  O_29
REMARK    8  A    between atoms: O_29  and  C_30
REMARK                            x       y       z     vdW  Elec       q    Type
REMARK                         _______ _______ _______ _____ _____    ______ ____
ROOT
ATOM      1  C   UNL     1       3.039   5.315  18.511  0.00  0.00    +0.000 C 
ATOM      2  C   UNL     1       2.921   4.174  19.524  0.00  0.00    +0.000 C 
ATOM      3  C   UNL     1       1.691   4.341  20.385  0.00  0.00    +0.000 C 
ATOM      4  O   UNL     1       1.092   3.380  20.859  0.00  0.00    +0.000 OA
ATOM      5  C   UNL     1       1.246   5.713  20.732  0.00  0.00    +0.000 C 
ATOM      6  C   UNL     1       1.869   6.781  20.210  0.00  0.00    +0.000 C 
ATOM      7  C   UNL     1       3.000   6.690  19.219  0.00  0.00    +0.000 C 
ENDROOT
BRANCH   1  11
ATOM      8  C   UNL     1       6.452   5.003  15.855  0.00  0.00    +0.000 A 
ATOM      9  C   UNL     1       5.604   3.906  16.071  0.00  0.00    +0.000 A 
ATOM     10  C   UNL     1       4.509   4.003  16.934  0.00  0.00    +0.000 A 
ATOM     11  C   UNL     1       4.271   5.181  17.641  0.00  0.00    +0.000 A 
ATOM     12  C   UNL     1       5.188   6.230  17.504  0.00  0.00    +0.000 A 
ATOM     13  C   UNL     1       6.274   6.163  16.618  0.00  0.00    +0.000 A 
BRANCH   8  15
ATOM     14  C   UNL     1       7.043   4.801  13.574  0.00  0.00    +0.000 C 
ATOM     15  O   UNL     1       7.464   4.939  14.932  0.00  0.00    +0.000 OA
ENDBRANCH   8  15
BRANCH  13  16
ATOM     16  O   UNL     1       7.006   7.321  16.629  0.00  0.00    +0.000 OA
ATOM     17  C   UNL     1       7.786   7.637  17.771  0.00  0.00    +0.000 C 
ENDBRANCH  13  16
ENDBRANCH   1  11
BRANCH   6  18
ATOM     18  C   UNL     1       1.415   8.125  20.584  0.00  0.00    +0.000 A 
ATOM     19  C   UNL     1       1.032   8.409  21.899  0.00  0.00    +0.000 A 
ATOM     20  C   UNL     1       0.605   9.695  22.244  0.00  0.00    +0.000 A 
ATOM     21  C   UNL     1       0.565  10.704  21.277  0.00  0.00    +0.000 A 
ATOM     22  C   UNL     1       0.886  10.405  19.954  0.00  0.00    +0.000 A 
ATOM     23  C   UNL     1       1.337   9.128  19.613  0.00  0.00    +0.000 A 
BRANCH  21  24
ATOM     24  O   UNL     1       0.126  11.936  21.713  0.00  0.00    +0.000 OA
BRANCH  24  25
ATOM     25  C   UNL     1      -1.225  12.202  21.779  0.00  0.00    +0.000 A 
ATOM     26  C   UNL     1      -1.778  12.229  23.062  0.00  0.00    +0.000 A 
ATOM     27  C   UNL     1      -3.138  12.490  23.236  0.00  0.00    +0.000 A 
ATOM     28  C   UNL     1      -3.949  12.726  22.126  0.00  0.00    +0.000 A 
ATOM     29  C   UNL     1      -3.394  12.736  20.848  0.00  0.00    +0.000 A 
ATOM     30  C   UNL     1      -2.029  12.502  20.676  0.00  0.00    +0.000 A 
ENDBRANCH  24  25
ENDBRANCH  21  24
ENDBRANCH   6  18
TORSDOF 6
ENDMDL
MODEL 3
REMARK VINA RESULT:      -8.8      1.090      1.821
REMARK  Name = 
REMARK  8 active torsions:
REMARK  status: ('A' for Active; 'I' for Inactive)
REMARK    1  A    between atoms: C_1  and  O_2
REMARK    2  A    between atoms: O_2  and  C_3
REMARK    3  A    between atoms: C_6  and  C_7
REMARK    4  A    between atoms: C_12  and  C_13
REMARK    5  A    between atoms: C_16  and  O_17
REMARK    6  A    between atoms: O_17  and  C_18
REMARK    7  A    between atoms: C_28  and  O_29
REMARK    8  A    between atoms: O_29  and  C_30
REMARK                            x       y       z     vdW  Elec       q    Type
REMARK                         _______ _______ _______ _____ _____    ______ ____
ROOT
ATOM      1  C   UNL     1       3.215   5.358  18.451  0.00  0.00    +0.000 C 
ATOM      2  C   UNL     1       3.186   4.283  19.540  0.00  0.00    +0.000 C 
ATOM      3  C   UNL     1       1.974   4.447  20.427  0.00  0.00    +0.000 C 
ATOM      4  O   UNL     1       1.439   3.490  20.983  0.00  0.00    +0.000 OA
ATOM      5  C   UNL     1       1.467   5.815  20.697  0.00  0.00    +0.000 C 
ATOM      6  C   UNL     1       2.018   6.874  20.085  0.00  0.00    +0.000 C 
ATOM      7  C   UNL     1       3.124   6.773  19.067  0.00  0.00    +0.000 C 
ENDROOT
BRANCH   1  11
ATOM      8  C   UNL     1       6.577   5.084  15.726  0.00  0.00    +0.000 A 
ATOM      9  C   UNL     1       5.640   4.044  15.822  0.00  0.00    +0.000 A 
ATOM     10  C   UNL     1       4.561   4.127  16.707  0.00  0.00    +0.000 A 
ATOM     11  C   UNL     1       4.427   5.227  17.553  0.00  0.00    +0.000 A 
ATOM     12  C   UNL     1       5.429   6.205  17.528  0.00  0.00    +0.000 A 
ATOM     13  C   UNL     1       6.501   6.155  16.625  0.00  0.00    +0.000 A 
BRANCH   8  15
ATOM     14  C   UNL     1       7.144   4.806  13.448  0.00  0.00    +0.000 C 
ATOM     15  O   UNL     1       7.575   5.048  14.788  0.00  0.00    +0.000 OA
ENDBRANCH   8  15
BRANCH  13  16
ATOM     16  O   UNL     1       7.328   7.237  16.764  0.00  0.00    +0.000 OA
ATOM     17  C   UNL     1       7.866   7.540  18.041  0.00  0.00    +0.000 C 
ENDBRANCH  13  16
ENDBRANCH   1  11
BRANCH   6  18
ATOM     18  C   UNL     1       1.505   8.217  20.384  0.00  0.00    +0.000 A 
ATOM     19  C   UNL     1       1.383   9.176  19.373  0.00  0.00    +0.000 A 
ATOM     20  C   UNL     1       0.889  10.449  19.668  0.00  0.00    +0.000 A 
ATOM     21  C   UNL     1       0.508  10.768  20.976  0.00  0.00    +0.000 A 
ATOM     22  C   UNL     1       0.689   9.834  21.994  0.00  0.00    +0.000 A 
ATOM     23  C   UNL     1       1.158   8.552  21.696  0.00  0.00    +0.000 A 
BRANCH  21  24
ATOM     24  O   UNL     1       0.037  12.050  21.168  0.00  0.00    +0.000 OA
BRANCH  24  25
ATOM     25  C   UNL     1      -1.244  12.248  21.637  0.00  0.00    +0.000 A 
ATOM     26  C   UNL     1      -2.206  12.554  20.670  0.00  0.00    +0.000 A 
ATOM     27  C   UNL     1      -3.533  12.773  21.043  0.00  0.00    +0.000 A 
ATOM     28  C   UNL     1      -3.902  12.685  22.385  0.00  0.00    +0.000 A 
ATOM     29  C   UNL     1      -2.954  12.345  23.347  0.00  0.00    +0.000 A 
ATOM     30  C   UNL     1      -1.632  12.099  22.971  0.00  0.00    +0.000 A 
ENDBRANCH  24  25
ENDBRANCH  21  24
ENDBRANCH   6  18
TORSDOF 6
ENDMDL
MODEL 4
REMARK VINA RESULT:      -8.6      1.574      2.177
REMARK  Name = 
REMARK  8 active torsions:
REMARK  status: ('A' for Active; 'I' for Inactive)
REMARK    1  A    between atoms: C_1  and  O_2
REMARK    2  A    between atoms: O_2  and  C_3
REMARK    3  A    between atoms: C_6  and  C_7
REMARK    4  A    between atoms: C_12  and  C_13
REMARK    5  A    between atoms: C_16  and  O_17
REMARK    6  A    between atoms: O_17  and  C_18
REMARK    7  A    between atoms: C_28  and  O_29
REMARK    8  A    between atoms: O_29  and  C_30
REMARK                            x       y       z     vdW  Elec       q    Type
REMARK                         _______ _______ _______ _____ _____    ______ ____
ROOT
ATOM      1  C   UNL     1       3.533   5.156  18.300  0.00  0.00    +0.000 C 
ATOM      2  C   UNL     1       3.695   4.171  19.460  0.00  0.00    +0.000 C 
ATOM      3  C   UNL     1       2.525   4.263  20.412  0.00  0.00    +0.000 C 
ATOM      4  O   UNL     1       2.140   3.297  21.067  0.00  0.00    +0.000 OA
ATOM      5  C   UNL     1       1.877   5.581  20.620  0.00  0.00    +0.000 C 
ATOM      6  C   UNL     1       2.263   6.646  19.901  0.00  0.00    +0.000 C 
ATOM      7  C   UNL     1       3.311   6.594  18.821  0.00  0.00    +0.000 C 
ENDROOT
BRANCH   1  11
ATOM      8  C   UNL     1       6.758   5.107  15.402  0.00  0.00    +0.000 A 
ATOM      9  C   UNL     1       5.778   4.104  15.406  0.00  0.00    +0.000 A 
ATOM     10  C   UNL     1       4.743   4.113  16.345  0.00  0.00    +0.000 A 
ATOM     11  C   UNL     1       4.698   5.095  17.334  0.00  0.00    +0.000 A 
ATOM     12  C   UNL     1       5.744   6.025  17.389  0.00  0.00    +0.000 A 
ATOM     13  C   UNL     1       6.773   6.051  16.436  0.00  0.00    +0.000 A 
BRANCH   8  15
ATOM     14  C   UNL     1       7.266   4.776  13.116  0.00  0.00    +0.000 C 
ATOM     15  O   UNL     1       7.713   5.155  14.419  0.00  0.00    +0.000 OA
ENDBRANCH   8  15
BRANCH  13  16
ATOM     16  O   UNL     1       7.656   7.070  16.675  0.00  0.00    +0.000 OA
ATOM     17  C   UNL     1       7.880   7.494  18.010  0.00  0.00    +0.000 C 
ENDBRANCH  13  16
ENDBRANCH   1  11
BRANCH   6  18
ATOM     18  C   UNL     1       1.612   7.940  20.140  0.00  0.00    +0.000 A 
ATOM     19  C   UNL     1       1.062   8.244  21.390  0.00  0.00    +0.000 A 
ATOM     20  C   UNL     1       0.450   9.481  21.606  0.00  0.00    +0.000 A 
ATOM     21  C   UNL     1       0.389  10.423  20.575  0.00  0.00    +0.000 A 
ATOM     22  C   UNL     1       0.880  10.097  19.312  0.00  0.00    +0.000 A 
ATOM     23  C   UNL     1       1.516   8.872  19.102  0.00  0.00    +0.000 A 
BRANCH  21  24
ATOM     24  O   UNL     1      -0.239  11.612  20.884  0.00  0.00    +0.000 OA
BRANCH  24  25
ATOM     25  C   UNL     1       0.151  12.778  20.262  0.00  0.00    +0.000 A 
ATOM     26  C   UNL     1       1.368  13.317  20.688  0.00  0.00    +0.000 A 
ATOM     27  C   UNL     1       1.852  14.497  20.119  0.00  0.00    +0.000 A 
ATOM     28  C   UNL     1       1.121  15.140  19.122  0.00  0.00    +0.000 A 
ATOM     29  C   UNL     1      -0.076  14.586  18.669  0.00  0.00    +0.000 A 
ATOM     30  C   UNL     1      -0.546  13.392  19.218  0.00  0.00    +0.000 A 
ENDBRANCH  24  25
ENDBRANCH  21  24
ENDBRANCH   6  18
TORSDOF 6
ENDMDL
MODEL 5
REMARK VINA RESULT:      -8.6      1.625      2.472
REMARK  Name = 
REMARK  8 active torsions:
REMARK  status: ('A' for Active; 'I' for Inactive)
REMARK    1  A    between atoms: C_1  and  O_2
REMARK    2  A    between atoms: O_2  and  C_3
REMARK    3  A    between atoms: C_6  and  C_7
REMARK    4  A    between atoms: C_12  and  C_13
REMARK    5  A    between atoms: C_16  and  O_17
REMARK    6  A    between atoms: O_17  and  C_18
REMARK    7  A    between atoms: C_28  and  O_29
REMARK    8  A    between atoms: O_29  and  C_30
REMARK                            x       y       z     vdW  Elec       q    Type
REMARK                         _______ _______ _______ _____ _____    ______ ____
ROOT
ATOM      1  C   UNL     1       3.621   5.095  18.203  0.00  0.00    +0.000 C 
ATOM      2  C   UNL     1       3.823   4.139  19.381  0.00  0.00    +0.000 C 
ATOM      3  C   UNL     1       2.663   4.219  20.346  0.00  0.00    +0.000 C 
ATOM      4  O   UNL     1       2.313   3.257  21.025  0.00  0.00    +0.000 OA
ATOM      5  C   UNL     1       1.981   5.523  20.535  0.00  0.00    +0.000 C 
ATOM      6  C   UNL     1       2.328   6.583  19.789  0.00  0.00    +0.000 C 
ATOM      7  C   UNL     1       3.365   6.537  18.697  0.00  0.00    +0.000 C 
ENDROOT
BRANCH   1  11
ATOM      8  C   UNL     1       6.815   5.083  15.271  0.00  0.00    +0.000 A 
ATOM      9  C   UNL     1       5.833   4.080  15.272  0.00  0.00    +0.000 A 
ATOM     10  C   UNL     1       4.809   4.078  16.222  0.00  0.00    +0.000 A 
ATOM     11  C   UNL     1       4.775   5.046  17.224  0.00  0.00    +0.000 A 
ATOM     12  C   UNL     1       5.822   5.975  17.281  0.00  0.00    +0.000 A 
ATOM     13  C   UNL     1       6.841   6.012  16.317  0.00  0.00    +0.000 A 
BRANCH   8  15
ATOM     14  C   UNL     1       7.321   4.699  12.993  0.00  0.00    +0.000 C 
ATOM     15  O   UNL     1       7.759   5.142  14.279  0.00  0.00    +0.000 OA
ENDBRANCH   8  15
BRANCH  13  16
ATOM     16  O   UNL     1       7.727   7.027  16.560  0.00  0.00    +0.000 OA
ATOM     17  C   UNL     1       7.745   7.641  17.839  0.00  0.00    +0.000 C 
ENDBRANCH  13  16
ENDBRANCH   1  11
BRANCH   6  18
ATOM     18  C   UNL     1       1.645   7.863  20.010  0.00  0.00    +0.000 A 
ATOM     19  C   UNL     1       1.514   8.791  18.970  0.00  0.00    +0.000 A 
ATOM     20  C   UNL     1       0.857  10.005  19.191  0.00  0.00    +0.000 A 
ATOM     21  C   UNL     1       0.324  10.295  20.451  0.00  0.00    +0.000 A 
ATOM     22  C   UNL     1       0.510   9.399  21.502  0.00  0.00    +0.000 A 
ATOM     23  C   UNL     1       1.143   8.174  21.277  0.00  0.00    +0.000 A 
BRANCH  21  24
ATOM     24  O   UNL     1      -0.301  11.518  20.570  0.00  0.00    +0.000 OA
BRANCH  24  25
ATOM     25  C   UNL     1       0.331  12.660  20.125  0.00  0.00    +0.000 A 
ATOM     26  C   UNL     1      -0.424  13.485  19.286  0.00  0.00    +0.000 A 
ATOM     27  C   UNL     1       0.125  14.665  18.782  0.00  0.00    +0.000 A 
ATOM     28  C   UNL     1       1.430  15.024  19.116  0.00  0.00    +0.000 A 
ATOM     29  C   UNL     1       2.172  14.223  19.981  0.00  0.00    +0.000 A 
ATOM     30  C   UNL     1       1.614  13.057  20.508  0.00  0.00    +0.000 A 
ENDBRANCH  24  25
ENDBRANCH  21  24
ENDBRANCH   6  18
TORSDOF 6
ENDMDL
MODEL 6
REMARK VINA RESULT:      -8.5      1.282      1.950
REMARK  Name = 
REMARK  8 active torsions:
REMARK  status: ('A' for Active; 'I' for Inactive)
REMARK    1  A    between atoms: C_1  and  O_2
REMARK    2  A    between atoms: O_2  and  C_3
REMARK    3  A    between atoms: C_6  and  C_7
REMARK    4  A    between atoms: C_12  and  C_13
REMARK    5  A    between atoms: C_16  and  O_17
REMARK    6  A    between atoms: O_17  and  C_18
REMARK    7  A    between atoms: C_28  and  O_29
REMARK    8  A    between atoms: O_29  and  C_30
REMARK                            x       y       z     vdW  Elec       q    Type
REMARK                         _______ _______ _______ _____ _____    ______ ____
ROOT
ATOM      1  C   UNL     1       3.364   5.441  18.383  0.00  0.00    +0.000 C 
ATOM      2  C   UNL     1       3.524   4.555  19.621  0.00  0.00    +0.000 C 
ATOM      3  C   UNL     1       2.372   4.752  20.579  0.00  0.00    +0.000 C 
ATOM      4  O   UNL     1       1.979   3.853  21.319  0.00  0.00    +0.000 OA
ATOM      5  C   UNL     1       1.753   6.096  20.683  0.00  0.00    +0.000 C 
ATOM      6  C   UNL     1       2.149   7.088  19.870  0.00  0.00    +0.000 C 
ATOM      7  C   UNL     1       3.178   6.923  18.783  0.00  0.00    +0.000 C 
ENDROOT
BRANCH   1  11
ATOM      8  C   UNL     1       6.549   5.094  15.462  0.00  0.00    +0.000 A 
ATOM      9  C   UNL     1       5.492   4.172  15.488  0.00  0.00    +0.000 A 
ATOM     10  C   UNL     1       4.470   4.277  16.436  0.00  0.00    +0.000 A 
ATOM     11  C   UNL     1       4.511   5.274  17.410  0.00  0.00    +0.000 A 
ATOM     12  C   UNL     1       5.628   6.118  17.443  0.00  0.00    +0.000 A 
ATOM     13  C   UNL     1       6.647   6.048  16.482  0.00  0.00    +0.000 A 
BRANCH   8  15
ATOM     14  C   UNL     1       7.067   4.459  13.244  0.00  0.00    +0.000 C 
ATOM     15  O   UNL     1       7.495   5.051  14.471  0.00  0.00    +0.000 OA
ENDBRANCH   8  15
BRANCH  13  16
ATOM     16  O   UNL     1       7.610   6.997  16.698  0.00  0.00    +0.000 OA
ATOM     17  C   UNL     1       7.831   7.473  18.016  0.00  0.00    +0.000 C 
ENDBRANCH  13  16
ENDBRANCH   1  11
BRANCH   6  18
ATOM     18  C   UNL     1       1.528   8.411  20.007  0.00  0.00    +0.000 A 
ATOM     19  C   UNL     1       1.392   9.254  18.899  0.00  0.00    +0.000 A 
ATOM     20  C   UNL     1       0.795  10.510  19.040  0.00  0.00    +0.000 A 
ATOM     21  C   UNL     1       0.326  10.927  20.291  0.00  0.00    +0.000 A 
ATOM     22  C   UNL     1       0.519  10.114  21.406  0.00  0.00    +0.000 A 
ATOM     23  C   UNL     1       1.091   8.848  21.261  0.00  0.00    +0.000 A 
BRANCH  21  24
ATOM     24  O   UNL     1      -0.243  12.182  20.330  0.00  0.00    +0.000 OA
BRANCH  24  25
ATOM     25  C   UNL     1      -1.010  12.557  21.413  0.00  0.00    +0.000 A 
ATOM     26  C   UNL     1      -0.433  13.499  22.269  0.00  0.00    +0.000 A 
ATOM     27  C   UNL     1      -1.129  13.945  23.394  0.00  0.00    +0.000 A 
ATOM     28  C   UNL     1      -2.403  13.449  23.666  0.00  0.00    +0.000 A 
ATOM     29  C   UNL     1      -2.995  12.536  22.796  0.00  0.00    +0.000 A 
ATOM     30  C   UNL     1      -2.311  12.112  21.655  0.00  0.00    +0.000 A 
ENDBRANCH  24  25
ENDBRANCH  21  24
ENDBRANCH   6  18
TORSDOF 6
ENDMDL
MODEL 7
REMARK VINA RESULT:      -8.5      2.355     10.243
REMARK  Name = 
REMARK  8 active torsions:
REMARK  status: ('A' for Active; 'I' for Inactive)
REMARK    1  A    between atoms: C_1  and  O_2
REMARK    2  A    between atoms: O_2  and  C_3
REMARK    3  A    between atoms: C_6  and  C_7
REMARK    4  A    between atoms: C_12  and  C_13
REMARK    5  A    between atoms: C_16  and  O_17
REMARK    6  A    between atoms: O_17  and  C_18
REMARK    7  A    between atoms: C_28  and  O_29
REMARK    8  A    between atoms: O_29  and  C_30
REMARK                            x       y       z     vdW  Elec       q    Type
REMARK                         _______ _______ _______ _____ _____    ______ ____
ROOT
ATOM      1  C   UNL     1      -1.518  11.732  19.351  0.00  0.00    +0.000 C 
ATOM      2  C   UNL     1      -1.412  12.218  20.799  0.00  0.00    +0.000 C 
ATOM      3  C   UNL     1       0.011  12.124  21.297  0.00  0.00    +0.000 C 
ATOM      4  O   UNL     1       0.457  12.892  22.146  0.00  0.00    +0.000 OA
ATOM      5  C   UNL     1       0.868  11.018  20.803  0.00  0.00    +0.000 C 
ATOM      6  C   UNL     1       0.413  10.178  19.860  0.00  0.00    +0.000 C 
ATOM      7  C   UNL     1      -0.936  10.308  19.201  0.00  0.00    +0.000 C 
ENDROOT
BRANCH   1  11
ATOM      8  C   UNL     1      -5.539  12.132  17.779  0.00  0.00    +0.000 A 
ATOM      9  C   UNL     1      -5.247  12.476  19.107  0.00  0.00    +0.000 A 
ATOM     10  C   UNL     1      -3.954  12.339  19.618  0.00  0.00    +0.000 A 
ATOM     11  C   UNL     1      -2.937  11.804  18.828  0.00  0.00    +0.000 A 
ATOM     12  C   UNL     1      -3.266  11.359  17.541  0.00  0.00    +0.000 A 
ATOM     13  C   UNL     1      -4.550  11.518  17.000  0.00  0.00    +0.000 A 
BRANCH   8  15
ATOM     14  C   UNL     1      -7.646  13.171  18.049  0.00  0.00    +0.000 C 
ATOM     15  O   UNL     1      -6.782  12.361  17.249  0.00  0.00    +0.000 OA
ENDBRANCH   8  15
BRANCH  13  16
ATOM     16  O   UNL     1      -4.619  11.043  15.718  0.00  0.00    +0.000 OA
ATOM     17  C   UNL     1      -3.430  10.622  15.069  0.00  0.00    +0.000 C 
ENDBRANCH  13  16
ENDBRANCH   1  11
BRANCH   6  18
ATOM     18  C   UNL     1       1.278   9.085  19.401  0.00  0.00    +0.000 A 
ATOM     19  C   UNL     1       1.808   9.088  18.106  0.00  0.00    +0.000 A 
ATOM     20  C   UNL     1       2.634   8.043  17.683  0.00  0.00    +0.000 A 
ATOM     21  C   UNL     1       2.940   6.993  18.555  0.00  0.00    +0.000 A 
ATOM     22  C   UNL     1       2.362   6.958  19.823  0.00  0.00    +0.000 A 
ATOM     23  C   UNL     1       1.557   8.014  20.256  0.00  0.00    +0.000 A 
BRANCH  21  24
ATOM     24  O   UNL     1       3.759   6.008  18.044  0.00  0.00    +0.000 OA
BRANCH  24  25
ATOM     25  C   UNL     1       5.128   6.132  18.144  0.00  0.00    +0.000 A 
ATOM     26  C   UNL     1       5.729   5.418  19.185  0.00  0.00    +0.000 A 
ATOM     27  C   UNL     1       7.111   5.476  19.372  0.00  0.00    +0.000 A 
ATOM     28  C   UNL     1       7.896   6.249  18.517  0.00  0.00    +0.000 A 
ATOM     29  C   UNL     1       7.306   6.934  17.457  0.00  0.00    +0.000 A 
ATOM     30  C   UNL     1       5.927   6.853  17.253  0.00  0.00    +0.000 A 
ENDBRANCH  24  25
ENDBRANCH  21  24
ENDBRANCH   6  18
TORSDOF 6
ENDMDL
MODEL 8
REMARK VINA RESULT:      -8.5      1.834      9.488
REMARK  Name = 
REMARK  8 active torsions:
REMARK  status: ('A' for Active; 'I' for Inactive)
REMARK    1  A    between atoms: C_1  and  O_2
REMARK    2  A    between atoms: O_2  and  C_3
REMARK    3  A    between atoms: C_6  and  C_7
REMARK    4  A    between atoms: C_12  and  C_13
REMARK    5  A    between atoms: C_16  and  O_17
REMARK    6  A    between atoms: O_17  and  C_18
REMARK    7  A    between atoms: C_28  and  O_29
REMARK    8  A    between atoms: O_29  and  C_30
REMARK                            x       y       z     vdW  Elec       q    Type
REMARK                         _______ _______ _______ _____ _____    ______ ____
ROOT
ATOM      1  C   UNL     1       1.937   7.207  20.736  0.00  0.00    +0.000 C 
ATOM      2  C   UNL     1       1.114   5.950  21.028  0.00  0.00    +0.000 C 
ATOM      3  C   UNL     1       1.963   4.707  20.894  0.00  0.00    +0.000 C 
ATOM      4  O   UNL     1       1.741   3.692  21.551  0.00  0.00    +0.000 OA
ATOM      5  C   UNL     1       3.044   4.688  19.878  0.00  0.00    +0.000 C 
ATOM      6  C   UNL     1       3.321   5.789  19.163  0.00  0.00    +0.000 C 
ATOM      7  C   UNL     1       2.625   7.111  19.355  0.00  0.00    +0.000 C 
ENDROOT
BRANCH   1  11
ATOM      8  C   UNL     1      -0.253  10.934  21.075  0.00  0.00    +0.000 A 
ATOM      9  C   UNL     1       0.049  10.170  22.212  0.00  0.00    +0.000 A 
ATOM     10  C   UNL     1       0.747   8.964  22.103  0.00  0.00    +0.000 A 
ATOM     11  C   UNL     1       1.109   8.470  20.851  0.00  0.00    +0.000 A 
ATOM     12  C   UNL     1       0.703   9.184  19.717  0.00  0.00    +0.000 A 
ATOM     13  C   UNL     1       0.031  10.412  19.807  0.00  0.00    +0.000 A 
BRANCH   8  15
ATOM     14  C   UNL     1       0.015  13.218  21.626  0.00  0.00    +0.000 C 
ATOM     15  O   UNL     1      -0.846  12.164  21.191  0.00  0.00    +0.000 OA
ENDBRANCH   8  15
BRANCH  13  16
ATOM     16  O   UNL     1      -0.226  10.938  18.570  0.00  0.00    +0.000 OA
ATOM     17  C   UNL     1      -1.316  10.433  17.814  0.00  0.00    +0.000 C 
ENDBRANCH  13  16
ENDBRANCH   1  11
BRANCH   6  18
ATOM     18  C   UNL     1       4.387   5.735  18.156  0.00  0.00    +0.000 A 
ATOM     19  C   UNL     1       5.450   4.834  18.287  0.00  0.00    +0.000 A 
ATOM     20  C   UNL     1       6.456   4.788  17.319  0.00  0.00    +0.000 A 
ATOM     21  C   UNL     1       6.403   5.641  16.212  0.00  0.00    +0.000 A 
ATOM     22  C   UNL     1       5.380   6.581  16.113  0.00  0.00    +0.000 A 
ATOM     23  C   UNL     1       4.359   6.610  17.066  0.00  0.00    +0.000 A 
BRANCH  21  24
ATOM     24  O   UNL     1       7.444   5.524  15.314  0.00  0.00    +0.000 OA
BRANCH  24  25
ATOM     25  C   UNL     1       7.227   4.950  14.079  0.00  0.00    +0.000 A 
ATOM     26  C   UNL     1       6.242   3.959  14.035  0.00  0.00    +0.000 A 
ATOM     27  C   UNL     1       5.946   3.317  12.831  0.00  0.00    +0.000 A 
ATOM     28  C   UNL     1       6.633   3.665  11.669  0.00  0.00    +0.000 A 
ATOM     29  C   UNL     1       7.589   4.678  11.703  0.00  0.00    +0.000 A 
ATOM     30  C   UNL     1       7.866   5.339  12.900  0.00  0.00    +0.000 A 
ENDBRANCH  24  25
ENDBRANCH  21  24
ENDBRANCH   6  18
TORSDOF 6
ENDMDL
MODEL 9
REMARK VINA RESULT:      -8.4      1.645      9.454
REMARK  Name = 
REMARK  8 active torsions:
REMARK  status: ('A' for Active; 'I' for Inactive)
REMARK    1  A    between atoms: C_1  and  O_2
REMARK    2  A    between atoms: O_2  and  C_3
REMARK    3  A    between atoms: C_6  and  C_7
REMARK    4  A    between atoms: C_12  and  C_13
REMARK    5  A    between atoms: C_16  and  O_17
REMARK    6  A    between atoms: O_17  and  C_18
REMARK    7  A    between atoms: C_28  and  O_29
REMARK    8  A    between atoms: O_29  and  C_30
REMARK                            x       y       z     vdW  Elec       q    Type
REMARK                         _______ _______ _______ _____ _____    ______ ____
ROOT
ATOM      1  C   UNL     1       1.874   7.252  20.644  0.00  0.00    +0.000 C 
ATOM      2  C   UNL     1       0.976   6.033  20.870  0.00  0.00    +0.000 C 
ATOM      3  C   UNL     1       1.764   4.751  20.737  0.00  0.00    +0.000 C 
ATOM      4  O   UNL     1       1.464   3.734  21.358  0.00  0.00    +0.000 OA
ATOM      5  C   UNL     1       2.884   4.699  19.764  0.00  0.00    +0.000 C 
ATOM      6  C   UNL     1       3.246   5.801  19.089  0.00  0.00    +0.000 C 
ATOM      7  C   UNL     1       2.611   7.153  19.288  0.00  0.00    +0.000 C 
ENDROOT
BRANCH   1  11
ATOM      8  C   UNL     1      -0.146  11.066  21.064  0.00  0.00    +0.000 A 
ATOM      9  C   UNL     1      -0.264  10.075  22.050  0.00  0.00    +0.000 A 
ATOM     10  C   UNL     1       0.378   8.842  21.911  0.00  0.00    +0.000 A 
ATOM     11  C   UNL     1       1.109   8.553  20.759  0.00  0.00    +0.000 A 
ATOM     12  C   UNL     1       1.127   9.506  19.733  0.00  0.00    +0.000 A 
ATOM     13  C   UNL     1       0.515  10.761  19.867  0.00  0.00    +0.000 A 
BRANCH   8  15
ATOM     14  C   UNL     1      -2.112  12.336  21.397  0.00  0.00    +0.000 C 
ATOM     15  O   UNL     1      -0.692  12.310  21.247  0.00  0.00    +0.000 OA
ENDBRANCH   8  15
BRANCH  13  16
ATOM     16  O   UNL     1       0.699  11.534  18.752  0.00  0.00    +0.000 OA
ATOM     17  C   UNL     1       1.922  12.233  18.587  0.00  0.00    +0.000 C 
ENDBRANCH  13  16
ENDBRANCH   1  11
BRANCH   6  18
ATOM     18  C   UNL     1       4.347   5.715  18.123  0.00  0.00    +0.000 A 
ATOM     19  C   UNL     1       4.422   6.603  17.044  0.00  0.00    +0.000 A 
ATOM     20  C   UNL     1       5.478   6.515  16.134  0.00  0.00    +0.000 A 
ATOM     21  C   UNL     1       6.468   5.540  16.300  0.00  0.00    +0.000 A 
ATOM     22  C   UNL     1       6.359   4.616  17.337  0.00  0.00    +0.000 A 
ATOM     23  C   UNL     1       5.319   4.720  18.263  0.00  0.00    +0.000 A 
BRANCH  21  24
ATOM     24  O   UNL     1       7.465   5.530  15.347  0.00  0.00    +0.000 OA
BRANCH  24  25
ATOM     25  C   UNL     1       7.233   4.959  14.114  0.00  0.00    +0.000 A 
ATOM     26  C   UNL     1       6.256   3.960  14.081  0.00  0.00    +0.000 A 
ATOM     27  C   UNL     1       5.946   3.319  12.880  0.00  0.00    +0.000 A 
ATOM     28  C   UNL     1       6.612   3.677  11.709  0.00  0.00    +0.000 A 
ATOM     29  C   UNL     1       7.561   4.697  11.731  0.00  0.00    +0.000 A 
ATOM     30  C   UNL     1       7.851   5.357  12.927  0.00  0.00    +0.000 A 
ENDBRANCH  24  25
ENDBRANCH  21  24
ENDBRANCH   6  18
TORSDOF 6
ENDMDL
