MODEL 1
REMARK VINA RESULT:      -7.7      0.000      0.000
REMARK  Name = 
REMARK  5 active torsions:
REMARK  status: ('A' for Active; 'I' for Inactive)
REMARK    1  A    between atoms: C_1  and  C_2
REMARK    2  A    between atoms: C_2  and  N_3
REMARK    3  A    between atoms: C_4  and  C_5
REMARK    4  A    between atoms: N_7  and  C_8
REMARK    5  A    between atoms: C_35  and  C_36
REMARK                            x       y       z     vdW  Elec       q    Type
REMARK                         _______ _______ _______ _____ _____    ______ ____
ROOT
ATOM      1  C   UNL     1       1.461   7.970  20.602  0.00  0.00    +0.000 A 
ATOM      2  C   UNL     1       0.687   8.730  19.738  0.00  0.00    +0.000 A 
ATOM      3  C   UNL     1       0.131   9.930  20.167  0.00  0.00    +0.000 A 
ATOM      4  C   UNL     1       0.353  10.365  21.466  0.00  0.00    +0.000 A 
ATOM      5  N   UNL     1      -0.180  11.532  21.964  0.00  0.00    +0.000 N 
ATOM      6  C   UNL     1      -1.383  12.154  21.678  0.00  0.00    +0.000 A 
ATOM      7  N   UNL     1      -1.608  13.244  22.435  0.00  0.00    +0.000 NA
ATOM      8  C   UNL     1      -2.730  13.954  22.229  0.00  0.00    +0.000 A 
ATOM      9  C   UNL     1      -3.637  13.538  21.267  0.00  0.00    +0.000 A 
ATOM     10  C   UNL     1      -4.830  14.060  20.744  0.00  0.00    +0.000 A 
ATOM     11  C   UNL     1      -5.130  13.339  19.603  0.00  0.00    +0.000 A 
ATOM     12  N   UNL     1      -4.251  12.256  19.526  0.00  0.00    +0.000 N 
ATOM     13  C   UNL     1      -3.314  12.402  20.538  0.00  0.00    +0.000 A 
ATOM     14  N   UNL     1      -2.204  11.673  20.717  0.00  0.00    +0.000 NA
ATOM     15  C   UNL     1      -4.109  11.483  18.252  0.00  0.00    +0.000 C 
ATOM     16  C   UNL     1      -2.919  12.122  17.504  0.00  0.00    +0.000 C 
ATOM     17  C   UNL     1      -2.298  11.378  16.332  0.00  0.00    +0.000 C 
ATOM     18  C   UNL     1      -2.584   9.893  16.157  0.00  0.00    +0.000 C 
ATOM     19  C   UNL     1      -3.685   9.283  17.013  0.00  0.00    +0.000 C 
ATOM     20  C   UNL     1      -3.875   9.953  18.387  0.00  0.00    +0.000 C 
ATOM     21  C   UNL     1      -5.455  11.633  17.469  0.00  0.00    +0.000 C 
ATOM     22  N   UNL     1      -6.011  12.959  17.448  0.00  0.00    +0.000 N 
ATOM     23  C   UNL     1      -6.076  13.711  18.574  0.00  0.00    +0.000 C 
ATOM     24  O   UNL     1      -6.847  14.661  18.658  0.00  0.00    +0.000 OA
ATOM     25  N   UNL     1       1.126   9.676  22.319  0.00  0.00    +0.000 NA
ATOM     26  C   UNL     1       1.631   8.506  21.882  0.00  0.00    +0.000 A 
ATOM     27  H   UNL     1       0.130  11.746  22.898  0.00  0.00    +0.000 HD
ATOM     28  H   UNL     1      -6.742  13.187  16.784  0.00  0.00    +0.000 HD
ENDROOT
BRANCH   1  33
ATOM     29  N   UNL     1       3.433   4.257  19.744  0.00  0.00    +0.000 NA
ATOM     30  C   UNL     1       3.951   5.581  19.312  0.00  0.00    +0.000 C 
ATOM     31  C   UNL     1       4.934   5.528  18.144  0.00  0.00    +0.000 C 
ATOM     32  C   UNL     1       2.857   6.649  19.074  0.00  0.00    +0.000 C 
ATOM     33  N   UNL     1       1.986   6.747  20.254  0.00  0.00    +0.000 N 
ATOM     34  C   UNL     1       1.443   5.494  20.795  0.00  0.00    +0.000 C 
ATOM     35  C   UNL     1       2.583   4.450  20.950  0.00  0.00    +0.000 C 
ATOM     36  C   UNL     1       2.075   3.150  21.575  0.00  0.00    +0.000 C 
BRANCH  29  38
ATOM     37  C   UNL     1       3.592   2.029  18.425  0.00  0.00    +0.000 C 
ATOM     38  C   UNL     1       2.919   3.371  18.697  0.00  0.00    +0.000 C 
ENDBRANCH  29  38
ENDBRANCH   1  33
TORSDOF 2
ENDMDL
MODEL 2
REMARK VINA RESULT:      -7.5      3.380      4.066
REMARK  Name = 
REMARK  5 active torsions:
REMARK  status: ('A' for Active; 'I' for Inactive)
REMARK    1  A    between atoms: C_1  and  C_2
REMARK    2  A    between atoms: C_2  and  N_3
REMARK    3  A    between atoms: C_4  and  C_5
REMARK    4  A    between atoms: N_7  and  C_8
REMARK    5  A    between atoms: C_35  and  C_36
REMARK                            x       y       z     vdW  Elec       q    Type
REMARK                         _______ _______ _______ _____ _____    ______ ____
ROOT
ATOM      1  C   UNL     1       1.158   8.066  20.912  0.00  0.00    +0.000 A 
ATOM      2  C   UNL     1       1.535   9.397  20.809  0.00  0.00    +0.000 A 
ATOM      3  C   UNL     1       0.824  10.381  21.490  0.00  0.00    +0.000 A 
ATOM      4  C   UNL     1      -0.266  10.024  22.271  0.00  0.00    +0.000 A 
ATOM      5  N   UNL     1      -1.026  10.944  22.957  0.00  0.00    +0.000 N 
ATOM      6  C   UNL     1      -1.348  12.251  22.634  0.00  0.00    +0.000 A 
ATOM      7  N   UNL     1      -2.196  12.819  23.510  0.00  0.00    +0.000 NA
ATOM      8  C   UNL     1      -2.560  14.098  23.321  0.00  0.00    +0.000 A 
ATOM      9  C   UNL     1      -2.077  14.793  22.223  0.00  0.00    +0.000 A 
ATOM     10  C   UNL     1      -2.177  16.118  21.771  0.00  0.00    +0.000 A 
ATOM     11  C   UNL     1      -1.244  16.281  20.763  0.00  0.00    +0.000 A 
ATOM     12  N   UNL     1      -0.711  15.027  20.453  0.00  0.00    +0.000 N 
ATOM     13  C   UNL     1      -1.207  14.119  21.377  0.00  0.00    +0.000 A 
ATOM     14  N   UNL     1      -0.823  12.845  21.538  0.00  0.00    +0.000 NA
ATOM     15  C   UNL     1       0.541  14.914  19.641  0.00  0.00    +0.000 C 
ATOM     16  C   UNL     1       1.696  14.824  20.661  0.00  0.00    +0.000 C 
ATOM     17  C   UNL     1       3.069  14.375  20.184  0.00  0.00    +0.000 C 
ATOM     18  C   UNL     1       3.197  13.669  18.842  0.00  0.00    +0.000 C 
ATOM     19  C   UNL     1       1.982  13.678  17.923  0.00  0.00    +0.000 C 
ATOM     20  C   UNL     1       0.626  13.717  18.654  0.00  0.00    +0.000 C 
ATOM     21  C   UNL     1       0.630  16.198  18.750  0.00  0.00    +0.000 C 
ATOM     22  N   UNL     1       0.313  17.432  19.417  0.00  0.00    +0.000 N 
ATOM     23  C   UNL     1      -0.772  17.537  20.223  0.00  0.00    +0.000 C 
ATOM     24  O   UNL     1      -1.254  18.630  20.500  0.00  0.00    +0.000 OA
ATOM     25  N   UNL     1      -0.637   8.744  22.424  0.00  0.00    +0.000 NA
ATOM     26  C   UNL     1       0.056   7.817  21.733  0.00  0.00    +0.000 A 
ATOM     27  H   UNL     1      -1.735  10.524  23.535  0.00  0.00    +0.000 HD
ATOM     28  H   UNL     1       0.565  18.314  18.986  0.00  0.00    +0.000 HD
ENDROOT
BRANCH   1  33
ATOM     29  N   UNL     1       3.471   5.055  18.912  0.00  0.00    +0.000 NA
ATOM     30  C   UNL     1       3.640   6.512  18.676  0.00  0.00    +0.000 C 
ATOM     31  C   UNL     1       4.314   6.867  17.352  0.00  0.00    +0.000 C 
ATOM     32  C   UNL     1       2.356   7.349  18.892  0.00  0.00    +0.000 C 
ATOM     33  N   UNL     1       1.785   7.059  20.214  0.00  0.00    +0.000 N 
ATOM     34  C   UNL     1       1.605   5.646  20.575  0.00  0.00    +0.000 C 
ATOM     35  C   UNL     1       2.909   4.857  20.276  0.00  0.00    +0.000 C 
ATOM     36  C   UNL     1       2.790   3.392  20.699  0.00  0.00    +0.000 C 
BRANCH  29  38
ATOM     37  C   UNL     1       3.694   3.178  17.136  0.00  0.00    +0.000 C 
ATOM     38  C   UNL     1       2.882   4.270  17.825  0.00  0.00    +0.000 C 
ENDBRANCH  29  38
ENDBRANCH   1  33
TORSDOF 2
ENDMDL
MODEL 3
REMARK VINA RESULT:      -7.4      0.565      1.553
REMARK  Name = 
REMARK  5 active torsions:
REMARK  status: ('A' for Active; 'I' for Inactive)
REMARK    1  A    between atoms: C_1  and  C_2
REMARK    2  A    between atoms: C_2  and  N_3
REMARK    3  A    between atoms: C_4  and  C_5
REMARK    4  A    between atoms: N_7  and  C_8
REMARK    5  A    between atoms: C_35  and  C_36
REMARK                            x       y       z     vdW  Elec       q    Type
REMARK                         _______ _______ _______ _____ _____    ______ ____
ROOT
ATOM      1  C   UNL     1       1.500   8.002  20.475  0.00  0.00    +0.000 A 
ATOM      2  C   UNL     1       0.701   8.759  19.631  0.00  0.00    +0.000 A 
ATOM      3  C   UNL     1       0.155   9.960  20.073  0.00  0.00    +0.000 A 
ATOM      4  C   UNL     1       0.413  10.398  21.365  0.00  0.00    +0.000 A 
ATOM      5  N   UNL     1      -0.107  11.565  21.875  0.00  0.00    +0.000 N 
ATOM      6  C   UNL     1      -1.318  12.185  21.622  0.00  0.00    +0.000 A 
ATOM      7  N   UNL     1      -1.524  13.276  22.382  0.00  0.00    +0.000 NA
ATOM      8  C   UNL     1      -2.651  13.984  22.207  0.00  0.00    +0.000 A 
ATOM      9  C   UNL     1      -3.585  13.565  21.272  0.00  0.00    +0.000 A 
ATOM     10  C   UNL     1      -4.793  14.084  20.781  0.00  0.00    +0.000 A 
ATOM     11  C   UNL     1      -5.125  13.360  19.651  0.00  0.00    +0.000 A 
ATOM     12  N   UNL     1      -4.246  12.278  19.551  0.00  0.00    +0.000 N 
ATOM     13  C   UNL     1      -3.281  12.428  20.537  0.00  0.00    +0.000 A 
ATOM     14  N   UNL     1      -2.165  11.700  20.685  0.00  0.00    +0.000 NA
ATOM     15  C   UNL     1      -4.139  11.503  18.276  0.00  0.00    +0.000 C 
ATOM     16  C   UNL     1      -2.972  12.141  17.493  0.00  0.00    +0.000 C 
ATOM     17  C   UNL     1      -2.383  11.395  16.305  0.00  0.00    +0.000 C 
ATOM     18  C   UNL     1      -2.672   9.910  16.142  0.00  0.00    +0.000 C 
ATOM     19  C   UNL     1      -3.748   9.300  17.030  0.00  0.00    +0.000 C 
ATOM     20  C   UNL     1      -3.899   9.973  18.408  0.00  0.00    +0.000 C 
ATOM     21  C   UNL     1      -5.507  11.649  17.530  0.00  0.00    +0.000 C 
ATOM     22  N   UNL     1      -6.065  12.974  17.523  0.00  0.00    +0.000 N 
ATOM     23  C   UNL     1      -6.100  13.728  18.649  0.00  0.00    +0.000 C 
ATOM     24  O   UNL     1      -6.869  14.678  18.753  0.00  0.00    +0.000 OA
ATOM     25  N   UNL     1       1.211   9.712  22.197  0.00  0.00    +0.000 NA
ATOM     26  C   UNL     1       1.705   8.541  21.748  0.00  0.00    +0.000 A 
ATOM     27  H   UNL     1       0.229  11.781  22.799  0.00  0.00    +0.000 HD
ATOM     28  H   UNL     1      -6.815  13.199  16.879  0.00  0.00    +0.000 HD
ENDROOT
BRANCH   1  33
ATOM     29  N   UNL     1       2.751   4.120  19.144  0.00  0.00    +0.000 NA
ATOM     30  C   UNL     1       1.602   4.343  20.059  0.00  0.00    +0.000 C 
ATOM     31  C   UNL     1       1.201   3.123  20.885  0.00  0.00    +0.000 C 
ATOM     32  C   UNL     1       1.728   5.604  20.948  0.00  0.00    +0.000 C 
ATOM     33  N   UNL     1       2.017   6.779  20.114  0.00  0.00    +0.000 N 
ATOM     34  C   UNL     1       3.111   6.662  19.142  0.00  0.00    +0.000 C 
ATOM     35  C   UNL     1       2.955   5.347  18.329  0.00  0.00    +0.000 C 
ATOM     36  C   UNL     1       4.038   5.217  17.257  0.00  0.00    +0.000 C 
BRANCH  29  38
ATOM     37  C   UNL     1       4.260   2.028  19.417  0.00  0.00    +0.000 C 
ATOM     38  C   UNL     1       3.943   3.489  19.716  0.00  0.00    +0.000 C 
ENDBRANCH  29  38
ENDBRANCH   1  33
TORSDOF 2
ENDMDL
MODEL 4
REMARK VINA RESULT:      -7.2      3.325      4.246
REMARK  Name = 
REMARK  5 active torsions:
REMARK  status: ('A' for Active; 'I' for Inactive)
REMARK    1  A    between atoms: C_1  and  C_2
REMARK    2  A    between atoms: C_2  and  N_3
REMARK    3  A    between atoms: C_4  and  C_5
REMARK    4  A    between atoms: N_7  and  C_8
REMARK    5  A    between atoms: C_35  and  C_36
REMARK                            x       y       z     vdW  Elec       q    Type
REMARK                         _______ _______ _______ _____ _____    ______ ____
ROOT
ATOM      1  C   UNL     1       1.038   8.093  21.033  0.00  0.00    +0.000 A 
ATOM      2  C   UNL     1       1.410   9.422  20.890  0.00  0.00    +0.000 A 
ATOM      3  C   UNL     1       0.695  10.423  21.538  0.00  0.00    +0.000 A 
ATOM      4  C   UNL     1      -0.396  10.087  22.329  0.00  0.00    +0.000 A 
ATOM      5  N   UNL     1      -1.160  11.025  22.985  0.00  0.00    +0.000 N 
ATOM      6  C   UNL     1      -1.485  12.320  22.620  0.00  0.00    +0.000 A 
ATOM      7  N   UNL     1      -2.338  12.912  23.477  0.00  0.00    +0.000 NA
ATOM      8  C   UNL     1      -2.705  14.184  23.248  0.00  0.00    +0.000 A 
ATOM      9  C   UNL     1      -2.223  14.846  22.130  0.00  0.00    +0.000 A 
ATOM     10  C   UNL     1      -2.326  16.156  21.637  0.00  0.00    +0.000 A 
ATOM     11  C   UNL     1      -1.392  16.291  20.626  0.00  0.00    +0.000 A 
ATOM     12  N   UNL     1      -0.855  15.030  20.356  0.00  0.00    +0.000 N 
ATOM     13  C   UNL     1      -1.349  14.149  21.307  0.00  0.00    +0.000 A 
ATOM     14  N   UNL     1      -0.961  12.882  21.507  0.00  0.00    +0.000 NA
ATOM     15  C   UNL     1       0.399  14.896  19.550  0.00  0.00    +0.000 C 
ATOM     16  C   UNL     1       1.553  14.842  20.573  0.00  0.00    +0.000 C 
ATOM     17  C   UNL     1       2.929  14.383  20.113  0.00  0.00    +0.000 C 
ATOM     18  C   UNL     1       3.061  13.636  18.794  0.00  0.00    +0.000 C 
ATOM     19  C   UNL     1       1.848  13.612  17.874  0.00  0.00    +0.000 C 
ATOM     20  C   UNL     1       0.490  13.669  18.601  0.00  0.00    +0.000 C 
ATOM     21  C   UNL     1       0.486  16.152  18.620  0.00  0.00    +0.000 C 
ATOM     22  N   UNL     1       0.163  17.405  19.247  0.00  0.00    +0.000 N 
ATOM     23  C   UNL     1      -0.924  17.531  20.048  0.00  0.00    +0.000 C 
ATOM     24  O   UNL     1      -1.410  18.631  20.290  0.00  0.00    +0.000 OA
ATOM     25  N   UNL     1      -0.763   8.811  22.520  0.00  0.00    +0.000 NA
ATOM     26  C   UNL     1      -0.065   7.866  21.860  0.00  0.00    +0.000 A 
ATOM     27  H   UNL     1      -1.869  10.621  23.574  0.00  0.00    +0.000 HD
ATOM     28  H   UNL     1       0.412  18.274  18.789  0.00  0.00    +0.000 HD
ENDROOT
BRANCH   1  33
ATOM     29  N   UNL     1       2.661   4.861  18.725  0.00  0.00    +0.000 NA
ATOM     30  C   UNL     1       1.469   4.726  19.601  0.00  0.00    +0.000 C 
ATOM     31  C   UNL     1       1.149   3.293  20.023  0.00  0.00    +0.000 C 
ATOM     32  C   UNL     1       1.458   5.683  20.817  0.00  0.00    +0.000 C 
ATOM     33  N   UNL     1       1.669   7.067  20.368  0.00  0.00    +0.000 N 
ATOM     34  C   UNL     1       2.800   7.316  19.464  0.00  0.00    +0.000 C 
ATOM     35  C   UNL     1       2.784   6.283  18.304  0.00  0.00    +0.000 C 
ATOM     36  C   UNL     1       3.907   6.546  17.300  0.00  0.00    +0.000 C 
BRANCH  29  38
ATOM     37  C   UNL     1       4.417   2.983  18.382  0.00  0.00    +0.000 C 
ATOM     38  C   UNL     1       3.885   4.183  19.159  0.00  0.00    +0.000 C 
ENDBRANCH  29  38
ENDBRANCH   1  33
TORSDOF 2
ENDMDL
MODEL 5
REMARK VINA RESULT:      -7.1      4.750      7.721
REMARK  Name = 
REMARK  5 active torsions:
REMARK  status: ('A' for Active; 'I' for Inactive)
REMARK    1  A    between atoms: C_1  and  C_2
REMARK    2  A    between atoms: C_2  and  N_3
REMARK    3  A    between atoms: C_4  and  C_5
REMARK    4  A    between atoms: N_7  and  C_8
REMARK    5  A    between atoms: C_35  and  C_36
REMARK                            x       y       z     vdW  Elec       q    Type
REMARK                         _______ _______ _______ _____ _____    ______ ____
ROOT
ATOM      1  C   UNL     1       2.808  14.058  19.985  0.00  0.00    +0.000 A 
ATOM      2  C   UNL     1       1.628  13.758  20.651  0.00  0.00    +0.000 A 
ATOM      3  C   UNL     1       0.721  12.860  20.098  0.00  0.00    +0.000 A 
ATOM      4  C   UNL     1       1.001  12.266  18.875  0.00  0.00    +0.000 A 
ATOM      5  N   UNL     1       0.142  11.383  18.260  0.00  0.00    +0.000 N 
ATOM      6  C   UNL     1      -1.241  11.336  18.269  0.00  0.00    +0.000 A 
ATOM      7  N   UNL     1      -1.742  10.376  17.470  0.00  0.00    +0.000 NA
ATOM      8  C   UNL     1      -3.073  10.208  17.416  0.00  0.00    +0.000 A 
ATOM      9  C   UNL     1      -3.899  11.038  18.160  0.00  0.00    +0.000 A 
ATOM     10  C   UNL     1      -5.280  11.096  18.402  0.00  0.00    +0.000 A 
ATOM     11  C   UNL     1      -5.476  11.970  19.456  0.00  0.00    +0.000 A 
ATOM     12  N   UNL     1      -4.261  12.599  19.736  0.00  0.00    +0.000 N 
ATOM     13  C   UNL     1      -3.286  11.998  18.953  0.00  0.00    +0.000 A 
ATOM     14  N   UNL     1      -1.962  12.190  19.030  0.00  0.00    +0.000 NA
ATOM     15  C   UNL     1      -4.071  13.348  21.017  0.00  0.00    +0.000 C 
ATOM     16  C   UNL     1      -3.438  12.343  22.002  0.00  0.00    +0.000 C 
ATOM     17  C   UNL     1      -2.816  12.861  23.290  0.00  0.00    +0.000 C 
ATOM     18  C   UNL     1      -2.484  14.341  23.413  0.00  0.00    +0.000 C 
ATOM     19  C   UNL     1      -3.028  15.276  22.341  0.00  0.00    +0.000 C 
ATOM     20  C   UNL     1      -3.196  14.631  20.952  0.00  0.00    +0.000 C 
ATOM     21  C   UNL     1      -5.485  13.830  21.484  0.00  0.00    +0.000 C 
ATOM     22  N   UNL     1      -6.536  12.855  21.368  0.00  0.00    +0.000 N 
ATOM     23  C   UNL     1      -6.679  12.105  20.248  0.00  0.00    +0.000 C 
ATOM     24  O   UNL     1      -7.742  11.551  19.986  0.00  0.00    +0.000 OA
ATOM     25  N   UNL     1       2.147  12.504  18.220  0.00  0.00    +0.000 NA
ATOM     26  C   UNL     1       2.995  13.396  18.769  0.00  0.00    +0.000 A 
ATOM     27  H   UNL     1       0.518  10.984  17.416  0.00  0.00    +0.000 HD
ATOM     28  H   UNL     1      -7.414  13.003  21.853  0.00  0.00    +0.000 HD
ENDROOT
BRANCH   1  33
ATOM     29  N   UNL     1       5.421  17.229  21.222  0.00  0.00    +0.000 NA
ATOM     30  C   UNL     1       5.295  16.771  19.814  0.00  0.00    +0.000 C 
ATOM     31  C   UNL     1       6.477  17.135  18.919  0.00  0.00    +0.000 C 
ATOM     32  C   UNL     1       4.913  15.280  19.658  0.00  0.00    +0.000 C 
ATOM     33  N   UNL     1       3.713  14.983  20.453  0.00  0.00    +0.000 N 
ATOM     34  C   UNL     1       3.708  15.424  21.855  0.00  0.00    +0.000 C 
ATOM     35  C   UNL     1       4.159  16.908  21.941  0.00  0.00    +0.000 C 
ATOM     36  C   UNL     1       4.105  17.430  23.378  0.00  0.00    +0.000 C 
BRANCH  29  38
ATOM     37  C   UNL     1       7.616  18.053  22.331  0.00  0.00    +0.000 C 
ATOM     38  C   UNL     1       6.679  16.926  21.908  0.00  0.00    +0.000 C 
ENDBRANCH  29  38
ENDBRANCH   1  33
TORSDOF 2
ENDMDL
MODEL 6
REMARK VINA RESULT:      -7.0      4.761      7.613
REMARK  Name = 
REMARK  5 active torsions:
REMARK  status: ('A' for Active; 'I' for Inactive)
REMARK    1  A    between atoms: C_1  and  C_2
REMARK    2  A    between atoms: C_2  and  N_3
REMARK    3  A    between atoms: C_4  and  C_5
REMARK    4  A    between atoms: N_7  and  C_8
REMARK    5  A    between atoms: C_35  and  C_36
REMARK                            x       y       z     vdW  Elec       q    Type
REMARK                         _______ _______ _______ _____ _____    ______ ____
ROOT
ATOM      1  C   UNL     1       2.933  13.804  19.873  0.00  0.00    +0.000 A 
ATOM      2  C   UNL     1       1.792  13.526  20.611  0.00  0.00    +0.000 A 
ATOM      3  C   UNL     1       0.788  12.726  20.074  0.00  0.00    +0.000 A 
ATOM      4  C   UNL     1       0.932  12.208  18.794  0.00  0.00    +0.000 A 
ATOM      5  N   UNL     1      -0.027  11.425  18.193  0.00  0.00    +0.000 N 
ATOM      6  C   UNL     1      -1.405  11.459  18.312  0.00  0.00    +0.000 A 
ATOM      7  N   UNL     1      -2.028  10.592  17.493  0.00  0.00    +0.000 NA
ATOM      8  C   UNL     1      -3.368  10.508  17.538  0.00  0.00    +0.000 A 
ATOM      9  C   UNL     1      -4.078  11.328  18.402  0.00  0.00    +0.000 A 
ATOM     10  C   UNL     1      -5.428  11.450  18.761  0.00  0.00    +0.000 A 
ATOM     11  C   UNL     1      -5.485  12.253  19.886  0.00  0.00    +0.000 A 
ATOM     12  N   UNL     1      -4.213  12.787  20.107  0.00  0.00    +0.000 N 
ATOM     13  C   UNL     1      -3.344  12.188  19.207  0.00  0.00    +0.000 A 
ATOM     14  N   UNL     1      -2.008  12.296  19.188  0.00  0.00    +0.000 NA
ATOM     15  C   UNL     1      -3.876  13.427  21.416  0.00  0.00    +0.000 C 
ATOM     16  C   UNL     1      -3.235  12.316  22.274  0.00  0.00    +0.000 C 
ATOM     17  C   UNL     1      -2.482  12.701  23.539  0.00  0.00    +0.000 C 
ATOM     18  C   UNL     1      -2.046  14.146  23.736  0.00  0.00    +0.000 C 
ATOM     19  C   UNL     1      -2.611  15.187  22.779  0.00  0.00    +0.000 C 
ATOM     20  C   UNL     1      -2.927  14.657  21.368  0.00  0.00    +0.000 C 
ATOM     21  C   UNL     1      -5.215  13.956  22.030  0.00  0.00    +0.000 C 
ATOM     22  N   UNL     1      -6.333  13.056  21.934  0.00  0.00    +0.000 N 
ATOM     23  C   UNL     1      -6.611  12.401  20.781  0.00  0.00    +0.000 C 
ATOM     24  O   UNL     1      -7.725  11.931  20.571  0.00  0.00    +0.000 OA
ATOM     25  N   UNL     1       2.037  12.425  18.065  0.00  0.00    +0.000 NA
ATOM     26  C   UNL     1       2.981  13.223  18.603  0.00  0.00    +0.000 A 
ATOM     27  H   UNL     1       0.255  11.068  17.295  0.00  0.00    +0.000 HD
ATOM     28  H   UNL     1      -7.159  13.220  22.499  0.00  0.00    +0.000 HD
ENDROOT
BRANCH   1  33
ATOM     29  N   UNL     1       6.308  16.083  21.224  0.00  0.00    +0.000 NA
ATOM     30  C   UNL     1       5.810  14.865  21.914  0.00  0.00    +0.000 C 
ATOM     31  C   UNL     1       6.236  14.744  23.376  0.00  0.00    +0.000 C 
ATOM     32  C   UNL     1       4.292  14.612  21.751  0.00  0.00    +0.000 C 
ATOM     33  N   UNL     1       3.930  14.637  20.327  0.00  0.00    +0.000 N 
ATOM     34  C   UNL     1       4.401  15.779  19.532  0.00  0.00    +0.000 C 
ATOM     35  C   UNL     1       5.914  16.012  19.791  0.00  0.00    +0.000 C 
ATOM     36  C   UNL     1       6.463  17.152  18.932  0.00  0.00    +0.000 C 
BRANCH  29  38
ATOM     37  C   UNL     1       7.288  18.070  22.573  0.00  0.00    +0.000 C 
ATOM     38  C   UNL     1       6.110  17.363  21.910  0.00  0.00    +0.000 C 
ENDBRANCH  29  38
ENDBRANCH   1  33
TORSDOF 2
ENDMDL
MODEL 7
REMARK VINA RESULT:      -6.6      6.142      7.599
REMARK  Name = 
REMARK  5 active torsions:
REMARK  status: ('A' for Active; 'I' for Inactive)
REMARK    1  A    between atoms: C_1  and  C_2
REMARK    2  A    between atoms: C_2  and  N_3
REMARK    3  A    between atoms: C_4  and  C_5
REMARK    4  A    between atoms: N_7  and  C_8
REMARK    5  A    between atoms: C_35  and  C_36
REMARK                            x       y       z     vdW  Elec       q    Type
REMARK                         _______ _______ _______ _____ _____    ______ ____
ROOT
ATOM      1  C   UNL     1       5.651  15.436  19.307  0.00  0.00    +0.000 A 
ATOM      2  C   UNL     1       4.472  14.728  19.127  0.00  0.00    +0.000 A 
ATOM      3  C   UNL     1       3.258  15.400  19.038  0.00  0.00    +0.000 A 
ATOM      4  C   UNL     1       3.230  16.784  19.133  0.00  0.00    +0.000 A 
ATOM      5  N   UNL     1       2.064  17.513  19.072  0.00  0.00    +0.000 N 
ATOM      6  C   UNL     1       0.790  17.192  19.507  0.00  0.00    +0.000 A 
ATOM      7  N   UNL     1      -0.089  18.201  19.362  0.00  0.00    +0.000 NA
ATOM      8  C   UNL     1      -1.368  18.001  19.719  0.00  0.00    +0.000 A 
ATOM      9  C   UNL     1      -1.748  16.778  20.250  0.00  0.00    +0.000 A 
ATOM     10  C   UNL     1      -2.970  16.208  20.641  0.00  0.00    +0.000 A 
ATOM     11  C   UNL     1      -2.753  14.854  20.824  0.00  0.00    +0.000 A 
ATOM     12  N   UNL     1      -1.379  14.616  20.744  0.00  0.00    +0.000 N 
ATOM     13  C   UNL     1      -0.768  15.801  20.359  0.00  0.00    +0.000 A 
ATOM     14  N   UNL     1       0.515  15.967  20.011  0.00  0.00    +0.000 NA
ATOM     15  C   UNL     1      -0.859  13.223  20.577  0.00  0.00    +0.000 C 
ATOM     16  C   UNL     1      -0.683  13.020  19.057  0.00  0.00    +0.000 C 
ATOM     17  C   UNL     1       0.133  11.836  18.559  0.00  0.00    +0.000 C 
ATOM     18  C   UNL     1       1.060  11.112  19.525  0.00  0.00    +0.000 C 
ATOM     19  C   UNL     1       0.932  11.444  21.006  0.00  0.00    +0.000 C 
ATOM     20  C   UNL     1       0.473  12.884  21.303  0.00  0.00    +0.000 C 
ATOM     21  C   UNL     1      -1.926  12.255  21.188  0.00  0.00    +0.000 C 
ATOM     22  N   UNL     1      -3.292  12.559  20.857  0.00  0.00    +0.000 N 
ATOM     23  C   UNL     1      -3.766  13.828  20.922  0.00  0.00    +0.000 C 
ATOM     24  O   UNL     1      -4.970  14.052  20.998  0.00  0.00    +0.000 OA
ATOM     25  N   UNL     1       4.352  17.506  19.271  0.00  0.00    +0.000 NA
ATOM     26  C   UNL     1       5.511  16.825  19.377  0.00  0.00    +0.000 A 
ATOM     27  H   UNL     1       2.215  18.509  19.084  0.00  0.00    +0.000 HD
ATOM     28  H   UNL     1      -4.013  11.865  21.016  0.00  0.00    +0.000 HD
ENDROOT
BRANCH   1  33
ATOM     29  N   UNL     1       9.251  13.185  19.924  0.00  0.00    +0.000 NA
ATOM     30  C   UNL     1       8.326  13.569  21.020  0.00  0.00    +0.000 C 
ATOM     31  C   UNL     1       8.951  13.557  22.413  0.00  0.00    +0.000 C 
ATOM     32  C   UNL     1       7.545  14.881  20.768  0.00  0.00    +0.000 C 
ATOM     33  N   UNL     1       6.873  14.823  19.463  0.00  0.00    +0.000 N 
ATOM     34  C   UNL     1       7.683  14.417  18.306  0.00  0.00    +0.000 C 
ATOM     35  C   UNL     1       8.484  13.131  18.650  0.00  0.00    +0.000 C 
ATOM     36  C   UNL     1       9.291  12.633  17.451  0.00  0.00    +0.000 C 
BRANCH  29  38
ATOM     37  C   UNL     1      11.840  13.028  19.853  0.00  0.00    +0.000 C 
ATOM     38  C   UNL     1      10.556  13.851  19.891  0.00  0.00    +0.000 C 
ENDBRANCH  29  38
ENDBRANCH   1  33
TORSDOF 2
ENDMDL
MODEL 8
REMARK VINA RESULT:      -6.6      6.206      7.551
REMARK  Name = 
REMARK  5 active torsions:
REMARK  status: ('A' for Active; 'I' for Inactive)
REMARK    1  A    between atoms: C_1  and  C_2
REMARK    2  A    between atoms: C_2  and  N_3
REMARK    3  A    between atoms: C_4  and  C_5
REMARK    4  A    between atoms: N_7  and  C_8
REMARK    5  A    between atoms: C_35  and  C_36
REMARK                            x       y       z     vdW  Elec       q    Type
REMARK                         _______ _______ _______ _____ _____    ______ ____
ROOT
ATOM      1  C   UNL     1       5.623  15.431  19.372  0.00  0.00    +0.000 A 
ATOM      2  C   UNL     1       4.444  14.725  19.180  0.00  0.00    +0.000 A 
ATOM      3  C   UNL     1       3.235  15.402  19.055  0.00  0.00    +0.000 A 
ATOM      4  C   UNL     1       3.213  16.788  19.125  0.00  0.00    +0.000 A 
ATOM      5  N   UNL     1       2.052  17.521  19.027  0.00  0.00    +0.000 N 
ATOM      6  C   UNL     1       0.768  17.214  19.442  0.00  0.00    +0.000 A 
ATOM      7  N   UNL     1      -0.102  18.224  19.260  0.00  0.00    +0.000 NA
ATOM      8  C   UNL     1      -1.389  18.037  19.595  0.00  0.00    +0.000 A 
ATOM      9  C   UNL     1      -1.787  16.826  20.140  0.00  0.00    +0.000 A 
ATOM     10  C   UNL     1      -3.019  16.270  20.517  0.00  0.00    +0.000 A 
ATOM     11  C   UNL     1      -2.813  14.918  20.729  0.00  0.00    +0.000 A 
ATOM     12  N   UNL     1      -1.439  14.672  20.680  0.00  0.00    +0.000 N 
ATOM     13  C   UNL     1      -0.815  15.847  20.287  0.00  0.00    +0.000 A 
ATOM     14  N   UNL     1       0.477  16.000  19.962  0.00  0.00    +0.000 NA
ATOM     15  C   UNL     1      -0.923  13.273  20.549  0.00  0.00    +0.000 C 
ATOM     16  C   UNL     1      -0.718  13.042  19.037  0.00  0.00    +0.000 C 
ATOM     17  C   UNL     1       0.101  11.845  18.577  0.00  0.00    +0.000 C 
ATOM     18  C   UNL     1       1.005  11.134  19.574  0.00  0.00    +0.000 C 
ATOM     19  C   UNL     1       0.850  11.493  21.046  0.00  0.00    +0.000 C 
ATOM     20  C   UNL     1       0.392  12.941  21.308  0.00  0.00    +0.000 C 
ATOM     21  C   UNL     1      -2.008  12.322  21.156  0.00  0.00    +0.000 C 
ATOM     22  N   UNL     1      -3.365  12.627  20.792  0.00  0.00    +0.000 N 
ATOM     23  C   UNL     1      -3.833  13.898  20.825  0.00  0.00    +0.000 C 
ATOM     24  O   UNL     1      -5.037  14.130  20.873  0.00  0.00    +0.000 OA
ATOM     25  N   UNL     1       4.336  17.506  19.272  0.00  0.00    +0.000 NA
ATOM     26  C   UNL     1       5.489  16.821  19.414  0.00  0.00    +0.000 A 
ATOM     27  H   UNL     1       2.208  18.516  19.023  0.00  0.00    +0.000 HD
ATOM     28  H   UNL     1      -4.093  11.939  20.949  0.00  0.00    +0.000 HD
ENDROOT
BRANCH   1  33
ATOM     29  N   UNL     1       9.590  13.880  19.886  0.00  0.00    +0.000 NA
ATOM     30  C   UNL     1       9.077  14.410  18.597  0.00  0.00    +0.000 C 
ATOM     31  C   UNL     1       9.841  13.932  17.364  0.00  0.00    +0.000 C 
ATOM     32  C   UNL     1       7.549  14.256  18.404  0.00  0.00    +0.000 C 
ATOM     33  N   UNL     1       6.838  14.815  19.562  0.00  0.00    +0.000 N 
ATOM     34  C   UNL     1       7.285  14.390  20.896  0.00  0.00    +0.000 C 
ATOM     35  C   UNL     1       8.830  14.513  20.997  0.00  0.00    +0.000 C 
ATOM     36  C   UNL     1       9.333  14.144  22.393  0.00  0.00    +0.000 C 
BRANCH  29  38
ATOM     37  C   UNL     1      11.232  11.881  20.075  0.00  0.00    +0.000 C 
ATOM     38  C   UNL     1       9.815  12.434  19.967  0.00  0.00    +0.000 C 
ENDBRANCH  29  38
ENDBRANCH   1  33
TORSDOF 2
ENDMDL
MODEL 9
REMARK VINA RESULT:      -6.3      5.567      7.366
REMARK  Name = 
REMARK  5 active torsions:
REMARK  status: ('A' for Active; 'I' for Inactive)
REMARK    1  A    between atoms: C_1  and  C_2
REMARK    2  A    between atoms: C_2  and  N_3
REMARK    3  A    between atoms: C_4  and  C_5
REMARK    4  A    between atoms: N_7  and  C_8
REMARK    5  A    between atoms: C_35  and  C_36
REMARK                            x       y       z     vdW  Elec       q    Type
REMARK                         _______ _______ _______ _____ _____    ______ ____
ROOT
ATOM      1  C   UNL     1       4.054  15.679  19.822  0.00  0.00    +0.000 A 
ATOM      2  C   UNL     1       2.933  14.863  19.799  0.00  0.00    +0.000 A 
ATOM      3  C   UNL     1       1.678  15.403  19.537  0.00  0.00    +0.000 A 
ATOM      4  C   UNL     1       1.552  16.765  19.301  0.00  0.00    +0.000 A 
ATOM      5  N   UNL     1       0.341  17.370  19.054  0.00  0.00    +0.000 N 
ATOM      6  C   UNL     1      -0.921  17.066  19.535  0.00  0.00    +0.000 A 
ATOM      7  N   UNL     1      -1.862  17.944  19.143  0.00  0.00    +0.000 NA
ATOM      8  C   UNL     1      -3.135  17.740  19.520  0.00  0.00    +0.000 A 
ATOM      9  C   UNL     1      -3.446  16.651  20.320  0.00  0.00    +0.000 A 
ATOM     10  C   UNL     1      -4.636  16.100  20.819  0.00  0.00    +0.000 A 
ATOM     11  C   UNL     1      -4.333  14.847  21.321  0.00  0.00    +0.000 A 
ATOM     12  N   UNL     1      -2.944  14.700  21.317  0.00  0.00    +0.000 N 
ATOM     13  C   UNL     1      -2.405  15.803  20.671  0.00  0.00    +0.000 A 
ATOM     14  N   UNL     1      -1.126  15.977  20.311  0.00  0.00    +0.000 NA
ATOM     15  C   UNL     1      -2.323  13.349  21.492  0.00  0.00    +0.000 C 
ATOM     16  C   UNL     1      -2.088  12.808  20.066  0.00  0.00    +0.000 C 
ATOM     17  C   UNL     1      -1.177  11.604  19.874  0.00  0.00    +0.000 C 
ATOM     18  C   UNL     1      -0.232  11.198  20.996  0.00  0.00    +0.000 C 
ATOM     19  C   UNL     1      -0.428  11.859  22.354  0.00  0.00    +0.000 C 
ATOM     20  C   UNL     1      -0.994  13.290  22.295  0.00  0.00    +0.000 C 
ATOM     21  C   UNL     1      -3.340  12.476  22.301  0.00  0.00    +0.000 C 
ATOM     22  N   UNL     1      -4.713  12.591  21.889  0.00  0.00    +0.000 N 
ATOM     23  C   UNL     1      -5.275  13.800  21.645  0.00  0.00    +0.000 C 
ATOM     24  O   UNL     1      -6.493  13.945  21.650  0.00  0.00    +0.000 OA
ATOM     25  N   UNL     1       2.617  17.580  19.279  0.00  0.00    +0.000 NA
ATOM     26  C   UNL     1       3.816  17.031  19.559  0.00  0.00    +0.000 A 
ATOM     27  H   UNL     1       0.422  18.349  18.831  0.00  0.00    +0.000 HD
ATOM     28  H   UNL     1      -5.388  11.901  22.198  0.00  0.00    +0.000 HD
ENDROOT
BRANCH   1  33
ATOM     29  N   UNL     1       8.095  14.623  20.805  0.00  0.00    +0.000 NA
ATOM     30  C   UNL     1       7.707  15.293  19.537  0.00  0.00    +0.000 C 
ATOM     31  C   UNL     1       8.720  15.145  18.403  0.00  0.00    +0.000 C 
ATOM     32  C   UNL     1       6.274  14.965  19.053  0.00  0.00    +0.000 C 
ATOM     33  N   UNL     1       5.310  15.212  20.134  0.00  0.00    +0.000 N 
ATOM     34  C   UNL     1       5.609  14.629  21.449  0.00  0.00    +0.000 C 
ATOM     35  C   UNL     1       7.079  14.944  21.842  0.00  0.00    +0.000 C 
ATOM     36  C   UNL     1       7.414  14.412  23.236  0.00  0.00    +0.000 C 
BRANCH  29  38
ATOM     37  C   UNL     1       9.966  12.850  21.097  0.00  0.00    +0.000 C 
ATOM     38  C   UNL     1       8.540  13.230  20.711  0.00  0.00    +0.000 C 
ENDBRANCH  29  38
ENDBRANCH   1  33
TORSDOF 2
ENDMDL
