MODEL 1
REMARK VINA RESULT:      -7.3      0.000      0.000
REMARK  Name = 
REMARK  5 active torsions:
REMARK  status: ('A' for Active; 'I' for Inactive)
REMARK    1  A    between atoms: C_1  and  C_2
REMARK    2  A    between atoms: C_6  and  C_7
REMARK    3  A    between atoms: C_8  and  C_9
REMARK    4  A    between atoms: N_11  and  C_12
REMARK    5  A    between atoms: C_14  and  C_15
REMARK                            x       y       z     vdW  Elec       q    Type
REMARK                         _______ _______ _______ _____ _____    ______ ____
ROOT
ATOM      1  C   UNL     1       0.006  12.625  19.854  0.00  0.00    +0.000 A 
ATOM      2  N   UNL     1       0.597  11.542  19.294  0.00  0.00    +0.000 NA
ATOM      3  C   UNL     1       0.579  10.370  19.986  0.00  0.00    +0.000 A 
ATOM      4  C   UNL     1      -0.094  10.245  21.197  0.00  0.00    +0.000 A 
ATOM      5  C   UNL     1      -0.775  11.341  21.745  0.00  0.00    +0.000 A 
ATOM      6  C   UNL     1      -1.470  11.209  22.956  0.00  0.00    +0.000 A 
ATOM      7  C   UNL     1      -2.179  12.282  23.491  0.00  0.00    +0.000 A 
ATOM      8  C   UNL     1      -2.217  13.489  22.805  0.00  0.00    +0.000 A 
ATOM      9  C   UNL     1      -1.520  13.629  21.603  0.00  0.00    +0.000 A 
ATOM     10  C   UNL     1      -0.750  12.570  21.057  0.00  0.00    +0.000 A 
ENDROOT
BRANCH   3  11
ATOM     11  C   UNL     1       1.344   9.238  19.404  0.00  0.00    +0.000 A 
ATOM     12  C   UNL     1       1.814   9.255  18.091  0.00  0.00    +0.000 A 
ATOM     13  C   UNL     1       2.547   8.171  17.606  0.00  0.00    +0.000 A 
ATOM     14  C   UNL     1       2.800   7.093  18.441  0.00  0.00    +0.000 A 
ATOM     15  C   UNL     1       2.308   7.143  19.731  0.00  0.00    +0.000 A 
ATOM     16  N   UNL     1       1.593   8.178  20.226  0.00  0.00    +0.000 NA
ENDBRANCH   3  11
BRANCH   1  19
ATOM     17  C   UNL     1       1.061  14.813  19.529  0.00  0.00    +0.000 C 
ATOM     18  O   UNL     1       1.697  14.752  20.576  0.00  0.00    +0.000 OA
ATOM     19  N   UNL     1       0.201  13.810  19.106  0.00  0.00    +0.000 N 
ATOM     20  H   UNL     1       0.186  13.645  18.108  0.00  0.00    +0.000 HD
BRANCH  17  28
ATOM     21  C   UNL     1       3.587  15.165  17.788  0.00  0.00    +0.000 C 
ATOM     22  C   UNL     1       2.443  16.145  17.812  0.00  0.00    +0.000 A 
ATOM     23  C   UNL     1       2.553  17.246  16.936  0.00  0.00    +0.000 A 
ATOM     24  C   UNL     1       1.535  18.183  16.815  0.00  0.00    +0.000 A 
ATOM     25  C   UNL     1       0.378  18.031  17.562  0.00  0.00    +0.000 A 
ATOM     26  C   UNL     1       0.220  16.945  18.446  0.00  0.00    +0.000 A 
ATOM     27  C   UNL     1      -1.100  16.863  19.173  0.00  0.00    +0.000 C 
ATOM     28  C   UNL     1       1.272  15.995  18.603  0.00  0.00    +0.000 A 
ENDBRANCH  17  28
ENDBRANCH   1  19
TORSDOF 3
ENDMDL
MODEL 2
REMARK VINA RESULT:      -7.3      4.277      7.946
REMARK  Name = 
REMARK  5 active torsions:
REMARK  status: ('A' for Active; 'I' for Inactive)
REMARK    1  A    between atoms: C_1  and  C_2
REMARK    2  A    between atoms: C_6  and  C_7
REMARK    3  A    between atoms: C_8  and  C_9
REMARK    4  A    between atoms: N_11  and  C_12
REMARK    5  A    between atoms: C_14  and  C_15
REMARK                            x       y       z     vdW  Elec       q    Type
REMARK                         _______ _______ _______ _____ _____    ______ ____
ROOT
ATOM      1  C   UNL     1       2.479   5.627  18.745  0.00  0.00    +0.000 A 
ATOM      2  N   UNL     1       3.346   5.615  17.702  0.00  0.00    +0.000 NA
ATOM      3  C   UNL     1       4.234   4.587  17.617  0.00  0.00    +0.000 A 
ATOM      4  C   UNL     1       4.216   3.526  18.517  0.00  0.00    +0.000 A 
ATOM      5  C   UNL     1       3.271   3.494  19.553  0.00  0.00    +0.000 A 
ATOM      6  C   UNL     1       3.240   2.413  20.447  0.00  0.00    +0.000 A 
ATOM      7  C   UNL     1       2.284   2.353  21.458  0.00  0.00    +0.000 A 
ATOM      8  C   UNL     1       1.336   3.362  21.566  0.00  0.00    +0.000 A 
ATOM      9  C   UNL     1       1.366   4.444  20.682  0.00  0.00    +0.000 A 
ATOM     10  C   UNL     1       2.357   4.558  19.674  0.00  0.00    +0.000 A 
ENDROOT
BRANCH   3  11
ATOM     11  C   UNL     1       5.251   4.670  16.538  0.00  0.00    +0.000 A 
ATOM     12  C   UNL     1       4.975   4.284  15.225  0.00  0.00    +0.000 A 
ATOM     13  C   UNL     1       5.964   4.405  14.248  0.00  0.00    +0.000 A 
ATOM     14  C   UNL     1       7.206   4.912  14.597  0.00  0.00    +0.000 A 
ATOM     15  C   UNL     1       7.411   5.278  15.915  0.00  0.00    +0.000 A 
ATOM     16  N   UNL     1       6.473   5.169  16.882  0.00  0.00    +0.000 NA
ENDBRANCH   3  11
BRANCH   1  19
ATOM     17  C   UNL     1       1.819   7.722  19.833  0.00  0.00    +0.000 C 
ATOM     18  O   UNL     1       2.595   7.572  20.771  0.00  0.00    +0.000 OA
ATOM     19  N   UNL     1       1.697   6.805  18.799  0.00  0.00    +0.000 N 
ATOM     20  H   UNL     1       1.533   7.204  17.884  0.00  0.00    +0.000 HD
BRANCH  17  28
ATOM     21  C   UNL     1      -0.315   8.515  21.920  0.00  0.00    +0.000 C 
ATOM     22  C   UNL     1       0.022   9.345  20.709  0.00  0.00    +0.000 A 
ATOM     23  C   UNL     1      -0.666  10.572  20.587  0.00  0.00    +0.000 A 
ATOM     24  C   UNL     1      -0.396  11.458  19.553  0.00  0.00    +0.000 A 
ATOM     25  C   UNL     1       0.578  11.140  18.620  0.00  0.00    +0.000 A 
ATOM     26  C   UNL     1       1.296   9.929  18.703  0.00  0.00    +0.000 A 
ATOM     27  C   UNL     1       2.361   9.713  17.656  0.00  0.00    +0.000 C 
ATOM     28  C   UNL     1       1.004   8.997  19.742  0.00  0.00    +0.000 A 
ENDBRANCH  17  28
ENDBRANCH   1  19
TORSDOF 3
ENDMDL
MODEL 3
REMARK VINA RESULT:      -7.3      1.134      2.252
REMARK  Name = 
REMARK  5 active torsions:
REMARK  status: ('A' for Active; 'I' for Inactive)
REMARK    1  A    between atoms: C_1  and  C_2
REMARK    2  A    between atoms: C_6  and  C_7
REMARK    3  A    between atoms: C_8  and  C_9
REMARK    4  A    between atoms: N_11  and  C_12
REMARK    5  A    between atoms: C_14  and  C_15
REMARK                            x       y       z     vdW  Elec       q    Type
REMARK                         _______ _______ _______ _____ _____    ______ ____
ROOT
ATOM      1  C   UNL     1       0.780  11.380  19.748  0.00  0.00    +0.000 A 
ATOM      2  N   UNL     1       1.386  10.364  19.085  0.00  0.00    +0.000 NA
ATOM      3  C   UNL     1       1.410   9.137  19.674  0.00  0.00    +0.000 A 
ATOM      4  C   UNL     1       0.767   8.891  20.883  0.00  0.00    +0.000 A 
ATOM      5  C   UNL     1       0.072   9.919  21.536  0.00  0.00    +0.000 A 
ATOM      6  C   UNL     1      -0.594   9.665  22.744  0.00  0.00    +0.000 A 
ATOM      7  C   UNL     1      -1.317  10.670  23.383  0.00  0.00    +0.000 A 
ATOM      8  C   UNL     1      -1.398  11.930  22.805  0.00  0.00    +0.000 A 
ATOM      9  C   UNL     1      -0.731  12.190  21.606  0.00  0.00    +0.000 A 
ATOM     10  C   UNL     1       0.052  11.203  20.956  0.00  0.00    +0.000 A 
ENDROOT
BRANCH   3  11
ATOM     11  C   UNL     1       2.190   8.079  18.982  0.00  0.00    +0.000 A 
ATOM     12  C   UNL     1       2.814   8.298  17.753  0.00  0.00    +0.000 A 
ATOM     13  C   UNL     1       3.552   7.272  17.162  0.00  0.00    +0.000 A 
ATOM     14  C   UNL     1       3.656   6.050  17.808  0.00  0.00    +0.000 A 
ATOM     15  C   UNL     1       3.016   5.901  19.024  0.00  0.00    +0.000 A 
ATOM     16  N   UNL     1       2.292   6.876  19.618  0.00  0.00    +0.000 NA
ENDBRANCH   3  11
BRANCH   1  19
ATOM     17  C   UNL     1       1.760  13.622  19.603  0.00  0.00    +0.000 C 
ATOM     18  O   UNL     1       2.404  13.494  20.640  0.00  0.00    +0.000 OA
ATOM     19  N   UNL     1       0.931  12.629  19.101  0.00  0.00    +0.000 N 
ATOM     20  H   UNL     1       0.915  12.548  18.093  0.00  0.00    +0.000 HD
BRANCH  17  28
ATOM     21  C   UNL     1      -0.327  15.897  19.562  0.00  0.00    +0.000 C 
ATOM     22  C   UNL     1       0.952  15.919  18.768  0.00  0.00    +0.000 A 
ATOM     23  C   UNL     1       1.193  17.089  18.014  0.00  0.00    +0.000 A 
ATOM     24  C   UNL     1       2.367  17.260  17.293  0.00  0.00    +0.000 A 
ATOM     25  C   UNL     1       3.334  16.267  17.319  0.00  0.00    +0.000 A 
ATOM     26  C   UNL     1       3.141  15.085  18.062  0.00  0.00    +0.000 A 
ATOM     27  C   UNL     1       4.281  14.096  18.048  0.00  0.00    +0.000 C 
ATOM     28  C   UNL     1       1.925  14.883  18.779  0.00  0.00    +0.000 A 
ENDBRANCH  17  28
ENDBRANCH   1  19
TORSDOF 3
ENDMDL
MODEL 4
REMARK VINA RESULT:      -7.2      1.213      1.658
REMARK  Name = 
REMARK  5 active torsions:
REMARK  status: ('A' for Active; 'I' for Inactive)
REMARK    1  A    between atoms: C_1  and  C_2
REMARK    2  A    between atoms: C_6  and  C_7
REMARK    3  A    between atoms: C_8  and  C_9
REMARK    4  A    between atoms: N_11  and  C_12
REMARK    5  A    between atoms: C_14  and  C_15
REMARK                            x       y       z     vdW  Elec       q    Type
REMARK                         _______ _______ _______ _____ _____    ______ ____
ROOT
ATOM      1  C   UNL     1       0.894  11.251  19.828  0.00  0.00    +0.000 A 
ATOM      2  N   UNL     1       1.498  10.243  19.152  0.00  0.00    +0.000 NA
ATOM      3  C   UNL     1       1.491   9.001  19.708  0.00  0.00    +0.000 A 
ATOM      4  C   UNL     1       0.817   8.733  20.895  0.00  0.00    +0.000 A 
ATOM      5  C   UNL     1       0.123   9.755  21.560  0.00  0.00    +0.000 A 
ATOM      6  C   UNL     1      -0.573   9.479  22.746  0.00  0.00    +0.000 A 
ATOM      7  C   UNL     1      -1.294  10.479  23.396  0.00  0.00    +0.000 A 
ATOM      8  C   UNL     1      -1.344  11.754  22.850  0.00  0.00    +0.000 A 
ATOM      9  C   UNL     1      -0.645  12.036  21.673  0.00  0.00    +0.000 A 
ATOM     10  C   UNL     1       0.137  11.053  21.015  0.00  0.00    +0.000 A 
ENDROOT
BRANCH   3  11
ATOM     11  C   UNL     1       2.269   7.949  19.005  0.00  0.00    +0.000 A 
ATOM     12  C   UNL     1       2.920   8.189  17.794  0.00  0.00    +0.000 A 
ATOM     13  C   UNL     1       3.655   7.168  17.191  0.00  0.00    +0.000 A 
ATOM     14  C   UNL     1       3.730   5.929  17.809  0.00  0.00    +0.000 A 
ATOM     15  C   UNL     1       3.064   5.760  19.008  0.00  0.00    +0.000 A 
ATOM     16  N   UNL     1       2.343   6.730  19.613  0.00  0.00    +0.000 NA
ENDBRANCH   3  11
BRANCH   1  19
ATOM     17  C   UNL     1       1.877  13.495  19.787  0.00  0.00    +0.000 C 
ATOM     18  O   UNL     1       2.464  13.345  20.854  0.00  0.00    +0.000 OA
ATOM     19  N   UNL     1       1.079  12.514  19.218  0.00  0.00    +0.000 N 
ATOM     20  H   UNL     1       1.117  12.455  18.209  0.00  0.00    +0.000 HD
BRANCH  17  28
ATOM     21  C   UNL     1       4.365  14.014  18.032  0.00  0.00    +0.000 C 
ATOM     22  C   UNL     1       3.239  15.000  18.202  0.00  0.00    +0.000 A 
ATOM     23  C   UNL     1       3.346  16.195  17.459  0.00  0.00    +0.000 A 
ATOM     24  C   UNL     1       2.342  17.155  17.476  0.00  0.00    +0.000 A 
ATOM     25  C   UNL     1       1.201  16.933  18.231  0.00  0.00    +0.000 A 
ATOM     26  C   UNL     1       1.047  15.752  18.985  0.00  0.00    +0.000 A 
ATOM     27  C   UNL     1      -0.255  15.604  19.733  0.00  0.00    +0.000 C 
ATOM     28  C   UNL     1       2.086  14.775  19.001  0.00  0.00    +0.000 A 
ENDBRANCH  17  28
ENDBRANCH   1  19
TORSDOF 3
ENDMDL
MODEL 5
REMARK VINA RESULT:      -7.2      4.269      7.820
REMARK  Name = 
REMARK  5 active torsions:
REMARK  status: ('A' for Active; 'I' for Inactive)
REMARK    1  A    between atoms: C_1  and  C_2
REMARK    2  A    between atoms: C_6  and  C_7
REMARK    3  A    between atoms: C_8  and  C_9
REMARK    4  A    between atoms: N_11  and  C_12
REMARK    5  A    between atoms: C_14  and  C_15
REMARK                            x       y       z     vdW  Elec       q    Type
REMARK                         _______ _______ _______ _____ _____    ______ ____
ROOT
ATOM      1  C   UNL     1       2.455   5.674  18.709  0.00  0.00    +0.000 A 
ATOM      2  N   UNL     1       3.311   5.644  17.659  0.00  0.00    +0.000 NA
ATOM      3  C   UNL     1       4.164   4.589  17.555  0.00  0.00    +0.000 A 
ATOM      4  C   UNL     1       4.119   3.520  18.445  0.00  0.00    +0.000 A 
ATOM      5  C   UNL     1       3.183   3.507  19.488  0.00  0.00    +0.000 A 
ATOM      6  C   UNL     1       3.124   2.419  20.371  0.00  0.00    +0.000 A 
ATOM      7  C   UNL     1       2.174   2.380  21.390  0.00  0.00    +0.000 A 
ATOM      8  C   UNL     1       1.261   3.418  21.516  0.00  0.00    +0.000 A 
ATOM      9  C   UNL     1       1.320   4.507  20.644  0.00  0.00    +0.000 A 
ATOM     10  C   UNL     1       2.305   4.600  19.628  0.00  0.00    +0.000 A 
ENDROOT
BRANCH   3  11
ATOM     11  C   UNL     1       5.174   4.650  16.468  0.00  0.00    +0.000 A 
ATOM     12  C   UNL     1       4.886   4.251  15.162  0.00  0.00    +0.000 A 
ATOM     13  C   UNL     1       5.868   4.352  14.176  0.00  0.00    +0.000 A 
ATOM     14  C   UNL     1       7.118   4.852  14.511  0.00  0.00    +0.000 A 
ATOM     15  C   UNL     1       7.336   5.231  15.822  0.00  0.00    +0.000 A 
ATOM     16  N   UNL     1       6.403   5.142  16.797  0.00  0.00    +0.000 NA
ENDBRANCH   3  11
BRANCH   1  19
ATOM     17  C   UNL     1       1.852   7.764  19.839  0.00  0.00    +0.000 C 
ATOM     18  O   UNL     1       2.612   7.567  20.782  0.00  0.00    +0.000 OA
ATOM     19  N   UNL     1       1.712   6.876  18.782  0.00  0.00    +0.000 N 
ATOM     20  H   UNL     1       1.572   7.301  17.875  0.00  0.00    +0.000 HD
BRANCH  17  28
ATOM     21  C   UNL     1       2.305   9.876  17.632  0.00  0.00    +0.000 C 
ATOM     22  C   UNL     1       1.307  10.032  18.749  0.00  0.00    +0.000 A 
ATOM     23  C   UNL     1       0.520  11.204  18.716  0.00  0.00    +0.000 A 
ATOM     24  C   UNL     1      -0.482  11.433  19.650  0.00  0.00    +0.000 A 
ATOM     25  C   UNL     1      -0.727  10.486  20.633  0.00  0.00    +0.000 A 
ATOM     26  C   UNL     1       0.029   9.299  20.702  0.00  0.00    +0.000 A 
ATOM     27  C   UNL     1      -0.357   8.326  21.789  0.00  0.00    +0.000 C 
ATOM     28  C   UNL     1       1.082   9.068  19.769  0.00  0.00    +0.000 A 
ENDBRANCH  17  28
ENDBRANCH   1  19
TORSDOF 3
ENDMDL
MODEL 6
REMARK VINA RESULT:      -7.2      0.846      1.918
REMARK  Name = 
REMARK  5 active torsions:
REMARK  status: ('A' for Active; 'I' for Inactive)
REMARK    1  A    between atoms: C_1  and  C_2
REMARK    2  A    between atoms: C_6  and  C_7
REMARK    3  A    between atoms: C_8  and  C_9
REMARK    4  A    between atoms: N_11  and  C_12
REMARK    5  A    between atoms: C_14  and  C_15
REMARK                            x       y       z     vdW  Elec       q    Type
REMARK                         _______ _______ _______ _____ _____    ______ ____
ROOT
ATOM      1  C   UNL     1      -0.734  13.125  19.904  0.00  0.00    +0.000 A 
ATOM      2  N   UNL     1      -0.087  12.041  19.407  0.00  0.00    +0.000 NA
ATOM      3  C   UNL     1      -0.055  10.910  20.163  0.00  0.00    +0.000 A 
ATOM      4  C   UNL     1      -0.731  10.819  21.376  0.00  0.00    +0.000 A 
ATOM      5  C   UNL     1      -1.467  11.911  21.859  0.00  0.00    +0.000 A 
ATOM      6  C   UNL     1      -2.165  11.812  23.071  0.00  0.00    +0.000 A 
ATOM      7  C   UNL     1      -2.928  12.878  23.543  0.00  0.00    +0.000 A 
ATOM      8  C   UNL     1      -3.017  14.042  22.792  0.00  0.00    +0.000 A 
ATOM      9  C   UNL     1      -2.318  14.149  21.586  0.00  0.00    +0.000 A 
ATOM     10  C   UNL     1      -1.495  13.100  21.104  0.00  0.00    +0.000 A 
ENDROOT
BRANCH   3  11
ATOM     11  C   UNL     1       0.767   9.785  19.649  0.00  0.00    +0.000 A 
ATOM     12  C   UNL     1       1.172   9.709  18.316  0.00  0.00    +0.000 A 
ATOM     13  C   UNL     1       1.964   8.639  17.895  0.00  0.00    +0.000 A 
ATOM     14  C   UNL     1       2.338   7.669  18.812  0.00  0.00    +0.000 A 
ATOM     15  C   UNL     1       1.904   7.807  20.117  0.00  0.00    +0.000 A 
ATOM     16  N   UNL     1       1.135   8.830  20.551  0.00  0.00    +0.000 NA
ENDBRANCH   3  11
BRANCH   1  19
ATOM     17  C   UNL     1       0.232  15.332  19.456  0.00  0.00    +0.000 C 
ATOM     18  O   UNL     1       0.873  15.352  20.501  0.00  0.00    +0.000 OA
ATOM     19  N   UNL     1      -0.589  14.274  19.092  0.00  0.00    +0.000 N 
ATOM     20  H   UNL     1      -0.602  14.056  18.105  0.00  0.00    +0.000 HD
BRANCH  17  28
ATOM     21  C   UNL     1      -1.948  17.464  18.968  0.00  0.00    +0.000 C 
ATOM     22  C   UNL     1      -0.624  17.441  18.251  0.00  0.00    +0.000 A 
ATOM     23  C   UNL     1      -0.389  18.502  17.349  0.00  0.00    +0.000 A 
ATOM     24  C   UNL     1       0.819  18.631  16.677  0.00  0.00    +0.000 A 
ATOM     25  C   UNL     1       1.825  17.705  16.901  0.00  0.00    +0.000 A 
ATOM     26  C   UNL     1       1.640  16.632  17.796  0.00  0.00    +0.000 A 
ATOM     27  C   UNL     1       2.821  15.713  17.990  0.00  0.00    +0.000 C 
ATOM     28  C   UNL     1       0.391  16.470  18.467  0.00  0.00    +0.000 A 
ENDBRANCH  17  28
ENDBRANCH   1  19
TORSDOF 3
ENDMDL
MODEL 7
REMARK VINA RESULT:      -7.1      0.821      1.132
REMARK  Name = 
REMARK  5 active torsions:
REMARK  status: ('A' for Active; 'I' for Inactive)
REMARK    1  A    between atoms: C_1  and  C_2
REMARK    2  A    between atoms: C_6  and  C_7
REMARK    3  A    between atoms: C_8  and  C_9
REMARK    4  A    between atoms: N_11  and  C_12
REMARK    5  A    between atoms: C_14  and  C_15
REMARK                            x       y       z     vdW  Elec       q    Type
REMARK                         _______ _______ _______ _____ _____    ______ ____
ROOT
ATOM      1  C   UNL     1       0.393  12.080  19.851  0.00  0.00    +0.000 A 
ATOM      2  N   UNL     1       1.000  11.005  19.291  0.00  0.00    +0.000 NA
ATOM      3  C   UNL     1       0.949   9.819  19.955  0.00  0.00    +0.000 A 
ATOM      4  C   UNL     1       0.230   9.671  21.138  0.00  0.00    +0.000 A 
ATOM      5  C   UNL     1      -0.465  10.760  21.682  0.00  0.00    +0.000 A 
ATOM      6  C   UNL     1      -1.207  10.605  22.863  0.00  0.00    +0.000 A 
ATOM      7  C   UNL     1      -1.930  11.671  23.394  0.00  0.00    +0.000 A 
ATOM      8  C   UNL     1      -1.936  12.892  22.734  0.00  0.00    +0.000 A 
ATOM      9  C   UNL     1      -1.192  13.054  21.562  0.00  0.00    +0.000 A 
ATOM     10  C   UNL     1      -0.408  12.003  21.023  0.00  0.00    +0.000 A 
ENDROOT
BRANCH   3  11
ATOM     11  C   UNL     1       1.730   8.695  19.378  0.00  0.00    +0.000 A 
ATOM     12  C   UNL     1       1.959   7.510  20.080  0.00  0.00    +0.000 A 
ATOM     13  C   UNL     1       2.681   6.480  19.478  0.00  0.00    +0.000 A 
ATOM     14  C   UNL     1       3.159   6.649  18.187  0.00  0.00    +0.000 A 
ATOM     15  C   UNL     1       2.895   7.846  17.548  0.00  0.00    +0.000 A 
ATOM     16  N   UNL     1       2.200   8.861  18.108  0.00  0.00    +0.000 NA
ENDBRANCH   3  11
BRANCH   1  19
ATOM     17  C   UNL     1       1.427  14.292  19.641  0.00  0.00    +0.000 C 
ATOM     18  O   UNL     1       1.979  14.226  20.734  0.00  0.00    +0.000 OA
ATOM     19  N   UNL     1       0.623  13.279  19.137  0.00  0.00    +0.000 N 
ATOM     20  H   UNL     1       0.690  13.129  18.139  0.00  0.00    +0.000 HD
BRANCH  17  28
ATOM     21  C   UNL     1       3.998  14.625  17.963  0.00  0.00    +0.000 C 
ATOM     22  C   UNL     1       2.877  15.632  17.989  0.00  0.00    +0.000 A 
ATOM     23  C   UNL     1       3.032  16.752  17.144  0.00  0.00    +0.000 A 
ATOM     24  C   UNL     1       2.041  17.717  17.026  0.00  0.00    +0.000 A 
ATOM     25  C   UNL     1       0.864  17.575  17.745  0.00  0.00    +0.000 A 
ATOM     26  C   UNL     1       0.661  16.471  18.597  0.00  0.00    +0.000 A 
ATOM     27  C   UNL     1      -0.675  16.404  19.294  0.00  0.00    +0.000 C 
ATOM     28  C   UNL     1       1.686  15.491  18.751  0.00  0.00    +0.000 A 
ENDBRANCH  17  28
ENDBRANCH   1  19
TORSDOF 3
ENDMDL
MODEL 8
REMARK VINA RESULT:      -7.1      0.898      2.083
REMARK  Name = 
REMARK  5 active torsions:
REMARK  status: ('A' for Active; 'I' for Inactive)
REMARK    1  A    between atoms: C_1  and  C_2
REMARK    2  A    between atoms: C_6  and  C_7
REMARK    3  A    between atoms: C_8  and  C_9
REMARK    4  A    between atoms: N_11  and  C_12
REMARK    5  A    between atoms: C_14  and  C_15
REMARK                            x       y       z     vdW  Elec       q    Type
REMARK                         _______ _______ _______ _____ _____    ______ ____
ROOT
ATOM      1  C   UNL     1       0.413  11.933  19.849  0.00  0.00    +0.000 A 
ATOM      2  N   UNL     1       1.030  10.863  19.291  0.00  0.00    +0.000 NA
ATOM      3  C   UNL     1       1.001   9.681  19.965  0.00  0.00    +0.000 A 
ATOM      4  C   UNL     1       0.294   9.533  21.155  0.00  0.00    +0.000 A 
ATOM      5  C   UNL     1      -0.412  10.616  21.697  0.00  0.00    +0.000 A 
ATOM      6  C   UNL     1      -1.142  10.460  22.885  0.00  0.00    +0.000 A 
ATOM      7  C   UNL     1      -1.875  11.519  23.414  0.00  0.00    +0.000 A 
ATOM      8  C   UNL     1      -1.903  12.736  22.746  0.00  0.00    +0.000 A 
ATOM      9  C   UNL     1      -1.171  12.899  21.566  0.00  0.00    +0.000 A 
ATOM     10  C   UNL     1      -0.377  11.855  21.028  0.00  0.00    +0.000 A 
ENDROOT
BRANCH   3  11
ATOM     11  C   UNL     1       1.793   8.564  19.390  0.00  0.00    +0.000 A 
ATOM     12  C   UNL     1       2.004   7.370  20.080  0.00  0.00    +0.000 A 
ATOM     13  C   UNL     1       2.738   6.346  19.480  0.00  0.00    +0.000 A 
ATOM     14  C   UNL     1       3.243   6.531  18.202  0.00  0.00    +0.000 A 
ATOM     15  C   UNL     1       2.995   7.737  17.574  0.00  0.00    +0.000 A 
ATOM     16  N   UNL     1       2.290   8.747  18.133  0.00  0.00    +0.000 NA
ENDBRANCH   3  11
BRANCH   1  19
ATOM     17  C   UNL     1       1.436  14.147  19.602  0.00  0.00    +0.000 C 
ATOM     18  O   UNL     1       2.017  14.087  20.680  0.00  0.00    +0.000 OA
ATOM     19  N   UNL     1       0.621  13.130  19.124  0.00  0.00    +0.000 N 
ATOM     20  H   UNL     1       0.661  12.977  18.126  0.00  0.00    +0.000 HD
BRANCH  17  28
ATOM     21  C   UNL     1      -0.585  16.465  19.318  0.00  0.00    +0.000 C 
ATOM     22  C   UNL     1       0.725  16.400  18.577  0.00  0.00    +0.000 A 
ATOM     23  C   UNL     1       1.027  17.508  17.756  0.00  0.00    +0.000 A 
ATOM     24  C   UNL     1       2.233  17.600  17.074  0.00  0.00    +0.000 A 
ATOM     25  C   UNL     1       3.171  16.588  17.209  0.00  0.00    +0.000 A 
ATOM     26  C   UNL     1       2.916  15.465  18.022  0.00  0.00    +0.000 A 
ATOM     27  C   UNL     1       4.028  14.450  18.124  0.00  0.00    +0.000 C 
ATOM     28  C   UNL     1       1.668  15.344  18.701  0.00  0.00    +0.000 A 
ENDBRANCH  17  28
ENDBRANCH   1  19
TORSDOF 3
ENDMDL
MODEL 9
REMARK VINA RESULT:      -7.0      3.985      7.732
REMARK  Name = 
REMARK  5 active torsions:
REMARK  status: ('A' for Active; 'I' for Inactive)
REMARK    1  A    between atoms: C_1  and  C_2
REMARK    2  A    between atoms: C_6  and  C_7
REMARK    3  A    between atoms: C_8  and  C_9
REMARK    4  A    between atoms: N_11  and  C_12
REMARK    5  A    between atoms: C_14  and  C_15
REMARK                            x       y       z     vdW  Elec       q    Type
REMARK                         _______ _______ _______ _____ _____    ______ ____
ROOT
ATOM      1  C   UNL     1       2.892   6.066  19.018  0.00  0.00    +0.000 A 
ATOM      2  N   UNL     1       3.742   6.111  17.963  0.00  0.00    +0.000 NA
ATOM      3  C   UNL     1       4.253   4.938  17.500  0.00  0.00    +0.000 A 
ATOM      4  C   UNL     1       3.864   3.710  18.026  0.00  0.00    +0.000 A 
ATOM      5  C   UNL     1       2.925   3.652  19.065  0.00  0.00    +0.000 A 
ATOM      6  C   UNL     1       2.517   2.413  19.581  0.00  0.00    +0.000 A 
ATOM      7  C   UNL     1       1.559   2.342  20.590  0.00  0.00    +0.000 A 
ATOM      8  C   UNL     1       0.984   3.510  21.073  0.00  0.00    +0.000 A 
ATOM      9  C   UNL     1       1.392   4.747  20.568  0.00  0.00    +0.000 A 
ATOM     10  C   UNL     1       2.399   4.855  19.576  0.00  0.00    +0.000 A 
ENDROOT
BRANCH   3  11
ATOM     11  C   UNL     1       5.278   5.032  16.428  0.00  0.00    +0.000 A 
ATOM     12  C   UNL     1       6.433   5.802  16.569  0.00  0.00    +0.000 A 
ATOM     13  C   UNL     1       7.371   5.834  15.537  0.00  0.00    +0.000 A 
ATOM     14  C   UNL     1       7.141   5.095  14.386  0.00  0.00    +0.000 A 
ATOM     15  C   UNL     1       5.978   4.352  14.313  0.00  0.00    +0.000 A 
ATOM     16  N   UNL     1       5.051   4.305  15.296  0.00  0.00    +0.000 NA
ENDBRANCH   3  11
BRANCH   1  19
ATOM     17  C   UNL     1       1.666   8.176  18.786  0.00  0.00    +0.000 C 
ATOM     18  O   UNL     1       1.169   7.862  17.710  0.00  0.00    +0.000 OA
ATOM     19  N   UNL     1       2.530   7.350  19.490  0.00  0.00    +0.000 N 
ATOM     20  H   UNL     1       2.435   7.380  20.497  0.00  0.00    +0.000 HD
BRANCH  17  28
ATOM     21  C   UNL     1       0.091   8.348  21.437  0.00  0.00    +0.000 C 
ATOM     22  C   UNL     1       0.539   9.551  20.648  0.00  0.00    +0.000 A 
ATOM     23  C   UNL     1       0.243  10.809  21.217  0.00  0.00    +0.000 A 
ATOM     24  C   UNL     1       0.661  11.993  20.622  0.00  0.00    +0.000 A 
ATOM     25  C   UNL     1       1.396  11.942  19.449  0.00  0.00    +0.000 A 
ATOM     26  C   UNL     1       1.721  10.710  18.846  0.00  0.00    +0.000 A 
ATOM     27  C   UNL     1       2.560  10.780  17.595  0.00  0.00    +0.000 C 
ATOM     28  C   UNL     1       1.268   9.489  19.430  0.00  0.00    +0.000 A 
ENDBRANCH  17  28
ENDBRANCH   1  19
TORSDOF 3
ENDMDL
