MODEL 1
REMARK VINA RESULT:      -8.6      0.000      0.000
REMARK  Name = 
REMARK  6 active torsions:
REMARK  status: ('A' for Active; 'I' for Inactive)
REMARK    1  A    between atoms: C_1  and  N_2
REMARK    2  A    between atoms: C_4  and  C_5
REMARK    3  A    between atoms: N_15  and  C_16
REMARK    4  A    between atoms: C_16  and  C_17
REMARK    5  A    between atoms: C_17  and  C_18
REMARK    6  A    between atoms: N_20  and  C_21
REMARK                            x       y       z     vdW  Elec       q    Type
REMARK                         _______ _______ _______ _____ _____    ______ ____
ROOT
ATOM      1  C   UNL     1       7.750   5.894  19.452  0.00  0.00    +0.000 C 
ATOM      2  N   UNL     1       7.142   5.205  18.340  0.00  0.00    +0.000 N 
ATOM      3  C   UNL     1       7.430   5.357  17.024  0.00  0.00    +0.000 A 
ATOM      4  C   UNL     1       6.605   4.484  16.336  0.00  0.00    +0.000 A 
ATOM      5  C   UNL     1       5.823   3.865  17.358  0.00  0.00    +0.000 A 
ATOM      6  N   UNL     1       4.836   2.912  17.179  0.00  0.00    +0.000 N 
ATOM      7  C   UNL     1       3.863   2.555  18.072  0.00  0.00    +0.000 C 
ATOM      8  O   UNL     1       3.053   1.671  17.800  0.00  0.00    +0.000 OA
ATOM      9  N   UNL     1       3.793   3.295  19.211  0.00  0.00    +0.000 N 
ATOM     10  N   UNL     1       6.154   4.332  18.572  0.00  0.00    +0.000 NA
ATOM     11  H   UNL     1       4.778   2.460  16.280  0.00  0.00    +0.000 HD
ATOM     12  H   UNL     1       4.615   3.870  19.402  0.00  0.00    +0.000 HD
ENDROOT
BRANCH   4  13
ATOM     13  C   UNL     1       6.552   4.464  14.879  0.00  0.00    +0.000 A 
ATOM     14  C   UNL     1       5.592   3.682  14.216  0.00  0.00    +0.000 A 
ATOM     15  C   UNL     1       5.628   3.525  12.828  0.00  0.00    +0.000 A 
ATOM     16  C   UNL     1       6.609   4.169  12.082  0.00  0.00    +0.000 A 
ATOM     17  C   UNL     1       7.542   4.983  12.720  0.00  0.00    +0.000 A 
ATOM     18  C   UNL     1       7.518   5.129  14.112  0.00  0.00    +0.000 A 
ENDBRANCH   4  13
BRANCH   9  19
ATOM     19  C   UNL     1       2.745   3.200  20.190  0.00  0.00    +0.000 C 
BRANCH  19  20
ATOM     20  C   UNL     1       2.515   4.515  20.914  0.00  0.00    +0.000 C 
BRANCH  20  21
ATOM     21  C   UNL     1       2.039   5.561  19.932  0.00  0.00    +0.000 C 
ATOM     22  O   UNL     1       1.489   5.225  18.888  0.00  0.00    +0.000 OA
ATOM     23  N   UNL     1       2.298   6.857  20.347  0.00  0.00    +0.000 N 
ATOM     24  H   UNL     1       2.915   6.973  21.145  0.00  0.00    +0.000 HD
BRANCH  23  25
ATOM     25  C   UNL     1       1.888   8.040  19.698  0.00  0.00    +0.000 A 
ATOM     26  C   UNL     1       2.315   8.401  18.419  0.00  0.00    +0.000 A 
ATOM     27  C   UNL     1       1.895   9.601  17.840  0.00  0.00    +0.000 A 
ATOM     28  C   UNL     1       1.040  10.450  18.536  0.00  0.00    +0.000 A 
ATOM     29  C   UNL     1       0.585  10.088  19.801  0.00  0.00    +0.000 A 
ATOM     30  C   UNL     1       0.998   8.882  20.375  0.00  0.00    +0.000 A 
ENDBRANCH  23  25
ENDBRANCH  20  21
ENDBRANCH  19  20
ENDBRANCH   9  19
TORSDOF 5
ENDMDL
MODEL 2
REMARK VINA RESULT:      -8.5      4.283      7.465
REMARK  Name = 
REMARK  6 active torsions:
REMARK  status: ('A' for Active; 'I' for Inactive)
REMARK    1  A    between atoms: C_1  and  N_2
REMARK    2  A    between atoms: C_4  and  C_5
REMARK    3  A    between atoms: N_15  and  C_16
REMARK    4  A    between atoms: C_16  and  C_17
REMARK    5  A    between atoms: C_17  and  C_18
REMARK    6  A    between atoms: N_20  and  C_21
REMARK                            x       y       z     vdW  Elec       q    Type
REMARK                         _______ _______ _______ _____ _____    ______ ____
ROOT
ATOM      1  C   UNL     1       2.224   9.482  17.816  0.00  0.00    +0.000 C 
ATOM      2  N   UNL     1       2.532   8.096  18.071  0.00  0.00    +0.000 N 
ATOM      3  C   UNL     1       1.787   7.205  18.771  0.00  0.00    +0.000 A 
ATOM      4  C   UNL     1       2.475   6.004  18.739  0.00  0.00    +0.000 A 
ATOM      5  C   UNL     1       3.661   6.301  18.001  0.00  0.00    +0.000 A 
ATOM      6  N   UNL     1       4.687   5.424  17.699  0.00  0.00    +0.000 N 
ATOM      7  C   UNL     1       5.956   5.745  17.301  0.00  0.00    +0.000 C 
ATOM      8  O   UNL     1       6.774   4.865  17.038  0.00  0.00    +0.000 OA
ATOM      9  N   UNL     1       6.271   7.067  17.310  0.00  0.00    +0.000 N 
ATOM     10  N   UNL     1       3.685   7.587  17.618  0.00  0.00    +0.000 NA
ATOM     11  H   UNL     1       4.517   4.439  17.835  0.00  0.00    +0.000 HD
ATOM     12  H   UNL     1       5.472   7.700  17.369  0.00  0.00    +0.000 HD
ENDROOT
BRANCH   4  13
ATOM     13  C   UNL     1       2.028   4.842  19.499  0.00  0.00    +0.000 A 
ATOM     14  C   UNL     1       2.283   4.757  20.877  0.00  0.00    +0.000 A 
ATOM     15  C   UNL     1       2.007   3.586  21.588  0.00  0.00    +0.000 A 
ATOM     16  C   UNL     1       1.449   2.493  20.933  0.00  0.00    +0.000 A 
ATOM     17  C   UNL     1       1.151   2.576  19.575  0.00  0.00    +0.000 A 
ATOM     18  C   UNL     1       1.441   3.742  18.858  0.00  0.00    +0.000 A 
ENDBRANCH   4  13
BRANCH   9  19
ATOM     19  C   UNL     1       7.589   7.599  17.097  0.00  0.00    +0.000 C 
BRANCH  19  20
ATOM     20  C   UNL     1       8.300   7.914  18.402  0.00  0.00    +0.000 C 
BRANCH  20  21
ATOM     21  C   UNL     1       8.581   9.396  18.485  0.00  0.00    +0.000 C 
ATOM     22  O   UNL     1       8.084  10.167  17.670  0.00  0.00    +0.000 OA
ATOM     23  N   UNL     1       9.422   9.735  19.532  0.00  0.00    +0.000 N 
ATOM     24  H   UNL     1       9.893   8.974  20.011  0.00  0.00    +0.000 HD
BRANCH  23  25
ATOM     25  C   UNL     1       9.785  11.040  19.924  0.00  0.00    +0.000 A 
ATOM     26  C   UNL     1      10.666  11.842  19.197  0.00  0.00    +0.000 A 
ATOM     27  C   UNL     1      11.009  13.118  19.653  0.00  0.00    +0.000 A 
ATOM     28  C   UNL     1      10.470  13.603  20.840  0.00  0.00    +0.000 A 
ATOM     29  C   UNL     1       9.569  12.824  21.560  0.00  0.00    +0.000 A 
ATOM     30  C   UNL     1       9.219  11.551  21.098  0.00  0.00    +0.000 A 
ENDBRANCH  23  25
ENDBRANCH  20  21
ENDBRANCH  19  20
ENDBRANCH   9  19
TORSDOF 5
ENDMDL
MODEL 3
REMARK VINA RESULT:      -8.5      3.412      5.474
REMARK  Name = 
REMARK  6 active torsions:
REMARK  status: ('A' for Active; 'I' for Inactive)
REMARK    1  A    between atoms: C_1  and  N_2
REMARK    2  A    between atoms: C_4  and  C_5
REMARK    3  A    between atoms: N_15  and  C_16
REMARK    4  A    between atoms: C_16  and  C_17
REMARK    5  A    between atoms: C_17  and  C_18
REMARK    6  A    between atoms: N_20  and  C_21
REMARK                            x       y       z     vdW  Elec       q    Type
REMARK                         _______ _______ _______ _____ _____    ______ ____
ROOT
ATOM      1  C   UNL     1       2.174   3.341  21.664  0.00  0.00    +0.000 C 
ATOM      2  N   UNL     1       2.730   4.014  20.515  0.00  0.00    +0.000 N 
ATOM      3  C   UNL     1       3.701   3.555  19.686  0.00  0.00    +0.000 A 
ATOM      4  C   UNL     1       3.896   4.534  18.727  0.00  0.00    +0.000 A 
ATOM      5  C   UNL     1       2.991   5.574  19.101  0.00  0.00    +0.000 A 
ATOM      6  N   UNL     1       2.813   6.785  18.456  0.00  0.00    +0.000 N 
ATOM      7  C   UNL     1       2.220   7.909  18.962  0.00  0.00    +0.000 C 
ATOM      8  O   UNL     1       2.101   8.921  18.274  0.00  0.00    +0.000 OA
ATOM      9  N   UNL     1       1.870   7.864  20.275  0.00  0.00    +0.000 N 
ATOM     10  N   UNL     1       2.303   5.244  20.204  0.00  0.00    +0.000 NA
ATOM     11  H   UNL     1       3.204   6.886  17.531  0.00  0.00    +0.000 HD
ATOM     12  H   UNL     1       1.853   6.928  20.684  0.00  0.00    +0.000 HD
ENDROOT
BRANCH   4  13
ATOM     13  C   UNL     1       4.961   4.436  17.735  0.00  0.00    +0.000 A 
ATOM     14  C   UNL     1       6.302   4.598  18.118  0.00  0.00    +0.000 A 
ATOM     15  C   UNL     1       7.319   4.668  17.162  0.00  0.00    +0.000 A 
ATOM     16  C   UNL     1       7.009   4.552  15.811  0.00  0.00    +0.000 A 
ATOM     17  C   UNL     1       5.689   4.348  15.417  0.00  0.00    +0.000 A 
ATOM     18  C   UNL     1       4.667   4.294  16.372  0.00  0.00    +0.000 A 
ENDBRANCH   4  13
BRANCH   9  19
ATOM     19  C   UNL     1       1.399   8.986  21.039  0.00  0.00    +0.000 C 
BRANCH  19  20
ATOM     20  C   UNL     1       0.037   8.728  21.659  0.00  0.00    +0.000 C 
BRANCH  20  21
ATOM     21  C   UNL     1      -0.299   9.836  22.631  0.00  0.00    +0.000 C 
ATOM     22  O   UNL     1       0.141   9.810  23.776  0.00  0.00    +0.000 OA
ATOM     23  N   UNL     1      -1.118  10.810  22.086  0.00  0.00    +0.000 N 
ATOM     24  H   UNL     1      -1.544  10.606  21.186  0.00  0.00    +0.000 HD
BRANCH  23  25
ATOM     25  C   UNL     1      -1.520  12.010  22.708  0.00  0.00    +0.000 A 
ATOM     26  C   UNL     1      -0.717  13.150  22.765  0.00  0.00    +0.000 A 
ATOM     27  C   UNL     1      -1.161  14.301  23.421  0.00  0.00    +0.000 A 
ATOM     28  C   UNL     1      -2.416  14.322  24.024  0.00  0.00    +0.000 A 
ATOM     29  C   UNL     1      -3.236  13.200  23.950  0.00  0.00    +0.000 A 
ATOM     30  C   UNL     1      -2.796  12.052  23.284  0.00  0.00    +0.000 A 
ENDBRANCH  23  25
ENDBRANCH  20  21
ENDBRANCH  19  20
ENDBRANCH   9  19
TORSDOF 5
ENDMDL
MODEL 4
REMARK VINA RESULT:      -8.5      4.339      7.415
REMARK  Name = 
REMARK  6 active torsions:
REMARK  status: ('A' for Active; 'I' for Inactive)
REMARK    1  A    between atoms: C_1  and  N_2
REMARK    2  A    between atoms: C_4  and  C_5
REMARK    3  A    between atoms: N_15  and  C_16
REMARK    4  A    between atoms: C_16  and  C_17
REMARK    5  A    between atoms: C_17  and  C_18
REMARK    6  A    between atoms: N_20  and  C_21
REMARK                            x       y       z     vdW  Elec       q    Type
REMARK                         _______ _______ _______ _____ _____    ______ ____
ROOT
ATOM      1  C   UNL     1       2.279   9.559  17.868  0.00  0.00    +0.000 C 
ATOM      2  N   UNL     1       2.548   8.143  17.923  0.00  0.00    +0.000 N 
ATOM      3  C   UNL     1       1.762   7.179  18.462  0.00  0.00    +0.000 A 
ATOM      4  C   UNL     1       2.424   5.978  18.271  0.00  0.00    +0.000 A 
ATOM      5  C   UNL     1       3.639   6.349  17.619  0.00  0.00    +0.000 A 
ATOM      6  N   UNL     1       4.654   5.499  17.218  0.00  0.00    +0.000 N 
ATOM      7  C   UNL     1       5.941   5.841  16.906  0.00  0.00    +0.000 C 
ATOM      8  O   UNL     1       6.748   4.988  16.539  0.00  0.00    +0.000 OA
ATOM      9  N   UNL     1       6.286   7.139  17.120  0.00  0.00    +0.000 N 
ATOM     10  N   UNL     1       3.703   7.676  17.431  0.00  0.00    +0.000 NA
ATOM     11  H   UNL     1       4.458   4.509  17.201  0.00  0.00    +0.000 HD
ATOM     12  H   UNL     1       5.499   7.777  17.251  0.00  0.00    +0.000 HD
ENDROOT
BRANCH   4  13
ATOM     13  C   UNL     1       1.928   4.729  18.838  0.00  0.00    +0.000 A 
ATOM     14  C   UNL     1       1.607   4.649  20.202  0.00  0.00    +0.000 A 
ATOM     15  C   UNL     1       1.285   3.425  20.795  0.00  0.00    +0.000 A 
ATOM     16  C   UNL     1       1.257   2.268  20.023  0.00  0.00    +0.000 A 
ATOM     17  C   UNL     1       1.531   2.337  18.659  0.00  0.00    +0.000 A 
ATOM     18  C   UNL     1       1.869   3.560  18.068  0.00  0.00    +0.000 A 
ENDBRANCH   4  13
BRANCH   9  19
ATOM     19  C   UNL     1       7.621   7.661  17.024  0.00  0.00    +0.000 C 
BRANCH  19  20
ATOM     20  C   UNL     1       8.227   7.944  18.389  0.00  0.00    +0.000 C 
BRANCH  20  21
ATOM     21  C   UNL     1       8.559   9.414  18.504  0.00  0.00    +0.000 C 
ATOM     22  O   UNL     1       8.106  10.217  17.694  0.00  0.00    +0.000 OA
ATOM     23  N   UNL     1       9.391   9.703  19.572  0.00  0.00    +0.000 N 
ATOM     24  H   UNL     1       9.826   8.917  20.047  0.00  0.00    +0.000 HD
BRANCH  23  25
ATOM     25  C   UNL     1       9.794  10.987  19.995  0.00  0.00    +0.000 A 
ATOM     26  C   UNL     1       9.185  11.674  21.047  0.00  0.00    +0.000 A 
ATOM     27  C   UNL     1       9.611  12.956  21.401  0.00  0.00    +0.000 A 
ATOM     28  C   UNL     1      10.655  13.562  20.708  0.00  0.00    +0.000 A 
ATOM     29  C   UNL     1      11.288  12.876  19.675  0.00  0.00    +0.000 A 
ATOM     30  C   UNL     1      10.867  11.588  19.328  0.00  0.00    +0.000 A 
ENDBRANCH  23  25
ENDBRANCH  20  21
ENDBRANCH  19  20
ENDBRANCH   9  19
TORSDOF 5
ENDMDL
MODEL 5
REMARK VINA RESULT:      -8.4      4.911      7.221
REMARK  Name = 
REMARK  6 active torsions:
REMARK  status: ('A' for Active; 'I' for Inactive)
REMARK    1  A    between atoms: C_1  and  N_2
REMARK    2  A    between atoms: C_4  and  C_5
REMARK    3  A    between atoms: N_15  and  C_16
REMARK    4  A    between atoms: C_16  and  C_17
REMARK    5  A    between atoms: C_17  and  C_18
REMARK    6  A    between atoms: N_20  and  C_21
REMARK                            x       y       z     vdW  Elec       q    Type
REMARK                         _______ _______ _______ _____ _____    ______ ____
ROOT
ATOM      1  C   UNL     1       6.357   5.035  14.079  0.00  0.00    +0.000 C 
ATOM      2  N   UNL     1       5.874   4.671  15.389  0.00  0.00    +0.000 N 
ATOM      3  C   UNL     1       4.730   4.006  15.686  0.00  0.00    +0.000 A 
ATOM      4  C   UNL     1       4.695   3.877  17.063  0.00  0.00    +0.000 A 
ATOM      5  C   UNL     1       5.879   4.542  17.506  0.00  0.00    +0.000 A 
ATOM      6  N   UNL     1       6.299   4.696  18.816  0.00  0.00    +0.000 N 
ATOM      7  C   UNL     1       7.221   5.590  19.286  0.00  0.00    +0.000 C 
ATOM      8  O   UNL     1       7.526   5.612  20.477  0.00  0.00    +0.000 OA
ATOM      9  N   UNL     1       7.691   6.496  18.387  0.00  0.00    +0.000 N 
ATOM     10  N   UNL     1       6.575   5.034  16.470  0.00  0.00    +0.000 NA
ATOM     11  H   UNL     1       5.848   4.135  19.522  0.00  0.00    +0.000 HD
ATOM     12  H   UNL     1       7.506   6.268  17.409  0.00  0.00    +0.000 HD
ENDROOT
BRANCH   4  13
ATOM     13  C   UNL     1       3.539   3.317  17.753  0.00  0.00    +0.000 A 
ATOM     14  C   UNL     1       2.261   3.863  17.550  0.00  0.00    +0.000 A 
ATOM     15  C   UNL     1       1.172   3.447  18.321  0.00  0.00    +0.000 A 
ATOM     16  C   UNL     1       1.342   2.462  19.287  0.00  0.00    +0.000 A 
ATOM     17  C   UNL     1       2.594   1.880  19.471  0.00  0.00    +0.000 A 
ATOM     18  C   UNL     1       3.689   2.306  18.712  0.00  0.00    +0.000 A 
ENDBRANCH   4  13
BRANCH   9  19
ATOM     19  C   UNL     1       8.525   7.620  18.713  0.00  0.00    +0.000 C 
BRANCH  19  20
ATOM     20  C   UNL     1       8.039   8.904  18.060  0.00  0.00    +0.000 C 
BRANCH  20  21
ATOM     21  C   UNL     1       8.845  10.074  18.576  0.00  0.00    +0.000 C 
ATOM     22  O   UNL     1       9.463   9.982  19.633  0.00  0.00    +0.000 OA
ATOM     23  N   UNL     1       8.785  11.184  17.751  0.00  0.00    +0.000 N 
ATOM     24  H   UNL     1       8.095  11.170  17.007  0.00  0.00    +0.000 HD
BRANCH  23  25
ATOM     25  C   UNL     1       9.506  12.386  17.912  0.00  0.00    +0.000 A 
ATOM     26  C   UNL     1       8.983  13.513  18.549  0.00  0.00    +0.000 A 
ATOM     27  C   UNL     1       9.737  14.685  18.653  0.00  0.00    +0.000 A 
ATOM     28  C   UNL     1      11.023  14.738  18.123  0.00  0.00    +0.000 A 
ATOM     29  C   UNL     1      11.565  13.611  17.510  0.00  0.00    +0.000 A 
ATOM     30  C   UNL     1      10.814  12.435  17.416  0.00  0.00    +0.000 A 
ENDBRANCH  23  25
ENDBRANCH  20  21
ENDBRANCH  19  20
ENDBRANCH   9  19
TORSDOF 5
ENDMDL
MODEL 6
REMARK VINA RESULT:      -8.3      4.896      7.415
REMARK  Name = 
REMARK  6 active torsions:
REMARK  status: ('A' for Active; 'I' for Inactive)
REMARK    1  A    between atoms: C_1  and  N_2
REMARK    2  A    between atoms: C_4  and  C_5
REMARK    3  A    between atoms: N_15  and  C_16
REMARK    4  A    between atoms: C_16  and  C_17
REMARK    5  A    between atoms: C_17  and  C_18
REMARK    6  A    between atoms: N_20  and  C_21
REMARK                            x       y       z     vdW  Elec       q    Type
REMARK                         _______ _______ _______ _____ _____    ______ ____
ROOT
ATOM      1  C   UNL     1       2.217   9.305  17.831  0.00  0.00    +0.000 C 
ATOM      2  N   UNL     1       2.735   7.959  17.836  0.00  0.00    +0.000 N 
ATOM      3  C   UNL     1       2.102   6.838  18.262  0.00  0.00    +0.000 A 
ATOM      4  C   UNL     1       2.983   5.788  18.064  0.00  0.00    +0.000 A 
ATOM      5  C   UNL     1       4.152   6.410  17.529  0.00  0.00    +0.000 A 
ATOM      6  N   UNL     1       5.330   5.781  17.169  0.00  0.00    +0.000 N 
ATOM      7  C   UNL     1       6.552   6.365  16.978  0.00  0.00    +0.000 C 
ATOM      8  O   UNL     1       7.524   5.694  16.633  0.00  0.00    +0.000 OA
ATOM      9  N   UNL     1       6.639   7.687  17.283  0.00  0.00    +0.000 N 
ATOM     10  N   UNL     1       3.987   7.737  17.415  0.00  0.00    +0.000 NA
ATOM     11  H   UNL     1       5.319   4.775  17.087  0.00  0.00    +0.000 HD
ATOM     12  H   UNL     1       5.743   8.166  17.383  0.00  0.00    +0.000 HD
ENDROOT
BRANCH   4  13
ATOM     13  C   UNL     1       2.684   4.438  18.526  0.00  0.00    +0.000 A 
ATOM     14  C   UNL     1       2.874   3.339  17.672  0.00  0.00    +0.000 A 
ATOM     15  C   UNL     1       2.445   2.061  18.039  0.00  0.00    +0.000 A 
ATOM     16  C   UNL     1       1.841   1.861  19.276  0.00  0.00    +0.000 A 
ATOM     17  C   UNL     1       1.684   2.933  20.153  0.00  0.00    +0.000 A 
ATOM     18  C   UNL     1       2.099   4.216  19.780  0.00  0.00    +0.000 A 
ENDBRANCH   4  13
BRANCH   9  19
ATOM     19  C   UNL     1       7.861   8.443  17.320  0.00  0.00    +0.000 C 
BRANCH  19  20
ATOM     20  C   UNL     1       8.471   8.482  18.711  0.00  0.00    +0.000 C 
BRANCH  20  21
ATOM     21  C   UNL     1       8.967   9.878  19.012  0.00  0.00    +0.000 C 
ATOM     22  O   UNL     1       9.319  10.178  20.148  0.00  0.00    +0.000 OA
ATOM     23  N   UNL     1       8.964  10.708  17.905  0.00  0.00    +0.000 N 
ATOM     24  H   UNL     1       8.481  10.374  17.076  0.00  0.00    +0.000 HD
BRANCH  23  25
ATOM     25  C   UNL     1       9.461  12.027  17.847  0.00  0.00    +0.000 A 
ATOM     26  C   UNL     1       8.677  13.154  18.104  0.00  0.00    +0.000 A 
ATOM     27  C   UNL     1       9.220  14.437  18.004  0.00  0.00    +0.000 A 
ATOM     28  C   UNL     1      10.556  14.604  17.648  0.00  0.00    +0.000 A 
ATOM     29  C   UNL     1      11.354  13.488  17.416  0.00  0.00    +0.000 A 
ATOM     30  C   UNL     1      10.812  12.204  17.527  0.00  0.00    +0.000 A 
ENDBRANCH  23  25
ENDBRANCH  20  21
ENDBRANCH  19  20
ENDBRANCH   9  19
TORSDOF 5
ENDMDL
MODEL 7
REMARK VINA RESULT:      -8.2      4.645      7.381
REMARK  Name = 
REMARK  6 active torsions:
REMARK  status: ('A' for Active; 'I' for Inactive)
REMARK    1  A    between atoms: C_1  and  N_2
REMARK    2  A    between atoms: C_4  and  C_5
REMARK    3  A    between atoms: N_15  and  C_16
REMARK    4  A    between atoms: C_16  and  C_17
REMARK    5  A    between atoms: C_17  and  C_18
REMARK    6  A    between atoms: N_20  and  C_21
REMARK                            x       y       z     vdW  Elec       q    Type
REMARK                         _______ _______ _______ _____ _____    ______ ____
ROOT
ATOM      1  C   UNL     1       2.341   9.295  17.792  0.00  0.00    +0.000 C 
ATOM      2  N   UNL     1       2.756   7.914  17.835  0.00  0.00    +0.000 N 
ATOM      3  C   UNL     1       2.048   6.859  18.310  0.00  0.00    +0.000 A 
ATOM      4  C   UNL     1       2.842   5.740  18.133  0.00  0.00    +0.000 A 
ATOM      5  C   UNL     1       4.045   6.252  17.558  0.00  0.00    +0.000 A 
ATOM      6  N   UNL     1       5.165   5.523  17.199  0.00  0.00    +0.000 N 
ATOM      7  C   UNL     1       6.423   6.006  16.968  0.00  0.00    +0.000 C 
ATOM      8  O   UNL     1       7.334   5.252  16.630  0.00  0.00    +0.000 OA
ATOM      9  N   UNL     1       6.617   7.327  17.226  0.00  0.00    +0.000 N 
ATOM     10  N   UNL     1       3.978   7.583  17.400  0.00  0.00    +0.000 NA
ATOM     11  H   UNL     1       5.076   4.519  17.152  0.00  0.00    +0.000 HD
ATOM     12  H   UNL     1       5.761   7.876  17.324  0.00  0.00    +0.000 HD
ENDROOT
BRANCH   4  13
ATOM     13  C   UNL     1       2.451   4.432  18.647  0.00  0.00    +0.000 A 
ATOM     14  C   UNL     1       1.366   3.745  18.081  0.00  0.00    +0.000 A 
ATOM     15  C   UNL     1       0.878   2.570  18.661  0.00  0.00    +0.000 A 
ATOM     16  C   UNL     1       1.486   2.055  19.800  0.00  0.00    +0.000 A 
ATOM     17  C   UNL     1       2.592   2.701  20.349  0.00  0.00    +0.000 A 
ATOM     18  C   UNL     1       3.071   3.886  19.779  0.00  0.00    +0.000 A 
ENDBRANCH   4  13
BRANCH   9  19
ATOM     19  C   UNL     1       7.892   7.988  17.216  0.00  0.00    +0.000 C 
BRANCH  19  20
ATOM     20  C   UNL     1       8.346   8.382  18.611  0.00  0.00    +0.000 C 
BRANCH  20  21
ATOM     21  C   UNL     1       8.731   9.843  18.629  0.00  0.00    +0.000 C 
ATOM     22  O   UNL     1       8.352  10.594  17.735  0.00  0.00    +0.000 OA
ATOM     23  N   UNL     1       9.518  10.187  19.714  0.00  0.00    +0.000 N 
ATOM     24  H   UNL     1       9.896   9.427  20.272  0.00  0.00    +0.000 HD
BRANCH  23  25
ATOM     25  C   UNL     1       9.950  11.486  20.057  0.00  0.00    +0.000 A 
ATOM     26  C   UNL     1      11.115  12.065  19.552  0.00  0.00    +0.000 A 
ATOM     27  C   UNL     1      11.504  13.346  19.951  0.00  0.00    +0.000 A 
ATOM     28  C   UNL     1      10.727  14.061  20.858  0.00  0.00    +0.000 A 
ATOM     29  C   UNL     1       9.549  13.506  21.347  0.00  0.00    +0.000 A 
ATOM     30  C   UNL     1       9.154  12.227  20.939  0.00  0.00    +0.000 A 
ENDBRANCH  23  25
ENDBRANCH  20  21
ENDBRANCH  19  20
ENDBRANCH   9  19
TORSDOF 5
ENDMDL
MODEL 8
REMARK VINA RESULT:      -8.2      4.732      7.365
REMARK  Name = 
REMARK  6 active torsions:
REMARK  status: ('A' for Active; 'I' for Inactive)
REMARK    1  A    between atoms: C_1  and  N_2
REMARK    2  A    between atoms: C_4  and  C_5
REMARK    3  A    between atoms: N_15  and  C_16
REMARK    4  A    between atoms: C_16  and  C_17
REMARK    5  A    between atoms: C_17  and  C_18
REMARK    6  A    between atoms: N_20  and  C_21
REMARK                            x       y       z     vdW  Elec       q    Type
REMARK                         _______ _______ _______ _____ _____    ______ ____
ROOT
ATOM      1  C   UNL     1       5.611   4.287  14.374  0.00  0.00    +0.000 C 
ATOM      2  N   UNL     1       5.252   4.199  15.769  0.00  0.00    +0.000 N 
ATOM      3  C   UNL     1       4.096   3.718  16.290  0.00  0.00    +0.000 A 
ATOM      4  C   UNL     1       4.209   3.823  17.665  0.00  0.00    +0.000 A 
ATOM      5  C   UNL     1       5.491   4.421  17.865  0.00  0.00    +0.000 A 
ATOM      6  N   UNL     1       6.072   4.744  19.079  0.00  0.00    +0.000 N 
ATOM      7  C   UNL     1       7.117   5.599  19.291  0.00  0.00    +0.000 C 
ATOM      8  O   UNL     1       7.559   5.785  20.423  0.00  0.00    +0.000 OA
ATOM      9  N   UNL     1       7.559   6.289  18.205  0.00  0.00    +0.000 N 
ATOM     10  N   UNL     1       6.103   4.658  16.695  0.00  0.00    +0.000 NA
ATOM     11  H   UNL     1       5.657   4.359  19.914  0.00  0.00    +0.000 HD
ATOM     12  H   UNL     1       7.242   5.923  17.305  0.00  0.00    +0.000 HD
ENDROOT
BRANCH   4  13
ATOM     13  C   UNL     1       3.095   3.513  18.554  0.00  0.00    +0.000 A 
ATOM     14  C   UNL     1       2.580   2.208  18.614  0.00  0.00    +0.000 A 
ATOM     15  C   UNL     1       1.416   1.928  19.334  0.00  0.00    +0.000 A 
ATOM     16  C   UNL     1       0.767   2.945  20.026  0.00  0.00    +0.000 A 
ATOM     17  C   UNL     1       1.290   4.236  20.012  0.00  0.00    +0.000 A 
ATOM     18  C   UNL     1       2.446   4.522  19.277  0.00  0.00    +0.000 A 
ENDBRANCH   4  13
BRANCH   9  19
ATOM     19  C   UNL     1       8.521   7.355  18.243  0.00  0.00    +0.000 C 
BRANCH  19  20
ATOM     20  C   UNL     1       7.900   8.702  17.915  0.00  0.00    +0.000 C 
BRANCH  20  21
ATOM     21  C   UNL     1       8.729   9.809  18.524  0.00  0.00    +0.000 C 
ATOM     22  O   UNL     1       9.234   9.665  19.633  0.00  0.00    +0.000 OA
ATOM     23  N   UNL     1       8.827  10.927  17.714  0.00  0.00    +0.000 N 
ATOM     24  H   UNL     1       8.213  10.968  16.906  0.00  0.00    +0.000 HD
BRANCH  23  25
ATOM     25  C   UNL     1       9.609  12.074  17.962  0.00  0.00    +0.000 A 
ATOM     26  C   UNL     1       9.090  13.255  18.498  0.00  0.00    +0.000 A 
ATOM     27  C   UNL     1       9.911  14.367  18.695  0.00  0.00    +0.000 A 
ATOM     28  C   UNL     1      11.262  14.308  18.361  0.00  0.00    +0.000 A 
ATOM     29  C   UNL     1      11.796  13.128  17.852  0.00  0.00    +0.000 A 
ATOM     30  C   UNL     1      10.975  12.011  17.665  0.00  0.00    +0.000 A 
ENDBRANCH  23  25
ENDBRANCH  20  21
ENDBRANCH  19  20
ENDBRANCH   9  19
TORSDOF 5
ENDMDL
MODEL 9
REMARK VINA RESULT:      -8.1      2.688      4.949
REMARK  Name = 
REMARK  6 active torsions:
REMARK  status: ('A' for Active; 'I' for Inactive)
REMARK    1  A    between atoms: C_1  and  N_2
REMARK    2  A    between atoms: C_4  and  C_5
REMARK    3  A    between atoms: N_15  and  C_16
REMARK    4  A    between atoms: C_16  and  C_17
REMARK    5  A    between atoms: C_17  and  C_18
REMARK    6  A    between atoms: N_20  and  C_21
REMARK                            x       y       z     vdW  Elec       q    Type
REMARK                         _______ _______ _______ _____ _____    ______ ____
ROOT
ATOM      1  C   UNL     1       2.075   2.761  21.639  0.00  0.00    +0.000 C 
ATOM      2  N   UNL     1       2.640   3.552  20.573  0.00  0.00    +0.000 N 
ATOM      3  C   UNL     1       3.601   3.176  19.693  0.00  0.00    +0.000 A 
ATOM      4  C   UNL     1       3.811   4.255  18.853  0.00  0.00    +0.000 A 
ATOM      5  C   UNL     1       2.924   5.260  19.348  0.00  0.00    +0.000 A 
ATOM      6  N   UNL     1       2.763   6.540  18.847  0.00  0.00    +0.000 N 
ATOM      7  C   UNL     1       2.190   7.607  19.481  0.00  0.00    +0.000 C 
ATOM      8  O   UNL     1       2.086   8.694  18.914  0.00  0.00    +0.000 OA
ATOM      9  N   UNL     1       1.842   7.417  20.781  0.00  0.00    +0.000 N 
ATOM     10  N   UNL     1       2.232   4.816  20.408  0.00  0.00    +0.000 NA
ATOM     11  H   UNL     1       3.154   6.740  17.939  0.00  0.00    +0.000 HD
ATOM     12  H   UNL     1       1.810   6.441  21.080  0.00  0.00    +0.000 HD
ENDROOT
BRANCH   4  13
ATOM     13  C   UNL     1       4.872   4.256  17.853  0.00  0.00    +0.000 A 
ATOM     14  C   UNL     1       6.193   4.553  18.222  0.00  0.00    +0.000 A 
ATOM     15  C   UNL     1       7.190   4.716  17.257  0.00  0.00    +0.000 A 
ATOM     16  C   UNL     1       6.883   4.558  15.909  0.00  0.00    +0.000 A 
ATOM     17  C   UNL     1       5.586   4.221  15.529  0.00  0.00    +0.000 A 
ATOM     18  C   UNL     1       4.583   4.074  16.493  0.00  0.00    +0.000 A 
ENDBRANCH   4  13
BRANCH   9  19
ATOM     19  C   UNL     1       1.391   8.451  21.671  0.00  0.00    +0.000 C 
BRANCH  19  20
ATOM     20  C   UNL     1       0.065   9.049  21.233  0.00  0.00    +0.000 C 
BRANCH  20  21
ATOM     21  C   UNL     1       0.175  10.556  21.189  0.00  0.00    +0.000 C 
ATOM     22  O   UNL     1       0.023  11.218  22.211  0.00  0.00    +0.000 OA
ATOM     23  N   UNL     1       0.447  11.047  19.924  0.00  0.00    +0.000 N 
ATOM     24  H   UNL     1       0.370  10.396  19.148  0.00  0.00    +0.000 HD
BRANCH  23  25
ATOM     25  C   UNL     1       0.703  12.392  19.585  0.00  0.00    +0.000 A 
ATOM     26  C   UNL     1       1.929  13.020  19.810  0.00  0.00    +0.000 A 
ATOM     27  C   UNL     1       2.112  14.364  19.478  0.00  0.00    +0.000 A 
ATOM     28  C   UNL     1       1.069  15.093  18.914  0.00  0.00    +0.000 A 
ATOM     29  C   UNL     1      -0.150  14.471  18.660  0.00  0.00    +0.000 A 
ATOM     30  C   UNL     1      -0.329  13.122  18.983  0.00  0.00    +0.000 A 
ENDBRANCH  23  25
ENDBRANCH  20  21
ENDBRANCH  19  20
ENDBRANCH   9  19
TORSDOF 5
ENDMDL
