MODEL 1
REMARK VINA RESULT:      -7.9      0.000      0.000
REMARK  Name = 
REMARK  2 active torsions:
REMARK  status: ('A' for Active; 'I' for Inactive)
REMARK    1  A    between atoms: C_4  and  C_5
REMARK    2  A    between atoms: C_5  and  C_6
REMARK                            x       y       z     vdW  Elec       q    Type
REMARK                         _______ _______ _______ _____ _____    ______ ____
ROOT
ATOM      1  O   UNL     1       3.170   7.003  18.237  0.00  0.00    +0.000 OA
ATOM      2  C   UNL     1       3.751   6.011  17.812  0.00  0.00    +0.000 A 
ATOM      3  N   UNL     1       4.795   6.098  16.918  0.00  0.00    +0.000 N 
ATOM      4  C   UNL     1       5.507   5.005  16.461  0.00  0.00    +0.000 A 
ATOM      5  N   UNL     1       5.238   3.774  16.783  0.00  0.00    +0.000 NA
ATOM      6  C   UNL     1       4.190   3.632  17.640  0.00  0.00    +0.000 A 
ATOM      7  S   UNL     1       3.664   2.079  18.183  0.00  0.00    +0.000 S 
ATOM      8  C   UNL     1       2.482   2.788  19.134  0.00  0.00    +0.000 A 
ATOM      9  C   UNL     1       2.459   4.153  19.075  0.00  0.00    +0.000 A 
ATOM     10  C   UNL     1       3.435   4.656  18.193  0.00  0.00    +0.000 A 
ATOM     11  C   UNL     1       1.404   4.715  19.953  0.00  0.00    +0.000 C 
ATOM     12  C   UNL     1       1.015   3.480  20.826  0.00  0.00    +0.000 C 
ATOM     13  C   UNL     1       1.456   2.210  20.032  0.00  0.00    +0.000 C 
ATOM     14  H   UNL     1       5.033   7.033  16.627  0.00  0.00    +0.000 HD
ENDROOT
BRANCH   4  15
ATOM     15  C   UNL     1       6.690   5.334  15.576  0.00  0.00    +0.000 C 
BRANCH  15  16
ATOM     16  C   UNL     1       6.599   4.780  14.175  0.00  0.00    +0.000 A 
ATOM     17  C   UNL     1       7.606   5.046  13.235  0.00  0.00    +0.000 A 
ATOM     18  C   UNL     1       7.581   4.441  11.976  0.00  0.00    +0.000 A 
ATOM     19  C   UNL     1       6.549   3.566  11.642  0.00  0.00    +0.000 A 
ATOM     20  C   UNL     1       5.532   3.310  12.559  0.00  0.00    +0.000 A 
ATOM     21  C   UNL     1       5.555   3.915  13.818  0.00  0.00    +0.000 A 
ENDBRANCH  15  16
ENDBRANCH   4  15
TORSDOF 2
ENDMDL
MODEL 2
REMARK VINA RESULT:      -7.9      0.110      1.085
REMARK  Name = 
REMARK  2 active torsions:
REMARK  status: ('A' for Active; 'I' for Inactive)
REMARK    1  A    between atoms: C_4  and  C_5
REMARK    2  A    between atoms: C_5  and  C_6
REMARK                            x       y       z     vdW  Elec       q    Type
REMARK                         _______ _______ _______ _____ _____    ______ ____
ROOT
ATOM      1  O   UNL     1       3.327   7.027  18.238  0.00  0.00    +0.000 OA
ATOM      2  C   UNL     1       3.868   6.017  17.802  0.00  0.00    +0.000 A 
ATOM      3  N   UNL     1       4.919   6.074  16.912  0.00  0.00    +0.000 N 
ATOM      4  C   UNL     1       5.588   4.959  16.444  0.00  0.00    +0.000 A 
ATOM      5  N   UNL     1       5.268   3.735  16.748  0.00  0.00    +0.000 NA
ATOM      6  C   UNL     1       4.211   3.626  17.599  0.00  0.00    +0.000 A 
ATOM      7  S   UNL     1       3.621   2.088  18.120  0.00  0.00    +0.000 S 
ATOM      8  C   UNL     1       2.465   2.832  19.077  0.00  0.00    +0.000 A 
ATOM      9  C   UNL     1       2.498   4.197  19.035  0.00  0.00    +0.000 A 
ATOM     10  C   UNL     1       3.496   4.671  18.164  0.00  0.00    +0.000 A 
ATOM     11  C   UNL     1       1.462   4.789  19.918  0.00  0.00    +0.000 C 
ATOM     12  C   UNL     1       1.021   3.560  20.773  0.00  0.00    +0.000 C 
ATOM     13  C   UNL     1       1.413   2.283  19.964  0.00  0.00    +0.000 C 
ATOM     14  H   UNL     1       5.196   7.002  16.634  0.00  0.00    +0.000 HD
ENDROOT
BRANCH   4  15
ATOM     15  C   UNL     1       6.787   5.251  15.567  0.00  0.00    +0.000 C 
BRANCH  15  16
ATOM     16  C   UNL     1       6.721   4.639  14.189  0.00  0.00    +0.000 A 
ATOM     17  C   UNL     1       5.650   3.810  13.826  0.00  0.00    +0.000 A 
ATOM     18  C   UNL     1       5.528   3.336  12.518  0.00  0.00    +0.000 A 
ATOM     19  C   UNL     1       6.478   3.684  11.559  0.00  0.00    +0.000 A 
ATOM     20  C   UNL     1       7.559   4.489  11.912  0.00  0.00    +0.000 A 
ATOM     21  C   UNL     1       7.681   4.963  13.220  0.00  0.00    +0.000 A 
ENDBRANCH  15  16
ENDBRANCH   4  15
TORSDOF 2
ENDMDL
MODEL 3
REMARK VINA RESULT:      -7.8      5.389      7.809
REMARK  Name = 
REMARK  2 active torsions:
REMARK  status: ('A' for Active; 'I' for Inactive)
REMARK    1  A    between atoms: C_4  and  C_5
REMARK    2  A    between atoms: C_5  and  C_6
REMARK                            x       y       z     vdW  Elec       q    Type
REMARK                         _______ _______ _______ _____ _____    ______ ____
ROOT
ATOM      1  O   UNL     1       0.490  10.553  18.242  0.00  0.00    +0.000 OA
ATOM      2  C   UNL     1       0.716   9.805  19.187  0.00  0.00    +0.000 A 
ATOM      3  N   UNL     1       1.469   8.659  19.052  0.00  0.00    +0.000 N 
ATOM      4  C   UNL     1       1.789   7.824  20.105  0.00  0.00    +0.000 A 
ATOM      5  N   UNL     1       1.373   7.997  21.325  0.00  0.00    +0.000 NA
ATOM      6  C   UNL     1       0.594   9.099  21.503  0.00  0.00    +0.000 A 
ATOM      7  S   UNL     1      -0.068   9.503  23.046  0.00  0.00    +0.000 S 
ATOM      8  C   UNL     1      -0.772  10.882  22.407  0.00  0.00    +0.000 A 
ATOM      9  C   UNL     1      -0.531  11.068  21.075  0.00  0.00    +0.000 A 
ATOM     10  C   UNL     1       0.247  10.027  20.533  0.00  0.00    +0.000 A 
ATOM     11  C   UNL     1      -1.166  12.313  20.579  0.00  0.00    +0.000 C 
ATOM     12  C   UNL     1      -1.544  13.038  21.910  0.00  0.00    +0.000 C 
ATOM     13  C   UNL     1      -1.608  11.941  23.019  0.00  0.00    +0.000 C 
ATOM     14  H   UNL     1       1.804   8.474  18.119  0.00  0.00    +0.000 HD
ENDROOT
BRANCH   4  15
ATOM     15  C   UNL     1       2.725   6.685  19.760  0.00  0.00    +0.000 C 
BRANCH  15  16
ATOM     16  C   UNL     1       2.039   5.366  19.495  0.00  0.00    +0.000 A 
ATOM     17  C   UNL     1       1.999   4.830  18.199  0.00  0.00    +0.000 A 
ATOM     18  C   UNL     1       1.466   3.559  17.972  0.00  0.00    +0.000 A 
ATOM     19  C   UNL     1       0.965   2.812  19.037  0.00  0.00    +0.000 A 
ATOM     20  C   UNL     1       0.980   3.342  20.325  0.00  0.00    +0.000 A 
ATOM     21  C   UNL     1       1.511   4.613  20.553  0.00  0.00    +0.000 A 
ENDBRANCH  15  16
ENDBRANCH   4  15
TORSDOF 2
ENDMDL
MODEL 4
REMARK VINA RESULT:      -7.7      5.429      7.886
REMARK  Name = 
REMARK  2 active torsions:
REMARK  status: ('A' for Active; 'I' for Inactive)
REMARK    1  A    between atoms: C_4  and  C_5
REMARK    2  A    between atoms: C_5  and  C_6
REMARK                            x       y       z     vdW  Elec       q    Type
REMARK                         _______ _______ _______ _____ _____    ______ ____
ROOT
ATOM      1  O   UNL     1       1.029   9.242  23.159  0.00  0.00    +0.000 OA
ATOM      2  C   UNL     1       1.093   9.120  21.941  0.00  0.00    +0.000 A 
ATOM      3  N   UNL     1       1.897   8.176  21.340  0.00  0.00    +0.000 N 
ATOM      4  C   UNL     1       1.951   7.973  19.974  0.00  0.00    +0.000 A 
ATOM      5  N   UNL     1       1.293   8.682  19.104  0.00  0.00    +0.000 NA
ATOM      6  C   UNL     1       0.509   9.653  19.649  0.00  0.00    +0.000 A 
ATOM      7  S   UNL     1      -0.438  10.711  18.666  0.00  0.00    +0.000 S 
ATOM      8  C   UNL     1      -1.046  11.468  20.031  0.00  0.00    +0.000 A 
ATOM      9  C   UNL     1      -0.577  10.961  21.209  0.00  0.00    +0.000 A 
ATOM     10  C   UNL     1       0.344   9.917  21.000  0.00  0.00    +0.000 A 
ATOM     11  C   UNL     1      -1.169  11.663  22.375  0.00  0.00    +0.000 C 
ATOM     12  C   UNL     1      -2.344  12.453  21.716  0.00  0.00    +0.000 C 
ATOM     13  C   UNL     1      -2.003  12.587  20.199  0.00  0.00    +0.000 C 
ATOM     14  H   UNL     1       2.439   7.608  21.972  0.00  0.00    +0.000 HD
ENDROOT
BRANCH   4  15
ATOM     15  C   UNL     1       2.810   6.806  19.531  0.00  0.00    +0.000 C 
BRANCH  15  16
ATOM     16  C   UNL     1       2.080   5.488  19.442  0.00  0.00    +0.000 A 
ATOM     17  C   UNL     1       1.932   4.836  18.209  0.00  0.00    +0.000 A 
ATOM     18  C   UNL     1       1.358   3.564  18.141  0.00  0.00    +0.000 A 
ATOM     19  C   UNL     1       0.925   2.932  19.305  0.00  0.00    +0.000 A 
ATOM     20  C   UNL     1       1.047   3.578  20.534  0.00  0.00    +0.000 A 
ATOM     21  C   UNL     1       1.619   4.850  20.602  0.00  0.00    +0.000 A 
ENDBRANCH  15  16
ENDBRANCH   4  15
TORSDOF 2
ENDMDL
MODEL 5
REMARK VINA RESULT:      -7.7      5.425      7.867
REMARK  Name = 
REMARK  2 active torsions:
REMARK  status: ('A' for Active; 'I' for Inactive)
REMARK    1  A    between atoms: C_4  and  C_5
REMARK    2  A    between atoms: C_5  and  C_6
REMARK                            x       y       z     vdW  Elec       q    Type
REMARK                         _______ _______ _______ _____ _____    ______ ____
ROOT
ATOM      1  O   UNL     1       0.205  10.585  18.247  0.00  0.00    +0.000 OA
ATOM      2  C   UNL     1       0.532   9.859  19.179  0.00  0.00    +0.000 A 
ATOM      3  N   UNL     1       1.359   8.771  19.006  0.00  0.00    +0.000 N 
ATOM      4  C   UNL     1       1.791   7.965  20.042  0.00  0.00    +0.000 A 
ATOM      5  N   UNL     1       1.425   8.111  21.281  0.00  0.00    +0.000 NA
ATOM      6  C   UNL     1       0.578   9.154  21.498  0.00  0.00    +0.000 A 
ATOM      7  S   UNL     1      -0.034   9.514  23.073  0.00  0.00    +0.000 S 
ATOM      8  C   UNL     1      -0.868  10.835  22.469  0.00  0.00    +0.000 A 
ATOM      9  C   UNL     1      -0.708  11.034  21.127  0.00  0.00    +0.000 A 
ATOM     10  C   UNL     1       0.115  10.051  20.547  0.00  0.00    +0.000 A 
ATOM     11  C   UNL     1      -1.457  12.228  20.664  0.00  0.00    +0.000 C 
ATOM     12  C   UNL     1      -1.819  12.928  22.012  0.00  0.00    +0.000 C 
ATOM     13  C   UNL     1      -1.747  11.833  23.123  0.00  0.00    +0.000 C 
ATOM     14  H   UNL     1       1.660   8.607  18.058  0.00  0.00    +0.000 HD
ENDROOT
BRANCH   4  15
ATOM     15  C   UNL     1       2.790   6.895  19.650  0.00  0.00    +0.000 C 
BRANCH  15  16
ATOM     16  C   UNL     1       2.201   5.515  19.488  0.00  0.00    +0.000 A 
ATOM     17  C   UNL     1       1.695   4.821  20.597  0.00  0.00    +0.000 A 
ATOM     18  C   UNL     1       1.047   3.594  20.433  0.00  0.00    +0.000 A 
ATOM     19  C   UNL     1       0.900   3.048  19.159  0.00  0.00    +0.000 A 
ATOM     20  C   UNL     1       1.417   3.717  18.052  0.00  0.00    +0.000 A 
ATOM     21  C   UNL     1       2.065   4.943  18.215  0.00  0.00    +0.000 A 
ENDBRANCH  15  16
ENDBRANCH   4  15
TORSDOF 2
ENDMDL
MODEL 6
REMARK VINA RESULT:      -7.7      2.043      2.524
REMARK  Name = 
REMARK  2 active torsions:
REMARK  status: ('A' for Active; 'I' for Inactive)
REMARK    1  A    between atoms: C_4  and  C_5
REMARK    2  A    between atoms: C_5  and  C_6
REMARK                            x       y       z     vdW  Elec       q    Type
REMARK                         _______ _______ _______ _____ _____    ______ ____
ROOT
ATOM      1  O   UNL     1       5.316   3.162  19.382  0.00  0.00    +0.000 OA
ATOM      2  C   UNL     1       5.336   4.131  18.632  0.00  0.00    +0.000 A 
ATOM      3  N   UNL     1       6.269   4.261  17.626  0.00  0.00    +0.000 N 
ATOM      4  C   UNL     1       6.287   5.312  16.729  0.00  0.00    +0.000 A 
ATOM      5  N   UNL     1       5.462   6.317  16.766  0.00  0.00    +0.000 NA
ATOM      6  C   UNL     1       4.541   6.252  17.766  0.00  0.00    +0.000 A 
ATOM      7  S   UNL     1       3.360   7.492  17.996  0.00  0.00    +0.000 S 
ATOM      8  C   UNL     1       2.696   6.651  19.283  0.00  0.00    +0.000 A 
ATOM      9  C   UNL     1       3.314   5.463  19.555  0.00  0.00    +0.000 A 
ATOM     10  C   UNL     1       4.402   5.229  18.693  0.00  0.00    +0.000 A 
ATOM     11  C   UNL     1       2.665   4.764  20.691  0.00  0.00    +0.000 C 
ATOM     12  C   UNL     1       1.330   5.559  20.842  0.00  0.00    +0.000 C 
ATOM     13  C   UNL     1       1.558   6.954  20.181  0.00  0.00    +0.000 C 
ATOM     14  H   UNL     1       6.940   3.512  17.564  0.00  0.00    +0.000 HD
ENDROOT
BRANCH   4  15
ATOM     15  C   UNL     1       7.323   5.200  15.630  0.00  0.00    +0.000 C 
BRANCH  15  16
ATOM     16  C   UNL     1       6.790   4.687  14.314  0.00  0.00    +0.000 A 
ATOM     17  C   UNL     1       7.565   4.770  13.149  0.00  0.00    +0.000 A 
ATOM     18  C   UNL     1       7.121   4.193  11.957  0.00  0.00    +0.000 A 
ATOM     19  C   UNL     1       5.897   3.529  11.917  0.00  0.00    +0.000 A 
ATOM     20  C   UNL     1       5.107   3.458  13.062  0.00  0.00    +0.000 A 
ATOM     21  C   UNL     1       5.550   4.035  14.255  0.00  0.00    +0.000 A 
ENDBRANCH  15  16
ENDBRANCH   4  15
TORSDOF 2
ENDMDL
MODEL 7
REMARK VINA RESULT:      -7.6      1.062      1.356
REMARK  Name = 
REMARK  2 active torsions:
REMARK  status: ('A' for Active; 'I' for Inactive)
REMARK    1  A    between atoms: C_4  and  C_5
REMARK    2  A    between atoms: C_5  and  C_6
REMARK                            x       y       z     vdW  Elec       q    Type
REMARK                         _______ _______ _______ _____ _____    ______ ____
ROOT
ATOM      1  O   UNL     1       4.130   7.431  17.268  0.00  0.00    +0.000 OA
ATOM      2  C   UNL     1       4.413   6.283  16.944  0.00  0.00    +0.000 A 
ATOM      3  N   UNL     1       5.260   6.006  15.893  0.00  0.00    +0.000 N 
ATOM      4  C   UNL     1       5.644   4.727  15.535  0.00  0.00    +0.000 A 
ATOM      5  N   UNL     1       5.210   3.646  16.114  0.00  0.00    +0.000 NA
ATOM      6  C   UNL     1       4.342   3.867  17.138  0.00  0.00    +0.000 A 
ATOM      7  S   UNL     1       3.641   2.565  18.032  0.00  0.00    +0.000 S 
ATOM      8  C   UNL     1       2.827   3.650  19.015  0.00  0.00    +0.000 A 
ATOM      9  C   UNL     1       3.057   4.962  18.713  0.00  0.00    +0.000 A 
ATOM     10  C   UNL     1       3.922   5.102  17.610  0.00  0.00    +0.000 A 
ATOM     11  C   UNL     1       2.322   5.865  19.632  0.00  0.00    +0.000 C 
ATOM     12  C   UNL     1       1.880   4.887  20.765  0.00  0.00    +0.000 C 
ATOM     13  C   UNL     1       1.903   3.450  20.155  0.00  0.00    +0.000 C 
ATOM     14  H   UNL     1       5.614   6.812  15.402  0.00  0.00    +0.000 HD
ENDROOT
BRANCH   4  15
ATOM     15  C   UNL     1       6.674   4.653  14.427  0.00  0.00    +0.000 C 
BRANCH  15  16
ATOM     16  C   UNL     1       6.220   3.903  13.198  0.00  0.00    +0.000 A 
ATOM     17  C   UNL     1       7.118   3.101  12.478  0.00  0.00    +0.000 A 
ATOM     18  C   UNL     1       6.674   2.318  11.410  0.00  0.00    +0.000 A 
ATOM     19  C   UNL     1       5.328   2.330  11.049  0.00  0.00    +0.000 A 
ATOM     20  C   UNL     1       4.430   3.139  11.742  0.00  0.00    +0.000 A 
ATOM     21  C   UNL     1       4.873   3.923  12.809  0.00  0.00    +0.000 A 
ENDBRANCH  15  16
ENDBRANCH   4  15
TORSDOF 2
ENDMDL
MODEL 8
REMARK VINA RESULT:      -7.6      4.875      7.292
REMARK  Name = 
REMARK  2 active torsions:
REMARK  status: ('A' for Active; 'I' for Inactive)
REMARK    1  A    between atoms: C_4  and  C_5
REMARK    2  A    between atoms: C_5  and  C_6
REMARK                            x       y       z     vdW  Elec       q    Type
REMARK                         _______ _______ _______ _____ _____    ______ ____
ROOT
ATOM      1  O   UNL     1       1.817   9.825  17.361  0.00  0.00    +0.000 OA
ATOM      2  C   UNL     1       1.695   9.188  18.401  0.00  0.00    +0.000 A 
ATOM      3  N   UNL     1       2.301   7.965  18.588  0.00  0.00    +0.000 N 
ATOM      4  C   UNL     1       2.230   7.247  19.767  0.00  0.00    +0.000 A 
ATOM      5  N   UNL     1       1.544   7.620  20.808  0.00  0.00    +0.000 NA
ATOM      6  C   UNL     1       0.898   8.808  20.659  0.00  0.00    +0.000 A 
ATOM      7  S   UNL     1      -0.076   9.476  21.920  0.00  0.00    +0.000 S 
ATOM      8  C   UNL     1      -0.407  10.822  20.981  0.00  0.00    +0.000 A 
ATOM      9  C   UNL     1       0.187  10.807  19.750  0.00  0.00    +0.000 A 
ATOM     10  C   UNL     1       0.933   9.631  19.543  0.00  0.00    +0.000 A 
ATOM     11  C   UNL     1      -0.132  12.034  18.980  0.00  0.00    +0.000 C 
ATOM     12  C   UNL     1      -0.737  12.961  20.082  0.00  0.00    +0.000 C 
ATOM     13  C   UNL     1      -1.224  12.031  21.237  0.00  0.00    +0.000 C 
ATOM     14  H   UNL     1       2.834   7.626  17.803  0.00  0.00    +0.000 HD
ENDROOT
BRANCH   4  15
ATOM     15  C   UNL     1       3.065   5.984  19.801  0.00  0.00    +0.000 C 
BRANCH  15  16
ATOM     16  C   UNL     1       2.330   4.734  19.381  0.00  0.00    +0.000 A 
ATOM     17  C   UNL     1       2.691   4.054  18.208  0.00  0.00    +0.000 A 
ATOM     18  C   UNL     1       2.090   2.837  17.879  0.00  0.00    +0.000 A 
ATOM     19  C   UNL     1       1.121   2.288  18.717  0.00  0.00    +0.000 A 
ATOM     20  C   UNL     1       0.738   2.964  19.874  0.00  0.00    +0.000 A 
ATOM     21  C   UNL     1       1.338   4.182  20.203  0.00  0.00    +0.000 A 
ENDBRANCH  15  16
ENDBRANCH   4  15
TORSDOF 2
ENDMDL
MODEL 9
REMARK VINA RESULT:      -7.5      5.016      7.501
REMARK  Name = 
REMARK  2 active torsions:
REMARK  status: ('A' for Active; 'I' for Inactive)
REMARK    1  A    between atoms: C_4  and  C_5
REMARK    2  A    between atoms: C_5  and  C_6
REMARK                            x       y       z     vdW  Elec       q    Type
REMARK                         _______ _______ _______ _____ _____    ______ ____
ROOT
ATOM      1  O   UNL     1       1.668   9.886  17.441  0.00  0.00    +0.000 OA
ATOM      2  C   UNL     1       1.574   9.253  18.486  0.00  0.00    +0.000 A 
ATOM      3  N   UNL     1       2.220   8.051  18.676  0.00  0.00    +0.000 N 
ATOM      4  C   UNL     1       2.181   7.339  19.860  0.00  0.00    +0.000 A 
ATOM      5  N   UNL     1       1.492   7.696  20.904  0.00  0.00    +0.000 NA
ATOM      6  C   UNL     1       0.807   8.863  20.753  0.00  0.00    +0.000 A 
ATOM      7  S   UNL     1      -0.177   9.508  22.017  0.00  0.00    +0.000 S 
ATOM      8  C   UNL     1      -0.558  10.836  21.072  0.00  0.00    +0.000 A 
ATOM      9  C   UNL     1       0.026  10.832  19.837  0.00  0.00    +0.000 A 
ATOM     10  C   UNL     1       0.807   9.679  19.631  0.00  0.00    +0.000 A 
ATOM     11  C   UNL     1      -0.338  12.043  19.062  0.00  0.00    +0.000 C 
ATOM     12  C   UNL     1      -0.963  12.958  20.162  0.00  0.00    +0.000 C 
ATOM     13  C   UNL     1      -1.411  12.021  21.327  0.00  0.00    +0.000 C 
ATOM     14  H   UNL     1       2.758   7.724  17.889  0.00  0.00    +0.000 HD
ENDROOT
BRANCH   4  15
ATOM     15  C   UNL     1       3.056   6.103  19.895  0.00  0.00    +0.000 C 
BRANCH  15  16
ATOM     16  C   UNL     1       2.328   4.810  19.617  0.00  0.00    +0.000 A 
ATOM     17  C   UNL     1       1.701   4.106  20.656  0.00  0.00    +0.000 A 
ATOM     18  C   UNL     1       0.931   2.973  20.383  0.00  0.00    +0.000 A 
ATOM     19  C   UNL     1       0.782   2.530  19.071  0.00  0.00    +0.000 A 
ATOM     20  C   UNL     1       1.417   3.208  18.032  0.00  0.00    +0.000 A 
ATOM     21  C   UNL     1       2.188   4.341  18.304  0.00  0.00    +0.000 A 
ENDBRANCH  15  16
ENDBRANCH   4  15
TORSDOF 2
ENDMDL
