MODEL 1
REMARK VINA RESULT:      -8.8      0.000      0.000
REMARK  Name = 
REMARK  6 active torsions:
REMARK  status: ('A' for Active; 'I' for Inactive)
REMARK    1  A    between atoms: C_1  and  C_2
REMARK    2  A    between atoms: C_2  and  C_3
REMARK    3  A    between atoms: N_5  and  C_6
REMARK    4  A    between atoms: C_10  and  O_11
REMARK    5  A    between atoms: O_11  and  C_12
REMARK    6  A    between atoms: C_19  and  C_20
REMARK                            x       y       z     vdW  Elec       q    Type
REMARK                         _______ _______ _______ _____ _____    ______ ____
ROOT
ATOM      1  C   UNL     1       0.798   8.826  21.242  0.00  0.00    +0.000 C 
ATOM      2  C   UNL     1       0.862   9.602  19.919  0.00  0.00    +0.000 C 
ATOM      3  C   UNL     1      -0.540   9.992  19.416  0.00  0.00    +0.000 C 
ATOM      4  C   UNL     1      -0.554  11.444  19.708  0.00  0.00    +0.000 A 
ATOM      5  C   UNL     1      -1.557  12.407  19.585  0.00  0.00    +0.000 A 
ATOM      6  C   UNL     1      -1.166  13.722  19.907  0.00  0.00    +0.000 A 
ATOM      7  C   UNL     1       0.148  13.997  20.290  0.00  0.00    +0.000 A 
ATOM      8  N   UNL     1       1.117  13.065  20.384  0.00  0.00    +0.000 NA
ATOM      9  C   UNL     1       0.718  11.825  20.095  0.00  0.00    +0.000 A 
ATOM     10  O   UNL     1       1.640  10.796  20.134  0.00  0.00    +0.000 OA
ENDROOT
BRANCH   5  11
ATOM     11  C   UNL     1      -2.941  12.118  19.129  0.00  0.00    +0.000 A 
ATOM     12  C   UNL     1      -3.207  11.482  17.892  0.00  0.00    +0.000 A 
ATOM     13  C   UNL     1      -4.509  11.234  17.435  0.00  0.00    +0.000 A 
ATOM     14  C   UNL     1      -5.549  11.585  18.262  0.00  0.00    +0.000 A 
ATOM     15  C   UNL     1      -5.328  12.171  19.476  0.00  0.00    +0.000 A 
ATOM     16  C   UNL     1      -4.054  12.465  19.932  0.00  0.00    +0.000 A 
ATOM     17  O   UNL     1      -6.485  12.411  20.154  0.00  0.00    +0.000 OA
ATOM     18  C   UNL     1      -7.456  11.892  19.219  0.00  0.00    +0.000 C 
ATOM     19  O   UNL     1      -6.868  11.389  18.003  0.00  0.00    +0.000 OA
ENDBRANCH   5  11
BRANCH   2  20
ATOM     20  C   UNL     1       1.503   8.711  18.846  0.00  0.00    +0.000 C 
ATOM     21  O   UNL     1       1.425   8.995  17.651  0.00  0.00    +0.000 OA
ATOM     22  N   UNL     1       2.199   7.626  19.358  0.00  0.00    +0.000 N 
ATOM     23  H   UNL     1       1.875   7.305  20.268  0.00  0.00    +0.000 HD
BRANCH  22  24
ATOM     24  C   UNL     1       2.825   6.692  18.514  0.00  0.00    +0.000 A 
ATOM     25  C   UNL     1       3.890   7.118  17.723  0.00  0.00    +0.000 A 
ATOM     26  C   UNL     1       4.612   6.184  16.984  0.00  0.00    +0.000 A 
ATOM     27  C   UNL     1       4.208   4.849  16.960  0.00  0.00    +0.000 A 
ATOM     28  C   UNL     1       3.071   4.437  17.660  0.00  0.00    +0.000 A 
ATOM     29  C   UNL     1       2.414   5.350  18.481  0.00  0.00    +0.000 A 
BRANCH  28  30
ATOM     30  O   UNL     1       2.743   3.124  17.513  0.00  0.00    +0.000 OA
BRANCH  30  31
ATOM     31  C   UNL     1       3.152   2.198  18.512  0.00  0.00    +0.000 C 
ATOM     32  F   UNL     1       4.042   2.690  19.401  0.00  0.00    +0.000 F 
ATOM     33  F   UNL     1       2.057   1.807  19.206  0.00  0.00    +0.000 F 
ATOM     34  F   UNL     1       3.683   1.106  17.922  0.00  0.00    +0.000 F 
ENDBRANCH  30  31
ENDBRANCH  28  30
ENDBRANCH  22  24
ENDBRANCH   2  20
TORSDOF 5
ENDMDL
MODEL 2
REMARK VINA RESULT:      -8.7      2.073      2.358
REMARK  Name = 
REMARK  6 active torsions:
REMARK  status: ('A' for Active; 'I' for Inactive)
REMARK    1  A    between atoms: C_1  and  C_2
REMARK    2  A    between atoms: C_2  and  C_3
REMARK    3  A    between atoms: N_5  and  C_6
REMARK    4  A    between atoms: C_10  and  O_11
REMARK    5  A    between atoms: O_11  and  C_12
REMARK    6  A    between atoms: C_19  and  C_20
REMARK                            x       y       z     vdW  Elec       q    Type
REMARK                         _______ _______ _______ _____ _____    ______ ____
ROOT
ATOM      1  C   UNL     1       0.554   8.345  21.807  0.00  0.00    +0.000 C 
ATOM      2  C   UNL     1       0.953   9.136  20.553  0.00  0.00    +0.000 C 
ATOM      3  C   UNL     1      -0.279   9.652  19.787  0.00  0.00    +0.000 C 
ATOM      4  C   UNL     1      -0.239  11.095  20.121  0.00  0.00    +0.000 A 
ATOM      5  C   UNL     1      -1.114  12.142  19.828  0.00  0.00    +0.000 A 
ATOM      6  C   UNL     1      -0.695  13.413  20.269  0.00  0.00    +0.000 A 
ATOM      7  C   UNL     1       0.529  13.568  20.921  0.00  0.00    +0.000 A 
ATOM      8  N   UNL     1       1.381  12.556  21.180  0.00  0.00    +0.000 NA
ATOM      9  C   UNL     1       0.952  11.359  20.772  0.00  0.00    +0.000 A 
ATOM     10  O   UNL     1       1.761  10.255  20.964  0.00  0.00    +0.000 OA
ENDROOT
BRANCH   5  11
ATOM     11  C   UNL     1      -2.392  11.979  19.089  0.00  0.00    +0.000 A 
ATOM     12  C   UNL     1      -2.435  11.502  17.755  0.00  0.00    +0.000 A 
ATOM     13  C   UNL     1      -3.631  11.377  17.036  0.00  0.00    +0.000 A 
ATOM     14  C   UNL     1      -4.799  11.685  17.690  0.00  0.00    +0.000 A 
ATOM     15  C   UNL     1      -4.800  12.117  18.985  0.00  0.00    +0.000 A 
ATOM     16  C   UNL     1      -3.629  12.290  19.705  0.00  0.00    +0.000 A 
ATOM     17  O   UNL     1      -6.058  12.339  19.459  0.00  0.00    +0.000 OA
ATOM     18  C   UNL     1      -6.845  11.981  18.302  0.00  0.00    +0.000 C 
ATOM     19  O   UNL     1      -6.049  11.590  17.165  0.00  0.00    +0.000 OA
ENDBRANCH   5  11
BRANCH   2  20
ATOM     20  C   UNL     1       1.729   8.212  19.603  0.00  0.00    +0.000 C 
ATOM     21  O   UNL     1       2.079   8.593  18.487  0.00  0.00    +0.000 OA
ATOM     22  N   UNL     1       2.027   6.971  20.146  0.00  0.00    +0.000 N 
ATOM     23  H   UNL     1       1.384   6.658  20.870  0.00  0.00    +0.000 HD
BRANCH  22  24
ATOM     24  C   UNL     1       2.710   5.991  19.403  0.00  0.00    +0.000 A 
ATOM     25  C   UNL     1       2.008   5.290  18.424  0.00  0.00    +0.000 A 
ATOM     26  C   UNL     1       2.693   4.414  17.585  0.00  0.00    +0.000 A 
ATOM     27  C   UNL     1       4.052   4.169  17.790  0.00  0.00    +0.000 A 
ATOM     28  C   UNL     1       4.734   4.782  18.844  0.00  0.00    +0.000 A 
ATOM     29  C   UNL     1       4.073   5.736  19.615  0.00  0.00    +0.000 A 
BRANCH  28  30
ATOM     30  O   UNL     1       6.040   4.420  18.978  0.00  0.00    +0.000 OA
BRANCH  30  31
ATOM     31  C   UNL     1       7.049   5.294  18.489  0.00  0.00    +0.000 C 
ATOM     32  F   UNL     1       7.670   6.021  19.443  0.00  0.00    +0.000 F 
ATOM     33  F   UNL     1       7.992   4.551  17.864  0.00  0.00    +0.000 F 
ATOM     34  F   UNL     1       6.512   6.135  17.580  0.00  0.00    +0.000 F 
ENDBRANCH  30  31
ENDBRANCH  28  30
ENDBRANCH  22  24
ENDBRANCH   2  20
TORSDOF 5
ENDMDL
MODEL 3
REMARK VINA RESULT:      -8.7      1.916      2.373
REMARK  Name = 
REMARK  6 active torsions:
REMARK  status: ('A' for Active; 'I' for Inactive)
REMARK    1  A    between atoms: C_1  and  C_2
REMARK    2  A    between atoms: C_2  and  C_3
REMARK    3  A    between atoms: N_5  and  C_6
REMARK    4  A    between atoms: C_10  and  O_11
REMARK    5  A    between atoms: O_11  and  C_12
REMARK    6  A    between atoms: C_19  and  C_20
REMARK                            x       y       z     vdW  Elec       q    Type
REMARK                         _______ _______ _______ _____ _____    ______ ____
ROOT
ATOM      1  C   UNL     1       1.126   8.980  21.061  0.00  0.00    +0.000 C 
ATOM      2  C   UNL     1       1.117   9.491  19.613  0.00  0.00    +0.000 C 
ATOM      3  C   UNL     1      -0.305   9.845  19.141  0.00  0.00    +0.000 C 
ATOM      4  C   UNL     1      -0.250  11.325  19.153  0.00  0.00    +0.000 A 
ATOM      5  C   UNL     1      -1.227  12.294  18.917  0.00  0.00    +0.000 A 
ATOM      6  C   UNL     1      -0.769  13.626  18.956  0.00  0.00    +0.000 A 
ATOM      7  C   UNL     1       0.578  13.906  19.190  0.00  0.00    +0.000 A 
ATOM      8  N   UNL     1       1.521  12.964  19.394  0.00  0.00    +0.000 NA
ATOM      9  C   UNL     1       1.060  11.712  19.373  0.00  0.00    +0.000 A 
ATOM     10  O   UNL     1       1.947  10.667  19.545  0.00  0.00    +0.000 OA
ENDROOT
BRANCH   5  11
ATOM     11  C   UNL     1      -2.649  11.990  18.619  0.00  0.00    +0.000 A 
ATOM     12  C   UNL     1      -3.050  11.385  17.402  0.00  0.00    +0.000 A 
ATOM     13  C   UNL     1      -4.392  11.124  17.095  0.00  0.00    +0.000 A 
ATOM     14  C   UNL     1      -5.333  11.428  18.050  0.00  0.00    +0.000 A 
ATOM     15  C   UNL     1      -4.980  11.983  19.247  0.00  0.00    +0.000 A 
ATOM     16  C   UNL     1      -3.665  12.289  19.559  0.00  0.00    +0.000 A 
ATOM     17  O   UNL     1      -6.052  12.178  20.065  0.00  0.00    +0.000 OA
ATOM     18  C   UNL     1      -7.118  11.667  19.235  0.00  0.00    +0.000 C 
ATOM     19  O   UNL     1      -6.670  11.213  17.942  0.00  0.00    +0.000 OA
ENDBRANCH   5  11
BRANCH   2  20
ATOM     20  C   UNL     1       1.645   8.386  18.688  0.00  0.00    +0.000 C 
ATOM     21  O   UNL     1       1.594   8.499  17.464  0.00  0.00    +0.000 OA
ATOM     22  N   UNL     1       2.214   7.315  19.360  0.00  0.00    +0.000 N 
ATOM     23  H   UNL     1       1.860   7.168  20.303  0.00  0.00    +0.000 HD
BRANCH  22  24
ATOM     24  C   UNL     1       2.724   6.202  18.668  0.00  0.00    +0.000 A 
ATOM     25  C   UNL     1       1.912   5.078  18.525  0.00  0.00    +0.000 A 
ATOM     26  C   UNL     1       2.341   4.019  17.729  0.00  0.00    +0.000 A 
ATOM     27  C   UNL     1       3.616   4.044  17.161  0.00  0.00    +0.000 A 
ATOM     28  C   UNL     1       4.479   5.117  17.396  0.00  0.00    +0.000 A 
ATOM     29  C   UNL     1       4.009   6.221  18.104  0.00  0.00    +0.000 A 
BRANCH  28  30
ATOM     30  O   UNL     1       5.715   5.000  16.837  0.00  0.00    +0.000 OA
BRANCH  30  31
ATOM     31  C   UNL     1       5.860   5.220  15.440  0.00  0.00    +0.000 C 
ATOM     32  F   UNL     1       5.474   4.183  14.666  0.00  0.00    +0.000 F 
ATOM     33  F   UNL     1       5.105   6.289  15.094  0.00  0.00    +0.000 F 
ATOM     34  F   UNL     1       7.149   5.515  15.164  0.00  0.00    +0.000 F 
ENDBRANCH  30  31
ENDBRANCH  28  30
ENDBRANCH  22  24
ENDBRANCH   2  20
TORSDOF 5
ENDMDL
MODEL 4
REMARK VINA RESULT:      -8.7      3.021      4.504
REMARK  Name = 
REMARK  6 active torsions:
REMARK  status: ('A' for Active; 'I' for Inactive)
REMARK    1  A    between atoms: C_1  and  C_2
REMARK    2  A    between atoms: C_2  and  C_3
REMARK    3  A    between atoms: N_5  and  C_6
REMARK    4  A    between atoms: C_10  and  O_11
REMARK    5  A    between atoms: O_11  and  C_12
REMARK    6  A    between atoms: C_19  and  C_20
REMARK                            x       y       z     vdW  Elec       q    Type
REMARK                         _______ _______ _______ _____ _____    ______ ____
ROOT
ATOM      1  C   UNL     1       2.390  10.360  17.754  0.00  0.00    +0.000 C 
ATOM      2  C   UNL     1       1.285   9.609  18.510  0.00  0.00    +0.000 C 
ATOM      3  C   UNL     1       0.739  10.433  19.690  0.00  0.00    +0.000 C 
ATOM      4  C   UNL     1      -0.578  10.855  19.160  0.00  0.00    +0.000 A 
ATOM      5  C   UNL     1      -1.563  11.699  19.677  0.00  0.00    +0.000 A 
ATOM      6  C   UNL     1      -2.730  11.805  18.895  0.00  0.00    +0.000 A 
ATOM      7  C   UNL     1      -2.858  11.078  17.711  0.00  0.00    +0.000 A 
ATOM      8  N   UNL     1      -1.913  10.247  17.229  0.00  0.00    +0.000 NA
ATOM      9  C   UNL     1      -0.809  10.178  17.975  0.00  0.00    +0.000 A 
ATOM     10  O   UNL     1       0.214   9.334  17.586  0.00  0.00    +0.000 OA
ENDROOT
BRANCH   5  11
ATOM     11  C   UNL     1      -1.442  12.431  20.963  0.00  0.00    +0.000 A 
ATOM     12  C   UNL     1      -1.747  11.824  22.206  0.00  0.00    +0.000 A 
ATOM     13  C   UNL     1      -1.669  12.515  23.423  0.00  0.00    +0.000 A 
ATOM     14  C   UNL     1      -1.228  13.816  23.387  0.00  0.00    +0.000 A 
ATOM     15  C   UNL     1      -0.895  14.424  22.210  0.00  0.00    +0.000 A 
ATOM     16  C   UNL     1      -1.002  13.777  20.990  0.00  0.00    +0.000 A 
ATOM     17  O   UNL     1      -0.452  15.700  22.392  0.00  0.00    +0.000 OA
ATOM     18  C   UNL     1      -0.539  15.811  23.829  0.00  0.00    +0.000 C 
ATOM     19  O   UNL     1      -1.057  14.625  24.465  0.00  0.00    +0.000 OA
ENDBRANCH   5  11
BRANCH   2  20
ATOM     20  C   UNL     1       1.865   8.310  19.087  0.00  0.00    +0.000 C 
ATOM     21  O   UNL     1       1.741   8.030  20.279  0.00  0.00    +0.000 OA
ATOM     22  N   UNL     1       2.469   7.496  18.142  0.00  0.00    +0.000 N 
ATOM     23  H   UNL     1       2.832   7.987  17.327  0.00  0.00    +0.000 HD
BRANCH  22  24
ATOM     24  C   UNL     1       3.077   6.280  18.502  0.00  0.00    +0.000 A 
ATOM     25  C   UNL     1       2.261   5.207  18.855  0.00  0.00    +0.000 A 
ATOM     26  C   UNL     1       2.832   3.957  19.083  0.00  0.00    +0.000 A 
ATOM     27  C   UNL     1       4.219   3.807  19.053  0.00  0.00    +0.000 A 
ATOM     28  C   UNL     1       5.049   4.905  18.814  0.00  0.00    +0.000 A 
ATOM     29  C   UNL     1       4.472   6.130  18.483  0.00  0.00    +0.000 A 
BRANCH  28  30
ATOM     30  O   UNL     1       6.384   4.646  18.868  0.00  0.00    +0.000 OA
BRANCH  30  31
ATOM     31  C   UNL     1       7.158   4.779  17.683  0.00  0.00    +0.000 C 
ATOM     32  F   UNL     1       7.479   6.051  17.363  0.00  0.00    +0.000 F 
ATOM     33  F   UNL     1       8.316   4.097  17.849  0.00  0.00    +0.000 F 
ATOM     34  F   UNL     1       6.493   4.223  16.647  0.00  0.00    +0.000 F 
ENDBRANCH  30  31
ENDBRANCH  28  30
ENDBRANCH  22  24
ENDBRANCH   2  20
TORSDOF 5
ENDMDL
MODEL 5
REMARK VINA RESULT:      -8.6      1.451      1.823
REMARK  Name = 
REMARK  6 active torsions:
REMARK  status: ('A' for Active; 'I' for Inactive)
REMARK    1  A    between atoms: C_1  and  C_2
REMARK    2  A    between atoms: C_2  and  C_3
REMARK    3  A    between atoms: N_5  and  C_6
REMARK    4  A    between atoms: C_10  and  O_11
REMARK    5  A    between atoms: O_11  and  C_12
REMARK    6  A    between atoms: C_19  and  C_20
REMARK                            x       y       z     vdW  Elec       q    Type
REMARK                         _______ _______ _______ _____ _____    ______ ____
ROOT
ATOM      1  C   UNL     1       0.623   9.317  22.579  0.00  0.00    +0.000 C 
ATOM      2  C   UNL     1       0.559  10.072  21.244  0.00  0.00    +0.000 C 
ATOM      3  C   UNL     1      -0.880  10.493  20.895  0.00  0.00    +0.000 C 
ATOM      4  C   UNL     1      -0.825  11.949  21.162  0.00  0.00    +0.000 A 
ATOM      5  C   UNL     1      -1.810  12.938  21.135  0.00  0.00    +0.000 A 
ATOM      6  C   UNL     1      -1.351  14.246  21.388  0.00  0.00    +0.000 A 
ATOM      7  C   UNL     1       0.004  14.490  21.617  0.00  0.00    +0.000 A 
ATOM      8  N   UNL     1       0.954  13.533  21.618  0.00  0.00    +0.000 NA
ATOM      9  C   UNL     1       0.493  12.301  21.397  0.00  0.00    +0.000 A 
ATOM     10  O   UNL     1       1.386  11.247  21.351  0.00  0.00    +0.000 OA
ENDROOT
BRANCH   5  11
ATOM     11  C   UNL     1      -3.243  12.681  20.842  0.00  0.00    +0.000 A 
ATOM     12  C   UNL     1      -3.706  12.415  19.530  0.00  0.00    +0.000 A 
ATOM     13  C   UNL     1      -5.060  12.204  19.235  0.00  0.00    +0.000 A 
ATOM     14  C   UNL     1      -5.946  12.209  20.286  0.00  0.00    +0.000 A 
ATOM     15  C   UNL     1      -5.531  12.430  21.568  0.00  0.00    +0.000 A 
ATOM     16  C   UNL     1      -4.205  12.683  21.880  0.00  0.00    +0.000 A 
ATOM     17  O   UNL     1      -6.555  12.364  22.464  0.00  0.00    +0.000 OA
ATOM     18  C   UNL     1      -7.660  12.062  21.585  0.00  0.00    +0.000 C 
ATOM     19  O   UNL     1      -7.284  11.989  20.195  0.00  0.00    +0.000 OA
ENDBRANCH   5  11
BRANCH   2  20
ATOM     20  C   UNL     1       1.052   9.148  20.122  0.00  0.00    +0.000 C 
ATOM     21  O   UNL     1       0.823   9.402  18.940  0.00  0.00    +0.000 OA
ATOM     22  N   UNL     1       1.801   8.071  20.569  0.00  0.00    +0.000 N 
ATOM     23  H   UNL     1       1.594   7.775  21.521  0.00  0.00    +0.000 HD
BRANCH  22  24
ATOM     24  C   UNL     1       2.308   7.109  19.677  0.00  0.00    +0.000 A 
ATOM     25  C   UNL     1       2.890   7.547  18.488  0.00  0.00    +0.000 A 
ATOM     26  C   UNL     1       3.520   6.626  17.654  0.00  0.00    +0.000 A 
ATOM     27  C   UNL     1       3.481   5.265  17.961  0.00  0.00    +0.000 A 
ATOM     28  C   UNL     1       2.799   4.809  19.092  0.00  0.00    +0.000 A 
ATOM     29  C   UNL     1       2.261   5.740  19.978  0.00  0.00    +0.000 A 
BRANCH  28  30
ATOM     30  O   UNL     1       2.782   3.458  19.254  0.00  0.00    +0.000 OA
BRANCH  30  31
ATOM     31  C   UNL     1       1.835   2.690  18.520  0.00  0.00    +0.000 C 
ATOM     32  F   UNL     1       0.796   3.400  18.032  0.00  0.00    +0.000 F 
ATOM     33  F   UNL     1       2.469   2.121  17.468  0.00  0.00    +0.000 F 
ATOM     34  F   UNL     1       1.357   1.700  19.304  0.00  0.00    +0.000 F 
ENDBRANCH  30  31
ENDBRANCH  28  30
ENDBRANCH  22  24
ENDBRANCH   2  20
TORSDOF 5
ENDMDL
MODEL 6
REMARK VINA RESULT:      -8.6      2.774      4.241
REMARK  Name = 
REMARK  6 active torsions:
REMARK  status: ('A' for Active; 'I' for Inactive)
REMARK    1  A    between atoms: C_1  and  C_2
REMARK    2  A    between atoms: C_2  and  C_3
REMARK    3  A    between atoms: N_5  and  C_6
REMARK    4  A    between atoms: C_10  and  O_11
REMARK    5  A    between atoms: O_11  and  C_12
REMARK    6  A    between atoms: C_19  and  C_20
REMARK                            x       y       z     vdW  Elec       q    Type
REMARK                         _______ _______ _______ _____ _____    ______ ____
ROOT
ATOM      1  C   UNL     1       2.312  10.425  17.730  0.00  0.00    +0.000 C 
ATOM      2  C   UNL     1       1.221   9.686  18.517  0.00  0.00    +0.000 C 
ATOM      3  C   UNL     1       0.704  10.524  19.701  0.00  0.00    +0.000 C 
ATOM      4  C   UNL     1      -0.624  10.944  19.194  0.00  0.00    +0.000 A 
ATOM      5  C   UNL     1      -1.594  11.796  19.723  0.00  0.00    +0.000 A 
ATOM      6  C   UNL     1      -2.778  11.898  18.966  0.00  0.00    +0.000 A 
ATOM      7  C   UNL     1      -2.934  11.159  17.792  0.00  0.00    +0.000 A 
ATOM      8  N   UNL     1      -2.002  10.320  17.299  0.00  0.00    +0.000 NA
ATOM      9  C   UNL     1      -0.882  10.256  18.022  0.00  0.00    +0.000 A 
ATOM     10  O   UNL     1       0.130   9.405  17.620  0.00  0.00    +0.000 OA
ENDROOT
BRANCH   5  11
ATOM     11  C   UNL     1      -1.444  12.541  20.999  0.00  0.00    +0.000 A 
ATOM     12  C   UNL     1      -1.697  11.940  22.256  0.00  0.00    +0.000 A 
ATOM     13  C   UNL     1      -1.591  12.643  23.464  0.00  0.00    +0.000 A 
ATOM     14  C   UNL     1      -1.174  13.951  23.403  0.00  0.00    +0.000 A 
ATOM     15  C   UNL     1      -0.890  14.554  22.211  0.00  0.00    +0.000 A 
ATOM     16  C   UNL     1      -1.027  13.895  21.000  0.00  0.00    +0.000 A 
ATOM     17  O   UNL     1      -0.464  15.838  22.368  0.00  0.00    +0.000 OA
ATOM     18  C   UNL     1      -0.505  15.960  23.806  0.00  0.00    +0.000 C 
ATOM     19  O   UNL     1      -0.981  14.772  24.469  0.00  0.00    +0.000 OA
ENDBRANCH   5  11
BRANCH   2  20
ATOM     20  C   UNL     1       1.810   8.391  19.095  0.00  0.00    +0.000 C 
ATOM     21  O   UNL     1       1.799   8.170  20.306  0.00  0.00    +0.000 OA
ATOM     22  N   UNL     1       2.285   7.512  18.134  0.00  0.00    +0.000 N 
ATOM     23  H   UNL     1       2.580   7.951  17.265  0.00  0.00    +0.000 HD
BRANCH  22  24
ATOM     24  C   UNL     1       2.882   6.289  18.490  0.00  0.00    +0.000 A 
ATOM     25  C   UNL     1       4.237   6.107  18.218  0.00  0.00    +0.000 A 
ATOM     26  C   UNL     1       4.882   4.963  18.683  0.00  0.00    +0.000 A 
ATOM     27  C   UNL     1       4.152   3.964  19.329  0.00  0.00    +0.000 A 
ATOM     28  C   UNL     1       2.771   4.090  19.501  0.00  0.00    +0.000 A 
ATOM     29  C   UNL     1       2.148   5.279  19.131  0.00  0.00    +0.000 A 
BRANCH  28  30
ATOM     30  O   UNL     1       2.161   3.026  20.092  0.00  0.00    +0.000 OA
BRANCH  30  31
ATOM     31  C   UNL     1       2.132   2.952  21.512  0.00  0.00    +0.000 C 
ATOM     32  F   UNL     1       0.986   2.452  22.024  0.00  0.00    +0.000 F 
ATOM     33  F   UNL     1       3.143   2.149  21.919  0.00  0.00    +0.000 F 
ATOM     34  F   UNL     1       2.342   4.181  22.030  0.00  0.00    +0.000 F 
ENDBRANCH  30  31
ENDBRANCH  28  30
ENDBRANCH  22  24
ENDBRANCH   2  20
TORSDOF 5
ENDMDL
MODEL 7
REMARK VINA RESULT:      -8.6      1.308      1.839
REMARK  Name = 
REMARK  6 active torsions:
REMARK  status: ('A' for Active; 'I' for Inactive)
REMARK    1  A    between atoms: C_1  and  C_2
REMARK    2  A    between atoms: C_2  and  C_3
REMARK    3  A    between atoms: N_5  and  C_6
REMARK    4  A    between atoms: C_10  and  O_11
REMARK    5  A    between atoms: O_11  and  C_12
REMARK    6  A    between atoms: C_19  and  C_20
REMARK                            x       y       z     vdW  Elec       q    Type
REMARK                         _______ _______ _______ _____ _____    ______ ____
ROOT
ATOM      1  C   UNL     1       0.601   9.264  22.498  0.00  0.00    +0.000 C 
ATOM      2  C   UNL     1       0.585  10.005  21.154  0.00  0.00    +0.000 C 
ATOM      3  C   UNL     1      -0.840  10.426  20.750  0.00  0.00    +0.000 C 
ATOM      4  C   UNL     1      -0.789  11.885  21.003  0.00  0.00    +0.000 A 
ATOM      5  C   UNL     1      -1.769  12.876  20.932  0.00  0.00    +0.000 A 
ATOM      6  C   UNL     1      -1.315  14.185  21.187  0.00  0.00    +0.000 A 
ATOM      7  C   UNL     1       0.032  14.428  21.459  0.00  0.00    +0.000 A 
ATOM      8  N   UNL     1       0.978  13.469  21.503  0.00  0.00    +0.000 NA
ATOM      9  C   UNL     1       0.521  12.235  21.280  0.00  0.00    +0.000 A 
ATOM     10  O   UNL     1       1.412  11.179  21.276  0.00  0.00    +0.000 OA
ENDROOT
BRANCH   5  11
ATOM     11  C   UNL     1      -3.192  12.619  20.593  0.00  0.00    +0.000 A 
ATOM     12  C   UNL     1      -4.236  12.813  21.530  0.00  0.00    +0.000 A 
ATOM     13  C   UNL     1      -5.578  12.542  21.233  0.00  0.00    +0.000 A 
ATOM     14  C   UNL     1      -5.873  12.121  19.958  0.00  0.00    +0.000 A 
ATOM     15  C   UNL     1      -4.896  11.952  19.019  0.00  0.00    +0.000 A 
ATOM     16  C   UNL     1      -3.558  12.173  19.299  0.00  0.00    +0.000 A 
ATOM     17  O   UNL     1      -5.397  11.561  17.814  0.00  0.00    +0.000 OA
ATOM     18  C   UNL     1      -6.809  11.516  18.113  0.00  0.00    +0.000 C 
ATOM     19  O   UNL     1      -7.116  11.846  19.482  0.00  0.00    +0.000 OA
ENDBRANCH   5  11
BRANCH   2  20
ATOM     20  C   UNL     1       1.113   9.067  20.058  0.00  0.00    +0.000 C 
ATOM     21  O   UNL     1       0.950   9.323  18.866  0.00  0.00    +0.000 OA
ATOM     22  N   UNL     1       1.815   7.974  20.545  0.00  0.00    +0.000 N 
ATOM     23  H   UNL     1       1.553   7.686  21.485  0.00  0.00    +0.000 HD
BRANCH  22  24
ATOM     24  C   UNL     1       2.344   7.000  19.680  0.00  0.00    +0.000 A 
ATOM     25  C   UNL     1       2.969   7.420  18.507  0.00  0.00    +0.000 A 
ATOM     26  C   UNL     1       3.619   6.486  17.704  0.00  0.00    +0.000 A 
ATOM     27  C   UNL     1       3.561   5.128  18.025  0.00  0.00    +0.000 A 
ATOM     28  C   UNL     1       2.839   4.690  19.137  0.00  0.00    +0.000 A 
ATOM     29  C   UNL     1       2.278   5.634  19.995  0.00  0.00    +0.000 A 
BRANCH  28  30
ATOM     30  O   UNL     1       2.806   3.340  19.313  0.00  0.00    +0.000 OA
BRANCH  30  31
ATOM     31  C   UNL     1       1.910   2.566  18.526  0.00  0.00    +0.000 C 
ATOM     32  F   UNL     1       2.415   2.158  17.342  0.00  0.00    +0.000 F 
ATOM     33  F   UNL     1       1.572   1.459  19.227  0.00  0.00    +0.000 F 
ATOM     34  F   UNL     1       0.784   3.276  18.299  0.00  0.00    +0.000 F 
ENDBRANCH  30  31
ENDBRANCH  28  30
ENDBRANCH  22  24
ENDBRANCH   2  20
TORSDOF 5
ENDMDL
MODEL 8
REMARK VINA RESULT:      -8.5      1.249      1.442
REMARK  Name = 
REMARK  6 active torsions:
REMARK  status: ('A' for Active; 'I' for Inactive)
REMARK    1  A    between atoms: C_1  and  C_2
REMARK    2  A    between atoms: C_2  and  C_3
REMARK    3  A    between atoms: N_5  and  C_6
REMARK    4  A    between atoms: C_10  and  O_11
REMARK    5  A    between atoms: O_11  and  C_12
REMARK    6  A    between atoms: C_19  and  C_20
REMARK                            x       y       z     vdW  Elec       q    Type
REMARK                         _______ _______ _______ _____ _____    ______ ____
ROOT
ATOM      1  C   UNL     1       0.194   9.458  22.896  0.00  0.00    +0.000 C 
ATOM      2  C   UNL     1       0.536   9.725  21.424  0.00  0.00    +0.000 C 
ATOM      3  C   UNL     1      -0.722  10.033  20.591  0.00  0.00    +0.000 C 
ATOM      4  C   UNL     1      -0.578  11.494  20.387  0.00  0.00    +0.000 A 
ATOM      5  C   UNL     1      -1.417  12.436  19.789  0.00  0.00    +0.000 A 
ATOM      6  C   UNL     1      -0.897  13.744  19.726  0.00  0.00    +0.000 A 
ATOM      7  C   UNL     1       0.380  14.024  20.215  0.00  0.00    +0.000 A 
ATOM      8  N   UNL     1       1.194  13.104  20.771  0.00  0.00    +0.000 NA
ATOM      9  C   UNL     1       0.672  11.877  20.838  0.00  0.00    +0.000 A 
ATOM     10  O   UNL     1       1.433  10.852  21.367  0.00  0.00    +0.000 OA
ENDROOT
BRANCH   5  11
ATOM     11  C   UNL     1      -2.754  12.123  19.225  0.00  0.00    +0.000 A 
ATOM     12  C   UNL     1      -2.911  11.453  17.986  0.00  0.00    +0.000 A 
ATOM     13  C   UNL     1      -4.167  11.183  17.427  0.00  0.00    +0.000 A 
ATOM     14  C   UNL     1      -5.276  11.546  18.153  0.00  0.00    +0.000 A 
ATOM     15  C   UNL     1      -5.163  12.165  19.365  0.00  0.00    +0.000 A 
ATOM     16  C   UNL     1      -3.935  12.481  19.921  0.00  0.00    +0.000 A 
ATOM     17  O   UNL     1      -6.375  12.413  19.937  0.00  0.00    +0.000 OA
ATOM     18  C   UNL     1      -7.260  11.862  18.936  0.00  0.00    +0.000 C 
ATOM     19  O   UNL     1      -6.567  11.333  17.788  0.00  0.00    +0.000 OA
ENDBRANCH   5  11
BRANCH   2  20
ATOM     20  C   UNL     1       1.186   8.470  20.825  0.00  0.00    +0.000 C 
ATOM     21  O   UNL     1       1.187   7.400  21.432  0.00  0.00    +0.000 OA
ATOM     22  N   UNL     1       1.701   8.657  19.551  0.00  0.00    +0.000 N 
ATOM     23  H   UNL     1       1.974   9.615  19.339  0.00  0.00    +0.000 HD
BRANCH  22  24
ATOM     24  C   UNL     1       2.356   7.619  18.864  0.00  0.00    +0.000 A 
ATOM     25  C   UNL     1       3.188   7.949  17.796  0.00  0.00    +0.000 A 
ATOM     26  C   UNL     1       3.952   6.954  17.190  0.00  0.00    +0.000 A 
ATOM     27  C   UNL     1       3.808   5.624  17.586  0.00  0.00    +0.000 A 
ATOM     28  C   UNL     1       2.889   5.272  18.578  0.00  0.00    +0.000 A 
ATOM     29  C   UNL     1       2.205   6.279  19.255  0.00  0.00    +0.000 A 
BRANCH  28  30
ATOM     30  O   UNL     1       2.796   3.939  18.837  0.00  0.00    +0.000 OA
BRANCH  30  31
ATOM     31  C   UNL     1       1.772   3.185  18.201  0.00  0.00    +0.000 C 
ATOM     32  F   UNL     1       0.974   2.499  19.048  0.00  0.00    +0.000 F 
ATOM     33  F   UNL     1       0.985   4.037  17.502  0.00  0.00    +0.000 F 
ATOM     34  F   UNL     1       2.328   2.319  17.327  0.00  0.00    +0.000 F 
ENDBRANCH  30  31
ENDBRANCH  28  30
ENDBRANCH  22  24
ENDBRANCH   2  20
TORSDOF 5
ENDMDL
MODEL 9
REMARK VINA RESULT:      -8.4      1.579      2.089
REMARK  Name = 
REMARK  6 active torsions:
REMARK  status: ('A' for Active; 'I' for Inactive)
REMARK    1  A    between atoms: C_1  and  C_2
REMARK    2  A    between atoms: C_2  and  C_3
REMARK    3  A    between atoms: N_5  and  C_6
REMARK    4  A    between atoms: C_10  and  O_11
REMARK    5  A    between atoms: O_11  and  C_12
REMARK    6  A    between atoms: C_19  and  C_20
REMARK                            x       y       z     vdW  Elec       q    Type
REMARK                         _______ _______ _______ _____ _____    ______ ____
ROOT
ATOM      1  C   UNL     1       0.954   9.479  21.843  0.00  0.00    +0.000 C 
ATOM      2  C   UNL     1       1.015   9.601  20.314  0.00  0.00    +0.000 C 
ATOM      3  C   UNL     1      -0.372   9.879  19.707  0.00  0.00    +0.000 C 
ATOM      4  C   UNL     1      -0.243  11.309  19.343  0.00  0.00    +0.000 A 
ATOM      5  C   UNL     1      -1.163  12.223  18.826  0.00  0.00    +0.000 A 
ATOM      6  C   UNL     1      -0.641  13.501  18.544  0.00  0.00    +0.000 A 
ATOM      7  C   UNL     1       0.711  13.777  18.755  0.00  0.00    +0.000 A 
ATOM      8  N   UNL     1       1.598  12.882  19.233  0.00  0.00    +0.000 NA
ATOM      9  C   UNL     1       1.077  11.686  19.513  0.00  0.00    +0.000 A 
ATOM     10  O   UNL     1       1.905  10.685  19.983  0.00  0.00    +0.000 OA
ENDROOT
BRANCH   5  11
ATOM     11  C   UNL     1      -2.589  11.910  18.555  0.00  0.00    +0.000 A 
ATOM     12  C   UNL     1      -3.006  11.276  17.359  0.00  0.00    +0.000 A 
ATOM     13  C   UNL     1      -4.352  11.006  17.077  0.00  0.00    +0.000 A 
ATOM     14  C   UNL     1      -5.279  11.332  18.037  0.00  0.00    +0.000 A 
ATOM     15  C   UNL     1      -4.910  11.915  19.216  0.00  0.00    +0.000 A 
ATOM     16  C   UNL     1      -3.592  12.231  19.502  0.00  0.00    +0.000 A 
ATOM     17  O   UNL     1      -5.971  12.129  20.044  0.00  0.00    +0.000 OA
ATOM     18  C   UNL     1      -7.048  11.597  19.241  0.00  0.00    +0.000 C 
ATOM     19  O   UNL     1      -6.618  11.113  17.953  0.00  0.00    +0.000 OA
ENDBRANCH   5  11
BRANCH   2  20
ATOM     20  C   UNL     1       1.516   8.275  19.725  0.00  0.00    +0.000 C 
ATOM     21  O   UNL     1       1.764   8.163  18.525  0.00  0.00    +0.000 OA
ATOM     22  N   UNL     1       1.703   7.276  20.668  0.00  0.00    +0.000 N 
ATOM     23  H   UNL     1       1.124   7.364  21.501  0.00  0.00    +0.000 HD
BRANCH  22  24
ATOM     24  C   UNL     1       2.132   5.988  20.298  0.00  0.00    +0.000 A 
ATOM     25  C   UNL     1       1.275   4.912  20.520  0.00  0.00    +0.000 A 
ATOM     26  C   UNL     1       1.619   3.651  20.039  0.00  0.00    +0.000 A 
ATOM     27  C   UNL     1       2.858   3.451  19.427  0.00  0.00    +0.000 A 
ATOM     28  C   UNL     1       3.769   4.503  19.306  0.00  0.00    +0.000 A 
ATOM     29  C   UNL     1       3.381   5.783  19.692  0.00  0.00    +0.000 A 
BRANCH  28  30
ATOM     30  O   UNL     1       4.965   4.172  18.745  0.00  0.00    +0.000 OA
BRANCH  30  31
ATOM     31  C   UNL     1       5.092   4.201  17.329  0.00  0.00    +0.000 C 
ATOM     32  F   UNL     1       6.352   4.388  16.883  0.00  0.00    +0.000 F 
ATOM     33  F   UNL     1       4.657   3.017  16.836  0.00  0.00    +0.000 F 
ATOM     34  F   UNL     1       4.302   5.176  16.828  0.00  0.00    +0.000 F 
ENDBRANCH  30  31
ENDBRANCH  28  30
ENDBRANCH  22  24
ENDBRANCH   2  20
TORSDOF 5
ENDMDL
