MODEL 1
REMARK VINA RESULT:      -7.3      0.000      0.000
REMARK  Name = 
REMARK  4 active torsions:
REMARK  status: ('A' for Active; 'I' for Inactive)
REMARK    1  A    between atoms: C_1  and  C_2
REMARK    2  A    between atoms: C_2  and  N_3
REMARK    3  A    between atoms: C_7  and  O_8
REMARK    4  A    between atoms: N_21  and  C_22
REMARK                            x       y       z     vdW  Elec       q    Type
REMARK                         _______ _______ _______ _____ _____    ______ ____
ROOT
ATOM      1  N   UNL     1      -0.172  12.275  21.278  0.00  0.00    +0.000 N 
ATOM      2  C   UNL     1      -0.430  12.171  22.627  0.00  0.00    +0.000 C 
ATOM      3  O   UNL     1      -0.443  13.168  23.345  0.00  0.00    +0.000 OA
ATOM      4  N   UNL     1      -0.816  10.926  23.132  0.00  0.00    +0.000 NA
ATOM      5  C   UNL     1      -0.780   9.862  22.388  0.00  0.00    +0.000 C 
ATOM      6  C   UNL     1      -0.149   9.798  21.004  0.00  0.00    +0.000 C 
ATOM      7  C   UNL     1       1.234   9.038  21.308  0.00  0.00    +0.000 C 
ATOM      8  C   UNL     1       1.820   8.162  20.148  0.00  0.00    +0.000 A 
ATOM      9  C   UNL     1       1.840   8.859  18.937  0.00  0.00    +0.000 A 
ATOM     10  C   UNL     1       2.517   8.427  17.799  0.00  0.00    +0.000 A 
ATOM     11  C   UNL     1       2.806   7.096  17.699  0.00  0.00    +0.000 A 
ATOM     12  C   UNL     1       2.436   6.243  18.731  0.00  0.00    +0.000 A 
ATOM     13  C   UNL     1       2.401   4.880  18.416  0.00  0.00    +0.000 A 
ATOM     14  C   UNL     1       1.966   3.959  19.353  0.00  0.00    +0.000 A 
ATOM     15  C   UNL     1       1.619   4.401  20.627  0.00  0.00    +0.000 A 
ATOM     16  C   UNL     1       1.653   5.771  20.957  0.00  0.00    +0.000 A 
ATOM     17  C   UNL     1       2.009   6.762  20.003  0.00  0.00    +0.000 A 
ATOM     18  N   UNL     1       0.763   9.753  18.703  0.00  0.00    +0.000 N 
ATOM     19  C   UNL     1       1.302  11.109  18.608  0.00  0.00    +0.000 C 
ATOM     20  C   UNL     1      -0.412   9.298  19.579  0.00  0.00    +0.000 C 
ATOM     21  C   UNL     1      -0.685  11.206  20.637  0.00  0.00    +0.000 C 
ATOM     22  O   UNL     1      -1.740  11.368  19.997  0.00  0.00    +0.000 OA
ENDROOT
BRANCH   1  24
ATOM     23  C   UNL     1       0.689  14.412  20.193  0.00  0.00    +0.000 C 
ATOM     24  C   UNL     1      -0.475  13.525  20.564  0.00  0.00    +0.000 C 
ENDBRANCH   1  24
BRANCH   5  25
ATOM     25  O   UNL     1      -1.204   8.729  22.948  0.00  0.00    +0.000 OA
ATOM     26  H   UNL     1      -2.162   8.655  22.772  0.00  0.00    +0.000 HD
ENDBRANCH   5  25
TORSDOF 2
ENDMDL
MODEL 2
REMARK VINA RESULT:      -7.3      0.917      1.004
REMARK  Name = 
REMARK  4 active torsions:
REMARK  status: ('A' for Active; 'I' for Inactive)
REMARK    1  A    between atoms: C_1  and  C_2
REMARK    2  A    between atoms: C_2  and  N_3
REMARK    3  A    between atoms: C_7  and  O_8
REMARK    4  A    between atoms: N_21  and  C_22
REMARK                            x       y       z     vdW  Elec       q    Type
REMARK                         _______ _______ _______ _____ _____    ______ ____
ROOT
ATOM      1  N   UNL     1      -0.636  13.102  21.473  0.00  0.00    +0.000 N 
ATOM      2  C   UNL     1      -0.753  12.984  22.841  0.00  0.00    +0.000 C 
ATOM      3  O   UNL     1      -0.787  13.980  23.559  0.00  0.00    +0.000 OA
ATOM      4  N   UNL     1      -0.973  11.711  23.377  0.00  0.00    +0.000 NA
ATOM      5  C   UNL     1      -0.911  10.650  22.631  0.00  0.00    +0.000 C 
ATOM      6  C   UNL     1      -0.413  10.635  21.192  0.00  0.00    +0.000 C 
ATOM      7  C   UNL     1       1.057  10.007  21.360  0.00  0.00    +0.000 C 
ATOM      8  C   UNL     1       1.606   9.180  20.147  0.00  0.00    +0.000 A 
ATOM      9  C   UNL     1       1.446   9.869  18.941  0.00  0.00    +0.000 A 
ATOM     10  C   UNL     1       2.047   9.493  17.742  0.00  0.00    +0.000 A 
ATOM     11  C   UNL     1       2.446   8.193  17.612  0.00  0.00    +0.000 A 
ATOM     12  C   UNL     1       2.256   7.316  18.672  0.00  0.00    +0.000 A 
ATOM     13  C   UNL     1       2.315   5.954  18.359  0.00  0.00    +0.000 A 
ATOM     14  C   UNL     1       2.059   5.004  19.331  0.00  0.00    +0.000 A 
ATOM     15  C   UNL     1       1.797   5.420  20.633  0.00  0.00    +0.000 A 
ATOM     16  C   UNL     1       1.737   6.790  20.963  0.00  0.00    +0.000 A 
ATOM     17  C   UNL     1       1.908   7.803  19.981  0.00  0.00    +0.000 A 
ATOM     18  N   UNL     1       0.274  10.659  18.814  0.00  0.00    +0.000 N 
ATOM     19  C   UNL     1       0.675  12.058  18.671  0.00  0.00    +0.000 C 
ATOM     20  C   UNL     1      -0.765  10.104  19.798  0.00  0.00    +0.000 C 
ATOM     21  C   UNL     1      -1.108  11.987  20.882  0.00  0.00    +0.000 C 
ATOM     22  O   UNL     1      -2.230  12.047  20.347  0.00  0.00    +0.000 OA
ENDROOT
BRANCH   1  24
ATOM     23  C   UNL     1      -0.086  15.214  20.161  0.00  0.00    +0.000 C 
ATOM     24  C   UNL     1      -1.119  14.314  20.794  0.00  0.00    +0.000 C 
ENDBRANCH   1  24
BRANCH   5  25
ATOM     25  O   UNL     1      -1.174   9.488  23.226  0.00  0.00    +0.000 OA
ATOM     26  H   UNL     1      -0.848   9.547  24.145  0.00  0.00    +0.000 HD
ENDBRANCH   5  25
TORSDOF 2
ENDMDL
MODEL 3
REMARK VINA RESULT:      -7.0      1.274      1.406
REMARK  Name = 
REMARK  4 active torsions:
REMARK  status: ('A' for Active; 'I' for Inactive)
REMARK    1  A    between atoms: C_1  and  C_2
REMARK    2  A    between atoms: C_2  and  N_3
REMARK    3  A    between atoms: C_7  and  O_8
REMARK    4  A    between atoms: N_21  and  C_22
REMARK                            x       y       z     vdW  Elec       q    Type
REMARK                         _______ _______ _______ _____ _____    ______ ____
ROOT
ATOM      1  N   UNL     1       1.060  11.978  20.034  0.00  0.00    +0.000 N 
ATOM      2  C   UNL     1       0.673  12.146  21.346  0.00  0.00    +0.000 C 
ATOM      3  O   UNL     1       0.806  13.229  21.909  0.00  0.00    +0.000 OA
ATOM      4  N   UNL     1      -0.004  11.095  21.973  0.00  0.00    +0.000 NA
ATOM      5  C   UNL     1      -0.126   9.938  21.397  0.00  0.00    +0.000 C 
ATOM      6  C   UNL     1       0.593   9.531  20.118  0.00  0.00    +0.000 C 
ATOM      7  C   UNL     1       1.758   8.580  20.685  0.00  0.00    +0.000 C 
ATOM      8  C   UNL     1       2.246   7.432  19.736  0.00  0.00    +0.000 A 
ATOM      9  C   UNL     1       2.513   7.907  18.449  0.00  0.00    +0.000 A 
ATOM     10  C   UNL     1       3.179   7.175  17.469  0.00  0.00    +0.000 A 
ATOM     11  C   UNL     1       3.194   5.815  17.593  0.00  0.00    +0.000 A 
ATOM     12  C   UNL     1       2.569   5.227  18.686  0.00  0.00    +0.000 A 
ATOM     13  C   UNL     1       2.279   3.863  18.565  0.00  0.00    +0.000 A 
ATOM     14  C   UNL     1       1.586   3.207  19.567  0.00  0.00    +0.000 A 
ATOM     15  C   UNL     1       1.231   3.907  20.716  0.00  0.00    +0.000 A 
ATOM     16  C   UNL     1       1.520   5.281  20.851  0.00  0.00    +0.000 A 
ATOM     17  C   UNL     1       2.153   6.017  19.814  0.00  0.00    +0.000 A 
ATOM     18  N   UNL     1       1.668   8.941  17.968  0.00  0.00    +0.000 N 
ATOM     19  C   UNL     1       2.482  10.135  17.745  0.00  0.00    +0.000 C 
ATOM     20  C   UNL     1       0.354   8.867  18.757  0.00  0.00    +0.000 C 
ATOM     21  C   UNL     1       0.393  10.938  19.497  0.00  0.00    +0.000 C 
ATOM     22  O   UNL     1      -0.547  11.192  18.722  0.00  0.00    +0.000 OA
ENDROOT
BRANCH   1  24
ATOM     23  C   UNL     1       2.435  13.689  18.743  0.00  0.00    +0.000 C 
ATOM     24  C   UNL     1       1.084  13.131  19.120  0.00  0.00    +0.000 C 
ENDBRANCH   1  24
BRANCH   5  25
ATOM     25  O   UNL     1      -0.821   9.014  22.059  0.00  0.00    +0.000 OA
ATOM     26  H   UNL     1      -1.173   9.434  22.868  0.00  0.00    +0.000 HD
ENDBRANCH   5  25
TORSDOF 2
ENDMDL
MODEL 4
REMARK VINA RESULT:      -6.3      4.628      6.678
REMARK  Name = 
REMARK  4 active torsions:
REMARK  status: ('A' for Active; 'I' for Inactive)
REMARK    1  A    between atoms: C_1  and  C_2
REMARK    2  A    between atoms: C_2  and  N_3
REMARK    3  A    between atoms: C_7  and  O_8
REMARK    4  A    between atoms: N_21  and  C_22
REMARK                            x       y       z     vdW  Elec       q    Type
REMARK                         _______ _______ _______ _____ _____    ______ ____
ROOT
ATOM      1  N   UNL     1      -2.883  15.310  24.150  0.00  0.00    +0.000 N 
ATOM      2  C   UNL     1      -1.527  15.383  24.383  0.00  0.00    +0.000 C 
ATOM      3  O   UNL     1      -1.047  16.310  25.030  0.00  0.00    +0.000 OA
ATOM      4  N   UNL     1      -0.731  14.303  23.987  0.00  0.00    +0.000 NA
ATOM      5  C   UNL     1      -1.223  13.331  23.280  0.00  0.00    +0.000 C 
ATOM      6  C   UNL     1      -2.608  13.342  22.646  0.00  0.00    +0.000 C 
ATOM      7  C   UNL     1      -2.262  13.638  21.105  0.00  0.00    +0.000 C 
ATOM      8  C   UNL     1      -3.247  13.042  20.041  0.00  0.00    +0.000 A 
ATOM      9  C   UNL     1      -4.579  13.321  20.360  0.00  0.00    +0.000 A 
ATOM     10  C   UNL     1      -5.647  13.129  19.487  0.00  0.00    +0.000 A 
ATOM     11  C   UNL     1      -5.476  12.245  18.460  0.00  0.00    +0.000 A 
ATOM     12  C   UNL     1      -4.255  11.598  18.318  0.00  0.00    +0.000 A 
ATOM     13  C   UNL     1      -4.260  10.450  17.519  0.00  0.00    +0.000 A 
ATOM     14  C   UNL     1      -3.110   9.691  17.382  0.00  0.00    +0.000 A 
ATOM     15  C   UNL     1      -1.940  10.116  18.004  0.00  0.00    +0.000 A 
ATOM     16  C   UNL     1      -1.922  11.274  18.811  0.00  0.00    +0.000 A 
ATOM     17  C   UNL     1      -3.097  12.036  19.050  0.00  0.00    +0.000 A 
ATOM     18  N   UNL     1      -4.911  13.326  21.739  0.00  0.00    +0.000 N 
ATOM     19  C   UNL     1      -5.346  14.674  22.104  0.00  0.00    +0.000 C 
ATOM     20  C   UNL     1      -3.862  12.478  22.469  0.00  0.00    +0.000 C 
ATOM     21  C   UNL     1      -3.228  14.035  23.888  0.00  0.00    +0.000 C 
ATOM     22  O   UNL     1      -3.798  13.393  24.789  0.00  0.00    +0.000 OA
ENDROOT
BRANCH   1  24
ATOM     23  C   UNL     1      -4.443  17.254  24.676  0.00  0.00    +0.000 C 
ATOM     24  C   UNL     1      -3.826  15.940  25.088  0.00  0.00    +0.000 C 
ENDBRANCH   1  24
BRANCH   5  25
ATOM     25  O   UNL     1      -0.396  12.330  22.985  0.00  0.00    +0.000 OA
ATOM     26  H   UNL     1      -0.742  11.526  23.419  0.00  0.00    +0.000 HD
ENDBRANCH   5  25
TORSDOF 2
ENDMDL
MODEL 5
REMARK VINA RESULT:      -6.2      3.324      5.669
REMARK  Name = 
REMARK  4 active torsions:
REMARK  status: ('A' for Active; 'I' for Inactive)
REMARK    1  A    between atoms: C_1  and  C_2
REMARK    2  A    between atoms: C_2  and  N_3
REMARK    3  A    between atoms: C_7  and  O_8
REMARK    4  A    between atoms: N_21  and  C_22
REMARK                            x       y       z     vdW  Elec       q    Type
REMARK                         _______ _______ _______ _____ _____    ______ ____
ROOT
ATOM      1  N   UNL     1       1.490  16.746  19.642  0.00  0.00    +0.000 N 
ATOM      2  C   UNL     1       1.928  17.135  18.394  0.00  0.00    +0.000 C 
ATOM      3  O   UNL     1       1.686  18.259  17.963  0.00  0.00    +0.000 OA
ATOM      4  N   UNL     1       2.774  16.270  17.693  0.00  0.00    +0.000 NA
ATOM      5  C   UNL     1       3.014  15.070  18.126  0.00  0.00    +0.000 C 
ATOM      6  C   UNL     1       2.281  14.409  19.286  0.00  0.00    +0.000 C 
ATOM      7  C   UNL     1       1.287  13.406  18.519  0.00  0.00    +0.000 C 
ATOM      8  C   UNL     1       0.901  12.089  19.276  0.00  0.00    +0.000 A 
ATOM      9  C   UNL     1       0.498  12.351  20.589  0.00  0.00    +0.000 A 
ATOM     10  C   UNL     1      -0.122  11.417  21.416  0.00  0.00    +0.000 A 
ATOM     11  C   UNL     1       0.051  10.094  21.121  0.00  0.00    +0.000 A 
ATOM     12  C   UNL     1       0.811   9.740  20.014  0.00  0.00    +0.000 A 
ATOM     13  C   UNL     1       1.271   8.419  19.984  0.00  0.00    +0.000 A 
ATOM     14  C   UNL     1       2.103   7.994  18.963  0.00  0.00    +0.000 A 
ATOM     15  C   UNL     1       2.429   8.881  17.941  0.00  0.00    +0.000 A 
ATOM     16  C   UNL     1       1.969  10.214  17.958  0.00  0.00    +0.000 A 
ATOM     17  C   UNL     1       1.185  10.720  19.029  0.00  0.00    +0.000 A 
ATOM     18  N   UNL     1       1.170  13.407  21.258  0.00  0.00    +0.000 N 
ATOM     19  C   UNL     1       0.193  14.451  21.567  0.00  0.00    +0.000 C 
ATOM     20  C   UNL     1       2.525  13.603  20.567  0.00  0.00    +0.000 C 
ATOM     21  C   UNL     1       2.256  15.734  20.093  0.00  0.00    +0.000 C 
ATOM     22  O   UNL     1       3.107  15.996  20.962  0.00  0.00    +0.000 OA
ENDROOT
BRANCH   1  24
ATOM     23  C   UNL     1      -0.170  18.146  20.972  0.00  0.00    +0.000 C 
ATOM     24  C   UNL     1       1.260  17.753  20.689  0.00  0.00    +0.000 C 
ENDBRANCH   1  24
BRANCH   5  25
ATOM     25  O   UNL     1       3.862  14.335  17.409  0.00  0.00    +0.000 OA
ATOM     26  H   UNL     1       4.696  14.272  17.914  0.00  0.00    +0.000 HD
ENDBRANCH   5  25
TORSDOF 2
ENDMDL
MODEL 6
REMARK VINA RESULT:      -6.2      3.412      5.942
REMARK  Name = 
REMARK  4 active torsions:
REMARK  status: ('A' for Active; 'I' for Inactive)
REMARK    1  A    between atoms: C_1  and  C_2
REMARK    2  A    between atoms: C_2  and  N_3
REMARK    3  A    between atoms: C_7  and  O_8
REMARK    4  A    between atoms: N_21  and  C_22
REMARK                            x       y       z     vdW  Elec       q    Type
REMARK                         _______ _______ _______ _____ _____    ______ ____
ROOT
ATOM      1  N   UNL     1       1.834  16.685  19.133  0.00  0.00    +0.000 N 
ATOM      2  C   UNL     1       2.337  16.598  17.853  0.00  0.00    +0.000 C 
ATOM      3  O   UNL     1       2.296  17.562  17.092  0.00  0.00    +0.000 OA
ATOM      4  N   UNL     1       3.022  15.434  17.490  0.00  0.00    +0.000 NA
ATOM      5  C   UNL     1       3.048  14.400  18.275  0.00  0.00    +0.000 C 
ATOM      6  C   UNL     1       2.207  14.254  19.537  0.00  0.00    +0.000 C 
ATOM      7  C   UNL     1       1.056  13.244  19.050  0.00  0.00    +0.000 C 
ATOM      8  C   UNL     1       0.444  12.303  20.143  0.00  0.00    +0.000 A 
ATOM      9  C   UNL     1       0.089  13.014  21.293  0.00  0.00    +0.000 A 
ATOM     10  C   UNL     1      -0.687  12.492  22.326  0.00  0.00    +0.000 A 
ATOM     11  C   UNL     1      -0.747  11.132  22.450  0.00  0.00    +0.000 A 
ATOM     12  C   UNL     1      -0.057  10.338  21.544  0.00  0.00    +0.000 A 
ATOM     13  C   UNL     1       0.166   9.013  21.935  0.00  0.00    +0.000 A 
ATOM     14  C   UNL     1       0.914   8.167  21.137  0.00  0.00    +0.000 A 
ATOM     15  C   UNL     1       1.393   8.634  19.916  0.00  0.00    +0.000 A 
ATOM     16  C   UNL     1       1.173   9.966  19.508  0.00  0.00    +0.000 A 
ATOM     17  C   UNL     1       0.485  10.896  20.333  0.00  0.00    +0.000 A 
ATOM     18  N   UNL     1       0.932  14.097  21.653  0.00  0.00    +0.000 N 
ATOM     19  C   UNL     1       0.152  15.332  21.581  0.00  0.00    +0.000 C 
ATOM     20  C   UNL     1       2.303  13.847  21.012  0.00  0.00    +0.000 C 
ATOM     21  C   UNL     1       2.411  15.746  19.908  0.00  0.00    +0.000 C 
ATOM     22  O   UNL     1       3.292  16.116  20.705  0.00  0.00    +0.000 OA
ENDROOT
BRANCH   1  24
ATOM     23  C   UNL     1       0.425  18.630  19.979  0.00  0.00    +0.000 C 
ATOM     24  C   UNL     1       1.781  17.987  19.816  0.00  0.00    +0.000 C 
ENDBRANCH   1  24
BRANCH   5  25
ATOM     25  O   UNL     1       3.757  13.353  17.858  0.00  0.00    +0.000 OA
ATOM     26  H   UNL     1       4.697  13.620  17.847  0.00  0.00    +0.000 HD
ENDBRANCH   5  25
TORSDOF 2
ENDMDL
MODEL 7
REMARK VINA RESULT:      -6.1      8.809      9.996
REMARK  Name = 
REMARK  4 active torsions:
REMARK  status: ('A' for Active; 'I' for Inactive)
REMARK    1  A    between atoms: C_1  and  C_2
REMARK    2  A    between atoms: C_2  and  N_3
REMARK    3  A    between atoms: C_7  and  O_8
REMARK    4  A    between atoms: N_21  and  C_22
REMARK                            x       y       z     vdW  Elec       q    Type
REMARK                         _______ _______ _______ _____ _____    ______ ____
ROOT
ATOM      1  N   UNL     1       5.655  17.074  21.558  0.00  0.00    +0.000 N 
ATOM      2  C   UNL     1       5.156  17.744  20.462  0.00  0.00    +0.000 C 
ATOM      3  O   UNL     1       4.051  18.280  20.500  0.00  0.00    +0.000 OA
ATOM      4  N   UNL     1       5.995  17.919  19.357  0.00  0.00    +0.000 NA
ATOM      5  C   UNL     1       7.153  17.335  19.296  0.00  0.00    +0.000 C 
ATOM      6  C   UNL     1       7.635  16.273  20.274  0.00  0.00    +0.000 C 
ATOM      7  C   UNL     1       7.457  14.927  19.414  0.00  0.00    +0.000 C 
ATOM      8  C   UNL     1       8.452  13.758  19.730  0.00  0.00    +0.000 A 
ATOM      9  C   UNL     1       8.539  13.514  21.104  0.00  0.00    +0.000 A 
ATOM     10  C   UNL     1       9.152  12.395  21.661  0.00  0.00    +0.000 A 
ATOM     11  C   UNL     1      10.073  11.731  20.901  0.00  0.00    +0.000 A 
ATOM     12  C   UNL     1      10.344  12.183  19.616  0.00  0.00    +0.000 A 
ATOM     13  C   UNL     1      11.537  11.728  19.045  0.00  0.00    +0.000 A 
ATOM     14  C   UNL     1      11.934  12.187  17.801  0.00  0.00    +0.000 A 
ATOM     15  C   UNL     1      11.104  13.060  17.104  0.00  0.00    +0.000 A 
ATOM     16  C   UNL     1       9.897  13.524  17.668  0.00  0.00    +0.000 A 
ATOM     17  C   UNL     1       9.491  13.150  18.976  0.00  0.00    +0.000 A 
ATOM     18  N   UNL     1       8.451  14.647  21.954  0.00  0.00    +0.000 N 
ATOM     19  C   UNL     1       7.255  14.507  22.785  0.00  0.00    +0.000 C 
ATOM     20  C   UNL     1       8.847  15.877  21.127  0.00  0.00    +0.000 C 
ATOM     21  C   UNL     1       6.999  17.017  21.477  0.00  0.00    +0.000 C 
ATOM     22  O   UNL     1       7.655  17.785  22.203  0.00  0.00    +0.000 OA
ENDROOT
BRANCH   1  24
ATOM     23  C   UNL     1       4.212  16.542  23.588  0.00  0.00    +0.000 C 
ATOM     24  C   UNL     1       5.214  17.446  22.911  0.00  0.00    +0.000 C 
ENDBRANCH   1  24
BRANCH   5  25
ATOM     25  O   UNL     1       7.895  17.594  18.220  0.00  0.00    +0.000 OA
ATOM     26  H   UNL     1       7.684  18.502  17.929  0.00  0.00    +0.000 HD
ENDBRANCH   5  25
TORSDOF 2
ENDMDL
MODEL 8
REMARK VINA RESULT:      -6.0      8.456     10.080
REMARK  Name = 
REMARK  4 active torsions:
REMARK  status: ('A' for Active; 'I' for Inactive)
REMARK    1  A    between atoms: C_1  and  C_2
REMARK    2  A    between atoms: C_2  and  N_3
REMARK    3  A    between atoms: C_7  and  O_8
REMARK    4  A    between atoms: N_21  and  C_22
REMARK                            x       y       z     vdW  Elec       q    Type
REMARK                         _______ _______ _______ _____ _____    ______ ____
ROOT
ATOM      1  N   UNL     1       6.342  13.683  23.562  0.00  0.00    +0.000 N 
ATOM      2  C   UNL     1       5.481  14.725  23.292  0.00  0.00    +0.000 C 
ATOM      3  O   UNL     1       4.354  14.753  23.781  0.00  0.00    +0.000 OA
ATOM      4  N   UNL     1       5.970  15.815  22.566  0.00  0.00    +0.000 NA
ATOM      5  C   UNL     1       7.149  15.783  22.023  0.00  0.00    +0.000 C 
ATOM      6  C   UNL     1       8.025  14.540  21.936  0.00  0.00    +0.000 C 
ATOM      7  C   UNL     1       7.841  14.116  20.396  0.00  0.00    +0.000 C 
ATOM      8  C   UNL     1       9.052  13.382  19.724  0.00  0.00    +0.000 A 
ATOM      9  C   UNL     1       9.525  12.336  20.521  0.00  0.00    +0.000 A 
ATOM     10  C   UNL     1      10.426  11.368  20.084  0.00  0.00    +0.000 A 
ATOM     11  C   UNL     1      11.212  11.671  19.009  0.00  0.00    +0.000 A 
ATOM     12  C   UNL     1      11.070  12.908  18.392  0.00  0.00    +0.000 A 
ATOM     13  C   UNL     1      12.132  13.311  17.576  0.00  0.00    +0.000 A 
ATOM     14  C   UNL     1      12.120  14.562  16.984  0.00  0.00    +0.000 A 
ATOM     15  C   UNL     1      11.014  15.388  17.166  0.00  0.00    +0.000 A 
ATOM     16  C   UNL     1       9.936  14.992  17.985  0.00  0.00    +0.000 A 
ATOM     17  C   UNL     1       9.943  13.754  18.683  0.00  0.00    +0.000 A 
ATOM     18  N   UNL     1       9.485  12.541  21.924  0.00  0.00    +0.000 N 
ATOM     19  C   UNL     1       8.580  11.552  22.509  0.00  0.00    +0.000 C 
ATOM     20  C   UNL     1       9.461  14.056  22.168  0.00  0.00    +0.000 C 
ATOM     21  C   UNL     1       7.612  14.085  23.360  0.00  0.00    +0.000 C 
ATOM     22  O   UNL     1       8.307  14.334  24.362  0.00  0.00    +0.000 OA
ENDROOT
BRANCH   1  24
ATOM     23  C   UNL     1       5.889  11.455  24.709  0.00  0.00    +0.000 C 
ATOM     24  C   UNL     1       6.212  12.926  24.816  0.00  0.00    +0.000 C 
ENDBRANCH   1  24
BRANCH   5  25
ATOM     25  O   UNL     1       7.541  16.884  21.384  0.00  0.00    +0.000 OA
ATOM     26  H   UNL     1       6.747  17.432  21.228  0.00  0.00    +0.000 HD
ENDBRANCH   5  25
TORSDOF 2
ENDMDL
MODEL 9
REMARK VINA RESULT:      -5.9      5.077      7.138
REMARK  Name = 
REMARK  4 active torsions:
REMARK  status: ('A' for Active; 'I' for Inactive)
REMARK    1  A    between atoms: C_1  and  C_2
REMARK    2  A    between atoms: C_2  and  N_3
REMARK    3  A    between atoms: C_7  and  O_8
REMARK    4  A    between atoms: N_21  and  C_22
REMARK                            x       y       z     vdW  Elec       q    Type
REMARK                         _______ _______ _______ _____ _____    ______ ____
ROOT
ATOM      1  N   UNL     1      -5.688  14.833  23.297  0.00  0.00    +0.000 N 
ATOM      2  C   UNL     1      -4.573  14.990  24.091  0.00  0.00    +0.000 C 
ATOM      3  O   UNL     1      -4.502  15.908  24.904  0.00  0.00    +0.000 OA
ATOM      4  N   UNL     1      -3.587  13.999  24.049  0.00  0.00    +0.000 NA
ATOM      5  C   UNL     1      -3.639  13.040  23.175  0.00  0.00    +0.000 C 
ATOM      6  C   UNL     1      -4.617  12.988  22.009  0.00  0.00    +0.000 C 
ATOM      7  C   UNL     1      -3.678  13.404  20.773  0.00  0.00    +0.000 C 
ATOM      8  C   UNL     1      -4.056  12.804  19.375  0.00  0.00    +0.000 A 
ATOM      9  C   UNL     1      -5.417  12.964  19.099  0.00  0.00    +0.000 A 
ATOM     10  C   UNL     1      -5.990  12.748  17.848  0.00  0.00    +0.000 A 
ATOM     11  C   UNL     1      -5.317  11.945  16.971  0.00  0.00    +0.000 A 
ATOM     12  C   UNL     1      -4.097  11.400  17.351  0.00  0.00    +0.000 A 
ATOM     13  C   UNL     1      -3.653  10.307  16.599  0.00  0.00    +0.000 A 
ATOM     14  C   UNL     1      -2.490   9.645  16.951  0.00  0.00    +0.000 A 
ATOM     15  C   UNL     1      -1.741  10.115  18.025  0.00  0.00    +0.000 A 
ATOM     16  C   UNL     1      -2.175  11.218  18.789  0.00  0.00    +0.000 A 
ATOM     17  C   UNL     1      -3.406  11.876  18.520  0.00  0.00    +0.000 A 
ATOM     18  N   UNL     1      -6.303  12.858  20.202  0.00  0.00    +0.000 N 
ATOM     19  C   UNL     1      -6.976  14.145  20.378  0.00  0.00    +0.000 C 
ATOM     20  C   UNL     1      -5.590  12.046  21.290  0.00  0.00    +0.000 C 
ATOM     21  C   UNL     1      -5.768  13.554  22.881  0.00  0.00    +0.000 C 
ATOM     22  O   UNL     1      -6.604  12.817  23.434  0.00  0.00    +0.000 OA
ENDROOT
BRANCH   1  24
ATOM     23  C   UNL     1      -7.522  16.589  23.110  0.00  0.00    +0.000 C 
ATOM     24  C   UNL     1      -6.994  15.332  23.756  0.00  0.00    +0.000 C 
ENDBRANCH   1  24
BRANCH   5  25
ATOM     25  O   UNL     1      -2.675  12.122  23.240  0.00  0.00    +0.000 OA
ATOM     26  H   UNL     1      -2.415  11.905  22.323  0.00  0.00    +0.000 HD
ENDBRANCH   5  25
TORSDOF 2
ENDMDL
