MODEL 1
REMARK VINA RESULT:      -8.7      0.000      0.000
REMARK  Name = 
REMARK  5 active torsions:
REMARK  status: ('A' for Active; 'I' for Inactive)
REMARK    1  A    between atoms: C_1  and  O_2
REMARK    2  A    between atoms: O_2  and  C_3
REMARK    3  A    between atoms: C_5  and  O_6
REMARK    4  A    between atoms: O_6  and  C_7
REMARK    5  A    between atoms: C_9  and  C_10
REMARK                            x       y       z     vdW  Elec       q    Type
REMARK                         _______ _______ _______ _____ _____    ______ ____
ROOT
ATOM      1  C   UNL     1       3.169   4.968  19.065  0.00  0.00    +0.000 C 
ATOM      2  C   UNL     1       4.164   5.016  17.917  0.00  0.00    +0.000 A 
ATOM      3  C   UNL     1       4.163   4.905  16.536  0.00  0.00    +0.000 A 
ATOM      4  C   UNL     1       5.408   5.166  15.955  0.00  0.00    +0.000 A 
ATOM      5  C   UNL     1       6.444   5.714  16.692  0.00  0.00    +0.000 A 
ATOM      6  C   UNL     1       6.484   5.533  18.040  0.00  0.00    +0.000 A 
ATOM      7  C   UNL     1       5.411   4.819  18.501  0.00  0.00    +0.000 A 
ATOM      8  N   UNL     1       5.537   3.651  19.270  0.00  0.00    +0.000 N 
ATOM      9  C   UNL     1       4.323   2.893  19.588  0.00  0.00    +0.000 C 
ATOM     10  C   UNL     1       3.674   1.962  18.580  0.00  0.00    +0.000 C 
ATOM     11  O   UNL     1       2.381   1.764  19.194  0.00  0.00    +0.000 OA
ATOM     12  C   UNL     1       2.129   2.905  19.913  0.00  0.00    +0.000 C 
ATOM     13  O   UNL     1       1.101   3.072  20.552  0.00  0.00    +0.000 OA
ATOM     14  N   UNL     1       3.223   3.744  19.867  0.00  0.00    +0.000 N 
ATOM     15  O   UNL     1       7.577   5.903  15.958  0.00  0.00    +0.000 OA
ATOM     16  C   UNL     1       7.334   4.832  15.041  0.00  0.00    +0.000 C 
ATOM     17  O   UNL     1       5.906   4.696  14.765  0.00  0.00    +0.000 OA
ATOM     18  H   UNL     1       6.209   3.733  20.016  0.00  0.00    +0.000 HD
ENDROOT
BRANCH   1  23
ATOM     19  C   UNL     1       1.877   8.146  18.470  0.00  0.00    +0.000 A 
ATOM     20  C   UNL     1       1.733   8.668  19.752  0.00  0.00    +0.000 A 
ATOM     21  C   UNL     1       1.554   7.768  20.835  0.00  0.00    +0.000 A 
ATOM     22  C   UNL     1       1.769   6.384  20.660  0.00  0.00    +0.000 A 
ATOM     23  C   UNL     1       2.025   5.919  19.359  0.00  0.00    +0.000 A 
ATOM     24  C   UNL     1       1.721   6.782  18.266  0.00  0.00    +0.000 A 
BRANCH  19  26
ATOM     25  C   UNL     1       2.216  10.375  17.785  0.00  0.00    +0.000 C 
ATOM     26  O   UNL     1       2.290   8.970  17.454  0.00  0.00    +0.000 OA
ENDBRANCH  19  26
BRANCH  21  27
ATOM     27  O   UNL     1       1.386   8.383  22.054  0.00  0.00    +0.000 OA
ATOM     28  C   UNL     1       0.315   9.308  22.146  0.00  0.00    +0.000 C 
ENDBRANCH  21  27
ENDBRANCH   1  23
TORSDOF 3
ENDMDL
MODEL 2
REMARK VINA RESULT:      -7.7      1.561      5.887
REMARK  Name = 
REMARK  5 active torsions:
REMARK  status: ('A' for Active; 'I' for Inactive)
REMARK    1  A    between atoms: C_1  and  O_2
REMARK    2  A    between atoms: O_2  and  C_3
REMARK    3  A    between atoms: C_5  and  O_6
REMARK    4  A    between atoms: O_6  and  C_7
REMARK    5  A    between atoms: C_9  and  C_10
REMARK                            x       y       z     vdW  Elec       q    Type
REMARK                         _______ _______ _______ _____ _____    ______ ____
ROOT
ATOM      1  C   UNL     1       3.733   4.288  17.843  0.00  0.00    +0.000 C 
ATOM      2  C   UNL     1       3.153   5.497  18.558  0.00  0.00    +0.000 A 
ATOM      3  C   UNL     1       3.231   6.106  19.800  0.00  0.00    +0.000 A 
ATOM      4  C   UNL     1       2.546   7.323  19.868  0.00  0.00    +0.000 A 
ATOM      5  C   UNL     1       2.062   7.940  18.727  0.00  0.00    +0.000 A 
ATOM      6  C   UNL     1       1.766   7.194  17.629  0.00  0.00    +0.000 A 
ATOM      7  C   UNL     1       2.036   5.865  17.815  0.00  0.00    +0.000 A 
ATOM      8  N   UNL     1       1.085   4.851  17.621  0.00  0.00    +0.000 N 
ATOM      9  C   UNL     1       1.444   3.478  17.986  0.00  0.00    +0.000 C 
ATOM     10  C   UNL     1       1.417   3.000  19.426  0.00  0.00    +0.000 C 
ATOM     11  O   UNL     1       2.175   1.775  19.315  0.00  0.00    +0.000 OA
ATOM     12  C   UNL     1       3.042   1.964  18.267  0.00  0.00    +0.000 C 
ATOM     13  O   UNL     1       3.843   1.115  17.908  0.00  0.00    +0.000 OA
ATOM     14  N   UNL     1       2.793   3.179  17.663  0.00  0.00    +0.000 N 
ATOM     15  O   UNL     1       1.429   9.120  18.988  0.00  0.00    +0.000 OA
ATOM     16  C   UNL     1       0.998   8.762  20.305  0.00  0.00    +0.000 C 
ATOM     17  O   UNL     1       1.995   7.928  20.971  0.00  0.00    +0.000 OA
ATOM     18  H   UNL     1       0.560   4.953  16.766  0.00  0.00    +0.000 HD
ENDROOT
BRANCH   1  23
ATOM     19  C   UNL     1       6.953   5.608  17.767  0.00  0.00    +0.000 A 
ATOM     20  C   UNL     1       7.308   5.486  16.426  0.00  0.00    +0.000 A 
ATOM     21  C   UNL     1       6.690   4.471  15.651  0.00  0.00    +0.000 A 
ATOM     22  C   UNL     1       5.568   3.772  16.148  0.00  0.00    +0.000 A 
ATOM     23  C   UNL     1       5.179   4.015  17.476  0.00  0.00    +0.000 A 
ATOM     24  C   UNL     1       6.107   4.668  18.337  0.00  0.00    +0.000 A 
BRANCH  19  26
ATOM     25  C   UNL     1       7.706   7.836  17.618  0.00  0.00    +0.000 C 
ATOM     26  O   UNL     1       7.350   6.721  18.465  0.00  0.00    +0.000 OA
ENDBRANCH  19  26
BRANCH  21  27
ATOM     27  O   UNL     1       7.133   4.409  14.349  0.00  0.00    +0.000 OA
ATOM     28  C   UNL     1       6.231   3.852  13.407  0.00  0.00    +0.000 C 
ENDBRANCH  21  27
ENDBRANCH   1  23
TORSDOF 3
ENDMDL
MODEL 3
REMARK VINA RESULT:      -6.5      7.863     10.470
REMARK  Name = 
REMARK  5 active torsions:
REMARK  status: ('A' for Active; 'I' for Inactive)
REMARK    1  A    between atoms: C_1  and  O_2
REMARK    2  A    between atoms: O_2  and  C_3
REMARK    3  A    between atoms: C_5  and  O_6
REMARK    4  A    between atoms: O_6  and  C_7
REMARK    5  A    between atoms: C_9  and  C_10
REMARK                            x       y       z     vdW  Elec       q    Type
REMARK                         _______ _______ _______ _____ _____    ______ ____
ROOT
ATOM      1  C   UNL     1      -3.634  12.846  20.355  0.00  0.00    +0.000 C 
ATOM      2  C   UNL     1      -2.215  12.575  19.884  0.00  0.00    +0.000 A 
ATOM      3  C   UNL     1      -1.400  11.487  19.614  0.00  0.00    +0.000 A 
ATOM      4  C   UNL     1      -0.163  11.839  19.065  0.00  0.00    +0.000 A 
ATOM      5  C   UNL     1       0.086  13.128  18.625  0.00  0.00    +0.000 A 
ATOM      6  C   UNL     1      -0.604  14.171  19.160  0.00  0.00    +0.000 A 
ATOM      7  C   UNL     1      -1.524  13.763  20.090  0.00  0.00    +0.000 A 
ATOM      8  N   UNL     1      -1.566  14.264  21.401  0.00  0.00    +0.000 N 
ATOM      9  C   UNL     1      -2.501  13.653  22.350  0.00  0.00    +0.000 C 
ATOM     10  C   UNL     1      -2.196  12.335  23.038  0.00  0.00    +0.000 C 
ATOM     11  O   UNL     1      -3.505  11.988  23.541  0.00  0.00    +0.000 OA
ATOM     12  C   UNL     1      -4.404  12.559  22.675  0.00  0.00    +0.000 C 
ATOM     13  O   UNL     1      -5.613  12.449  22.807  0.00  0.00    +0.000 OA
ATOM     14  N   UNL     1      -3.737  13.320  21.737  0.00  0.00    +0.000 N 
ATOM     15  O   UNL     1       1.342  13.283  18.116  0.00  0.00    +0.000 OA
ATOM     16  C   UNL     1       1.947  12.263  18.917  0.00  0.00    +0.000 C 
ATOM     17  O   UNL     1       1.024  11.153  19.134  0.00  0.00    +0.000 OA
ATOM     18  H   UNL     1      -1.487  15.268  21.449  0.00  0.00    +0.000 HD
ENDROOT
BRANCH   1  23
ATOM     19  C   UNL     1      -5.078  11.762  17.378  0.00  0.00    +0.000 A 
ATOM     20  C   UNL     1      -5.975  12.784  17.078  0.00  0.00    +0.000 A 
ATOM     21  C   UNL     1      -6.492  13.568  18.142  0.00  0.00    +0.000 A 
ATOM     22  C   UNL     1      -5.925  13.487  19.433  0.00  0.00    +0.000 A 
ATOM     23  C   UNL     1      -4.938  12.512  19.656  0.00  0.00    +0.000 A 
ATOM     24  C   UNL     1      -4.808  11.459  18.705  0.00  0.00    +0.000 A 
BRANCH  19  26
ATOM     25  C   UNL     1      -3.364  10.245  16.817  0.00  0.00    +0.000 C 
ATOM     26  O   UNL     1      -4.387  11.158  16.359  0.00  0.00    +0.000 OA
ENDBRANCH  19  26
BRANCH  21  27
ATOM     27  O   UNL     1      -7.396  14.526  17.747  0.00  0.00    +0.000 OA
ATOM     28  C   UNL     1      -7.268  14.996  16.416  0.00  0.00    +0.000 C 
ENDBRANCH  21  27
ENDBRANCH   1  23
TORSDOF 3
ENDMDL
MODEL 4
REMARK VINA RESULT:      -6.5      8.088     11.214
REMARK  Name = 
REMARK  5 active torsions:
REMARK  status: ('A' for Active; 'I' for Inactive)
REMARK    1  A    between atoms: C_1  and  O_2
REMARK    2  A    between atoms: O_2  and  C_3
REMARK    3  A    between atoms: C_5  and  O_6
REMARK    4  A    between atoms: O_6  and  C_7
REMARK    5  A    between atoms: C_9  and  C_10
REMARK                            x       y       z     vdW  Elec       q    Type
REMARK                         _______ _______ _______ _____ _____    ______ ____
ROOT
ATOM      1  C   UNL     1       8.873  12.641  21.793  0.00  0.00    +0.000 C 
ATOM      2  C   UNL     1       8.018  12.392  23.024  0.00  0.00    +0.000 A 
ATOM      3  C   UNL     1       6.845  11.733  23.358  0.00  0.00    +0.000 A 
ATOM      4  C   UNL     1       6.580  11.730  24.731  0.00  0.00    +0.000 A 
ATOM      5  C   UNL     1       7.534  12.137  25.648  0.00  0.00    +0.000 A 
ATOM      6  C   UNL     1       8.507  13.010  25.270  0.00  0.00    +0.000 A 
ATOM      7  C   UNL     1       8.411  13.353  23.948  0.00  0.00    +0.000 A 
ATOM      8  N   UNL     1       8.333  14.682  23.502  0.00  0.00    +0.000 N 
ATOM      9  C   UNL     1       8.091  14.926  22.077  0.00  0.00    +0.000 C 
ATOM     10  C   UNL     1       6.705  14.814  21.470  0.00  0.00    +0.000 C 
ATOM     11  O   UNL     1       7.032  14.770  20.064  0.00  0.00    +0.000 OA
ATOM     12  C   UNL     1       8.282  14.207  19.987  0.00  0.00    +0.000 C 
ATOM     13  O   UNL     1       8.857  14.011  18.927  0.00  0.00    +0.000 OA
ATOM     14  N   UNL     1       8.785  14.001  21.255  0.00  0.00    +0.000 N 
ATOM     15  O   UNL     1       7.100  12.060  26.938  0.00  0.00    +0.000 OA
ATOM     16  C   UNL     1       5.716  12.265  26.635  0.00  0.00    +0.000 C 
ATOM     17  O   UNL     1       5.364  11.642  25.362  0.00  0.00    +0.000 OA
ATOM     18  H   UNL     1       9.004  15.293  23.942  0.00  0.00    +0.000 HD
ENDROOT
BRANCH   1  23
ATOM     19  C   UNL     1      11.323  12.231  19.354  0.00  0.00    +0.000 A 
ATOM     20  C   UNL     1      10.656  11.522  18.359  0.00  0.00    +0.000 A 
ATOM     21  C   UNL     1       9.553  10.709  18.729  0.00  0.00    +0.000 A 
ATOM     22  C   UNL     1       8.987  10.811  20.018  0.00  0.00    +0.000 A 
ATOM     23  C   UNL     1       9.636  11.632  20.956  0.00  0.00    +0.000 A 
ATOM     24  C   UNL     1      10.975  12.034  20.683  0.00  0.00    +0.000 A 
BRANCH  19  26
ATOM     25  C   UNL     1      12.333  13.386  17.566  0.00  0.00    +0.000 C 
ATOM     26  O   UNL     1      12.226  13.200  18.995  0.00  0.00    +0.000 OA
ENDBRANCH  19  26
BRANCH  21  27
ATOM     27  O   UNL     1       8.984  10.023  17.680  0.00  0.00    +0.000 OA
ATOM     28  C   UNL     1       8.240   8.865  18.021  0.00  0.00    +0.000 C 
ENDBRANCH  21  27
ENDBRANCH   1  23
TORSDOF 3
ENDMDL
MODEL 5
REMARK VINA RESULT:      -6.3      6.903     10.623
REMARK  Name = 
REMARK  5 active torsions:
REMARK  status: ('A' for Active; 'I' for Inactive)
REMARK    1  A    between atoms: C_1  and  O_2
REMARK    2  A    between atoms: O_2  and  C_3
REMARK    3  A    between atoms: C_5  and  O_6
REMARK    4  A    between atoms: O_6  and  C_7
REMARK    5  A    between atoms: C_9  and  C_10
REMARK                            x       y       z     vdW  Elec       q    Type
REMARK                         _______ _______ _______ _____ _____    ______ ____
ROOT
ATOM      1  C   UNL     1      -2.343  13.339  20.738  0.00  0.00    +0.000 C 
ATOM      2  C   UNL     1      -1.543  12.186  21.321  0.00  0.00    +0.000 A 
ATOM      3  C   UNL     1      -1.259  11.642  22.563  0.00  0.00    +0.000 A 
ATOM      4  C   UNL     1      -0.533  10.449  22.496  0.00  0.00    +0.000 A 
ATOM      5  C   UNL     1      -0.349   9.787  21.295  0.00  0.00    +0.000 A 
ATOM      6  C   UNL     1      -0.389  10.482  20.126  0.00  0.00    +0.000 A 
ATOM      7  C   UNL     1      -0.653  11.811  20.321  0.00  0.00    +0.000 A 
ATOM      8  N   UNL     1       0.169  12.839  19.832  0.00  0.00    +0.000 N 
ATOM      9  C   UNL     1      -0.135  14.219  20.221  0.00  0.00    +0.000 C 
ATOM     10  C   UNL     1       0.259  14.773  21.578  0.00  0.00    +0.000 C 
ATOM     11  O   UNL     1      -0.550  15.969  21.623  0.00  0.00    +0.000 OA
ATOM     12  C   UNL     1      -1.658  15.701  20.858  0.00  0.00    +0.000 C 
ATOM     13  O   UNL     1      -2.560  16.508  20.693  0.00  0.00    +0.000 OA
ATOM     14  N   UNL     1      -1.532  14.463  20.262  0.00  0.00    +0.000 N 
ATOM     15  O   UNL     1       0.379   8.640  21.425  0.00  0.00    +0.000 OA
ATOM     16  C   UNL     1       1.133   9.079  22.560  0.00  0.00    +0.000 C 
ATOM     17  O   UNL     1       0.319   9.919  23.434  0.00  0.00    +0.000 OA
ATOM     18  H   UNL     1       0.448  12.707  18.872  0.00  0.00    +0.000 HD
ENDROOT
BRANCH   1  23
ATOM     19  C   UNL     1      -5.264  12.825  22.560  0.00  0.00    +0.000 A 
ATOM     20  C   UNL     1      -6.071  12.128  21.664  0.00  0.00    +0.000 A 
ATOM     21  C   UNL     1      -5.849  12.304  20.274  0.00  0.00    +0.000 A 
ATOM     22  C   UNL     1      -4.689  12.962  19.810  0.00  0.00    +0.000 A 
ATOM     23  C   UNL     1      -3.844  13.553  20.765  0.00  0.00    +0.000 A 
ATOM     24  C   UNL     1      -4.356  13.757  22.078  0.00  0.00    +0.000 A 
BRANCH  19  26
ATOM     25  C   UNL     1      -4.081  12.820  24.598  0.00  0.00    +0.000 C 
ATOM     26  O   UNL     1      -5.297  12.490  23.890  0.00  0.00    +0.000 OA
ENDBRANCH  19  26
BRANCH  21  27
ATOM     27  O   UNL     1      -6.719  11.601  19.472  0.00  0.00    +0.000 OA
ATOM     28  C   UNL     1      -7.331  10.465  20.060  0.00  0.00    +0.000 C 
ENDBRANCH  21  27
ENDBRANCH   1  23
TORSDOF 3
ENDMDL
MODEL 6
REMARK VINA RESULT:      -6.3      6.039     11.167
REMARK  Name = 
REMARK  5 active torsions:
REMARK  status: ('A' for Active; 'I' for Inactive)
REMARK    1  A    between atoms: C_1  and  O_2
REMARK    2  A    between atoms: O_2  and  C_3
REMARK    3  A    between atoms: C_5  and  O_6
REMARK    4  A    between atoms: O_6  and  C_7
REMARK    5  A    between atoms: C_9  and  C_10
REMARK                            x       y       z     vdW  Elec       q    Type
REMARK                         _______ _______ _______ _____ _____    ______ ____
ROOT
ATOM      1  C   UNL     1      -0.658  13.497  20.341  0.00  0.00    +0.000 C 
ATOM      2  C   UNL     1      -1.904  13.275  21.182  0.00  0.00    +0.000 A 
ATOM      3  C   UNL     1      -3.280  13.264  21.018  0.00  0.00    +0.000 A 
ATOM      4  C   UNL     1      -3.975  12.859  22.162  0.00  0.00    +0.000 A 
ATOM      5  C   UNL     1      -3.315  12.301  23.243  0.00  0.00    +0.000 A 
ATOM      6  C   UNL     1      -2.004  12.595  23.461  0.00  0.00    +0.000 A 
ATOM      7  C   UNL     1      -1.492  13.426  22.501  0.00  0.00    +0.000 A 
ATOM      8  N   UNL     1      -0.858  14.643  22.796  0.00  0.00    +0.000 N 
ATOM      9  C   UNL     1      -0.475  15.517  21.683  0.00  0.00    +0.000 C 
ATOM     10  C   UNL     1      -1.484  16.402  20.977  0.00  0.00    +0.000 C 
ATOM     11  O   UNL     1      -0.745  16.752  19.785  0.00  0.00    +0.000 OA
ATOM     12  C   UNL     1       0.105  15.700  19.549  0.00  0.00    +0.000 C 
ATOM     13  O   UNL     1       0.872  15.668  18.600  0.00  0.00    +0.000 OA
ATOM     14  N   UNL     1       0.012  14.779  20.573  0.00  0.00    +0.000 N 
ATOM     15  O   UNL     1      -4.155  11.963  24.262  0.00  0.00    +0.000 OA
ATOM     16  C   UNL     1      -5.135  12.966  23.978  0.00  0.00    +0.000 C 
ATOM     17  O   UNL     1      -5.254  13.185  22.539  0.00  0.00    +0.000 OA
ATOM     18  H   UNL     1      -0.190  14.576  23.549  0.00  0.00    +0.000 HD
ENDROOT
BRANCH   1  23
ATOM     19  C   UNL     1      -1.535  11.242  17.839  0.00  0.00    +0.000 A 
ATOM     20  C   UNL     1      -0.701  10.156  18.092  0.00  0.00    +0.000 A 
ATOM     21  C   UNL     1       0.530  10.388  18.759  0.00  0.00    +0.000 A 
ATOM     22  C   UNL     1       0.789  11.632  19.374  0.00  0.00    +0.000 A 
ATOM     23  C   UNL     1      -0.143  12.666  19.182  0.00  0.00    +0.000 A 
ATOM     24  C   UNL     1      -1.094  12.524  18.131  0.00  0.00    +0.000 A 
BRANCH  19  26
ATOM     25  C   UNL     1      -2.948  10.889  15.985  0.00  0.00    +0.000 C 
ATOM     26  O   UNL     1      -2.822  11.013  17.420  0.00  0.00    +0.000 OA
ENDBRANCH  19  26
BRANCH  21  27
ATOM     27  O   UNL     1       1.298   9.259  18.930  0.00  0.00    +0.000 OA
ATOM     28  C   UNL     1       2.053   8.839  17.806  0.00  0.00    +0.000 C 
ENDBRANCH  21  27
ENDBRANCH   1  23
TORSDOF 3
ENDMDL
MODEL 7
REMARK VINA RESULT:      -6.3      8.600     10.826
REMARK  Name = 
REMARK  5 active torsions:
REMARK  status: ('A' for Active; 'I' for Inactive)
REMARK    1  A    between atoms: C_1  and  O_2
REMARK    2  A    between atoms: O_2  and  C_3
REMARK    3  A    between atoms: C_5  and  O_6
REMARK    4  A    between atoms: O_6  and  C_7
REMARK    5  A    between atoms: C_9  and  C_10
REMARK                            x       y       z     vdW  Elec       q    Type
REMARK                         _______ _______ _______ _____ _____    ______ ____
ROOT
ATOM      1  C   UNL     1       7.433  15.102  19.897  0.00  0.00    +0.000 C 
ATOM      2  C   UNL     1       8.731  14.317  19.813  0.00  0.00    +0.000 A 
ATOM      3  C   UNL     1       9.992  14.330  20.387  0.00  0.00    +0.000 A 
ATOM      4  C   UNL     1      10.788  13.245  20.009  0.00  0.00    +0.000 A 
ATOM      5  C   UNL     1      10.253  12.165  19.328  0.00  0.00    +0.000 A 
ATOM      6  C   UNL     1       9.137  12.330  18.568  0.00  0.00    +0.000 A 
ATOM      7  C   UNL     1       8.660  13.612  18.617  0.00  0.00    +0.000 A 
ATOM      8  N   UNL     1       8.433  14.393  17.472  0.00  0.00    +0.000 N 
ATOM      9  C   UNL     1       8.056  15.798  17.651  0.00  0.00    +0.000 C 
ATOM     10  C   UNL     1       9.083  16.867  17.975  0.00  0.00    +0.000 C 
ATOM     11  O   UNL     1       8.221  17.943  18.407  0.00  0.00    +0.000 OA
ATOM     12  C   UNL     1       7.102  17.341  18.928  0.00  0.00    +0.000 C 
ATOM     13  O   UNL     1       6.168  17.973  19.398  0.00  0.00    +0.000 OA
ATOM     14  N   UNL     1       7.174  15.976  18.749  0.00  0.00    +0.000 N 
ATOM     15  O   UNL     1      11.177  11.201  19.050  0.00  0.00    +0.000 OA
ATOM     16  C   UNL     1      12.296  12.091  18.984  0.00  0.00    +0.000 C 
ATOM     17  O   UNL     1      12.158  13.174  19.953  0.00  0.00    +0.000 OA
ATOM     18  H   UNL     1       7.945  13.899  16.741  0.00  0.00    +0.000 HD
ENDROOT
BRANCH   1  23
ATOM     19  C   UNL     1       6.600  13.864  23.042  0.00  0.00    +0.000 A 
ATOM     20  C   UNL     1       5.261  13.513  22.893  0.00  0.00    +0.000 A 
ATOM     21  C   UNL     1       4.487  14.189  21.914  0.00  0.00    +0.000 A 
ATOM     22  C   UNL     1       5.110  15.008  20.948  0.00  0.00    +0.000 A 
ATOM     23  C   UNL     1       6.490  15.241  21.076  0.00  0.00    +0.000 A 
ATOM     24  C   UNL     1       7.108  14.937  22.324  0.00  0.00    +0.000 A 
BRANCH  19  26
ATOM     25  C   UNL     1       8.205  12.139  23.021  0.00  0.00    +0.000 C 
ATOM     26  O   UNL     1       7.420  13.069  23.802  0.00  0.00    +0.000 OA
ENDBRANCH  19  26
BRANCH  21  27
ATOM     27  O   UNL     1       3.169  13.795  21.870  0.00  0.00    +0.000 OA
ATOM     28  C   UNL     1       2.614  13.614  20.578  0.00  0.00    +0.000 C 
ENDBRANCH  21  27
ENDBRANCH   1  23
TORSDOF 3
ENDMDL
MODEL 8
REMARK VINA RESULT:      -6.3      7.695     12.119
REMARK  Name = 
REMARK  5 active torsions:
REMARK  status: ('A' for Active; 'I' for Inactive)
REMARK    1  A    between atoms: C_1  and  O_2
REMARK    2  A    between atoms: O_2  and  C_3
REMARK    3  A    between atoms: C_5  and  O_6
REMARK    4  A    between atoms: O_6  and  C_7
REMARK    5  A    between atoms: C_9  and  C_10
REMARK                            x       y       z     vdW  Elec       q    Type
REMARK                         _______ _______ _______ _____ _____    ______ ____
ROOT
ATOM      1  C   UNL     1      -3.903  12.990  22.381  0.00  0.00    +0.000 C 
ATOM      2  C   UNL     1      -4.802  13.101  21.162  0.00  0.00    +0.000 A 
ATOM      3  C   UNL     1      -4.983  13.944  20.077  0.00  0.00    +0.000 A 
ATOM      4  C   UNL     1      -5.922  13.472  19.155  0.00  0.00    +0.000 A 
ATOM      5  C   UNL     1      -6.415  12.180  19.228  0.00  0.00    +0.000 A 
ATOM      6  C   UNL     1      -6.430  11.529  20.423  0.00  0.00    +0.000 A 
ATOM      7  C   UNL     1      -5.893  12.283  21.432  0.00  0.00    +0.000 A 
ATOM      8  N   UNL     1      -6.575  12.566  22.626  0.00  0.00    +0.000 N 
ATOM      9  C   UNL     1      -5.959  13.499  23.575  0.00  0.00    +0.000 C 
ATOM     10  C   UNL     1      -6.023  15.001  23.375  0.00  0.00    +0.000 C 
ATOM     11  O   UNL     1      -5.007  15.437  24.305  0.00  0.00    +0.000 OA
ATOM     12  C   UNL     1      -4.104  14.406  24.385  0.00  0.00    +0.000 C 
ATOM     13  O   UNL     1      -3.104  14.454  25.085  0.00  0.00    +0.000 OA
ATOM     14  N   UNL     1      -4.553  13.329  23.650  0.00  0.00    +0.000 N 
ATOM     15  O   UNL     1      -7.314  11.897  18.243  0.00  0.00    +0.000 OA
ATOM     16  C   UNL     1      -7.784  13.240  18.089  0.00  0.00    +0.000 C 
ATOM     17  O   UNL     1      -6.699  14.197  18.286  0.00  0.00    +0.000 OA
ATOM     18  H   UNL     1      -7.022  11.759  23.034  0.00  0.00    +0.000 HD
ENDROOT
BRANCH   1  23
ATOM     19  C   UNL     1      -1.061  12.303  20.492  0.00  0.00    +0.000 A 
ATOM     20  C   UNL     1      -0.557  11.153  21.095  0.00  0.00    +0.000 A 
ATOM     21  C   UNL     1      -0.857  10.917  22.462  0.00  0.00    +0.000 A 
ATOM     22  C   UNL     1      -1.840  11.684  23.123  0.00  0.00    +0.000 A 
ATOM     23  C   UNL     1      -2.403  12.769  22.429  0.00  0.00    +0.000 A 
ATOM     24  C   UNL     1      -1.732  13.240  21.264  0.00  0.00    +0.000 A 
BRANCH  19  26
ATOM     25  C   UNL     1      -2.077  11.777  18.432  0.00  0.00    +0.000 C 
ATOM     26  O   UNL     1      -0.991  12.428  19.127  0.00  0.00    +0.000 OA
ENDBRANCH  19  26
BRANCH  21  27
ATOM     27  O   UNL     1      -0.285   9.775  22.974  0.00  0.00    +0.000 OA
ATOM     28  C   UNL     1       0.418   8.959  22.051  0.00  0.00    +0.000 C 
ENDBRANCH  21  27
ENDBRANCH   1  23
TORSDOF 3
ENDMDL
MODEL 9
REMARK VINA RESULT:      -6.2      8.607     10.483
REMARK  Name = 
REMARK  5 active torsions:
REMARK  status: ('A' for Active; 'I' for Inactive)
REMARK    1  A    between atoms: C_1  and  O_2
REMARK    2  A    between atoms: O_2  and  C_3
REMARK    3  A    between atoms: C_5  and  O_6
REMARK    4  A    between atoms: O_6  and  C_7
REMARK    5  A    between atoms: C_9  and  C_10
REMARK                            x       y       z     vdW  Elec       q    Type
REMARK                         _______ _______ _______ _____ _____    ______ ____
ROOT
ATOM      1  C   UNL     1      -3.371  12.726  20.135  0.00  0.00    +0.000 C 
ATOM      2  C   UNL     1      -1.854  12.793  20.084  0.00  0.00    +0.000 A 
ATOM      3  C   UNL     1      -0.770  11.944  20.245  0.00  0.00    +0.000 A 
ATOM      4  C   UNL     1       0.457  12.544  19.949  0.00  0.00    +0.000 A 
ATOM      5  C   UNL     1       0.521  13.779  19.327  0.00  0.00    +0.000 A 
ATOM      6  C   UNL     1      -0.512  14.655  19.456  0.00  0.00    +0.000 A 
ATOM      7  C   UNL     1      -1.539  14.142  20.201  0.00  0.00    +0.000 A 
ATOM      8  N   UNL     1      -2.065  14.785  21.333  0.00  0.00    +0.000 N 
ATOM      9  C   UNL     1      -3.067  14.076  22.135  0.00  0.00    +0.000 C 
ATOM     10  C   UNL     1      -2.678  13.000  23.130  0.00  0.00    +0.000 C 
ATOM     11  O   UNL     1      -3.962  12.378  23.366  0.00  0.00    +0.000 OA
ATOM     12  C   UNL     1      -4.682  12.558  22.212  0.00  0.00    +0.000 C 
ATOM     13  O   UNL     1      -5.821  12.139  22.069  0.00  0.00    +0.000 OA
ATOM     14  N   UNL     1      -3.968  13.337  21.325  0.00  0.00    +0.000 N 
ATOM     15  O   UNL     1       1.800  14.201  19.113  0.00  0.00    +0.000 OA
ATOM     16  C   UNL     1       2.368  13.506  20.228  0.00  0.00    +0.000 C 
ATOM     17  O   UNL     1       1.700  12.226  20.439  0.00  0.00    +0.000 OA
ATOM     18  H   UNL     1      -2.234  15.769  21.192  0.00  0.00    +0.000 HD
ENDROOT
BRANCH   1  23
ATOM     19  C   UNL     1      -3.754  11.283  16.990  0.00  0.00    +0.000 A 
ATOM     20  C   UNL     1      -4.897  11.908  16.499  0.00  0.00    +0.000 A 
ATOM     21  C   UNL     1      -5.848  12.408  17.425  0.00  0.00    +0.000 A 
ATOM     22  C   UNL     1      -5.532  12.501  18.798  0.00  0.00    +0.000 A 
ATOM     23  C   UNL     1      -4.311  11.955  19.228  0.00  0.00    +0.000 A 
ATOM     24  C   UNL     1      -3.632  11.058  18.354  0.00  0.00    +0.000 A 
BRANCH  19  26
ATOM     25  C   UNL     1      -3.139  10.387  14.899  0.00  0.00    +0.000 C 
ATOM     26  O   UNL     1      -2.718  11.013  16.132  0.00  0.00    +0.000 OA
ENDBRANCH  19  26
BRANCH  21  27
ATOM     27  O   UNL     1      -6.958  12.975  16.841  0.00  0.00    +0.000 OA
ATOM     28  C   UNL     1      -7.828  13.684  17.708  0.00  0.00    +0.000 C 
ENDBRANCH  21  27
ENDBRANCH   1  23
TORSDOF 3
ENDMDL
