MODEL 1
REMARK VINA RESULT:      -7.8      0.000      0.000
REMARK  Name = 
REMARK  6 active torsions:
REMARK  status: ('A' for Active; 'I' for Inactive)
REMARK    1  A    between atoms: C_2  and  C_3
REMARK    2  A    between atoms: C_4  and  C_5
REMARK    3  A    between atoms: N_13  and  C_14
REMARK    4  A    between atoms: C_17  and  S_18
REMARK    5  A    between atoms: S_18  and  N_19
REMARK    6  A    between atoms: C_24  and  N_25
REMARK                            x       y       z     vdW  Elec       q    Type
REMARK                         _______ _______ _______ _____ _____    ______ ____
ROOT
ATOM      1  C   UNL     1       3.534   4.763  19.187  0.00  0.00    +0.000 A 
ATOM      2  C   UNL     1       3.812   5.521  18.014  0.00  0.00    +0.000 A 
ATOM      3  C   UNL     1       3.159   6.728  18.179  0.00  0.00    +0.000 A 
ATOM      4  N   UNL     1       2.556   6.771  19.426  0.00  0.00    +0.000 N 
ATOM      5  C   UNL     1       2.765   5.536  20.043  0.00  0.00    +0.000 A 
ENDROOT
BRANCH   2   6
ATOM      6  C   UNL     1       4.623   5.203  16.838  0.00  0.00    +0.000 A 
ATOM      7  C   UNL     1       4.932   3.875  16.507  0.00  0.00    +0.000 A 
ATOM      8  C   UNL     1       5.691   3.579  15.368  0.00  0.00    +0.000 A 
ATOM      9  C   UNL     1       6.155   4.611  14.556  0.00  0.00    +0.000 A 
ATOM     10 CL   UNL     1       7.084   4.250  13.155  0.00  0.00    +0.000 Cl
ATOM     11  C   UNL     1       5.862   5.934  14.871  0.00  0.00    +0.000 A 
ATOM     12  C   UNL     1       5.094   6.227  16.002  0.00  0.00    +0.000 A 
ENDBRANCH   2   6
BRANCH   4  13
ATOM     13  C   UNL     1       1.868   7.909  19.941  0.00  0.00    +0.000 A 
ATOM     14  C   UNL     1       1.479   8.941  19.072  0.00  0.00    +0.000 A 
ATOM     15  C   UNL     1       0.802  10.056  19.568  0.00  0.00    +0.000 A 
ATOM     16  C   UNL     1       0.524  10.145  20.935  0.00  0.00    +0.000 A 
ATOM     17  C   UNL     1       0.933   9.139  21.812  0.00  0.00    +0.000 A 
ATOM     18  C   UNL     1       1.603   8.020  21.313  0.00  0.00    +0.000 A 
BRANCH  16  19
ATOM     19  S   UNL     1      -0.297  11.577  21.566  0.00  0.00    +0.000 S 
ATOM     20  O   UNL     1       0.655  12.657  21.682  0.00  0.00    +0.000 OA
ATOM     21  O   UNL     1      -1.566  11.729  20.896  0.00  0.00    +0.000 OA
BRANCH  19  22
ATOM     22  N   UNL     1      -0.652  11.100  23.134  0.00  0.00    +0.000 NA
ATOM     23  H   UNL     1      -0.825  11.920  23.715  0.00  0.00    +0.000 HD
ATOM     24  H   UNL     1      -1.422  10.431  23.127  0.00  0.00    +0.000 HD
ENDBRANCH  19  22
ENDBRANCH  16  19
ENDBRANCH   4  13
BRANCH   5  25
ATOM     25  N   UNL     1       2.222   5.194  21.242  0.00  0.00    +0.000 N 
ATOM     26  H   UNL     1       1.228   5.331  21.422  0.00  0.00    +0.000 HD
ATOM     27  H   UNL     1       2.592   4.402  21.768  0.00  0.00    +0.000 HD
ENDBRANCH   5  25
BRANCH   1  29
ATOM     28  N   UNL     1       4.236   2.319  19.687  0.00  0.00    +0.000 NA
ATOM     29  C   UNL     1       3.924   3.417  19.465  0.00  0.00    +0.000 C 
ENDBRANCH   1  29
TORSDOF 6
ENDMDL
MODEL 2
REMARK VINA RESULT:      -7.7      0.716      1.308
REMARK  Name = 
REMARK  6 active torsions:
REMARK  status: ('A' for Active; 'I' for Inactive)
REMARK    1  A    between atoms: C_2  and  C_3
REMARK    2  A    between atoms: C_4  and  C_5
REMARK    3  A    between atoms: N_13  and  C_14
REMARK    4  A    between atoms: C_17  and  S_18
REMARK    5  A    between atoms: S_18  and  N_19
REMARK    6  A    between atoms: C_24  and  N_25
REMARK                            x       y       z     vdW  Elec       q    Type
REMARK                         _______ _______ _______ _____ _____    ______ ____
ROOT
ATOM      1  C   UNL     1       3.524   4.778  19.215  0.00  0.00    +0.000 A 
ATOM      2  C   UNL     1       3.766   5.546  18.041  0.00  0.00    +0.000 A 
ATOM      3  C   UNL     1       3.091   6.739  18.224  0.00  0.00    +0.000 A 
ATOM      4  N   UNL     1       2.509   6.763  19.481  0.00  0.00    +0.000 N 
ATOM      5  C   UNL     1       2.754   5.530  20.088  0.00  0.00    +0.000 A 
ENDROOT
BRANCH   2   6
ATOM      6  C   UNL     1       4.563   5.252  16.851  0.00  0.00    +0.000 A 
ATOM      7  C   UNL     1       5.098   6.282  16.061  0.00  0.00    +0.000 A 
ATOM      8  C   UNL     1       5.877   5.991  14.935  0.00  0.00    +0.000 A 
ATOM      9  C   UNL     1       6.119   4.665  14.583  0.00  0.00    +0.000 A 
ATOM     10 CL   UNL     1       7.078   4.305  13.202  0.00  0.00    +0.000 Cl
ATOM     11  C   UNL     1       5.594   3.631  15.350  0.00  0.00    +0.000 A 
ATOM     12  C   UNL     1       4.827   3.924  16.482  0.00  0.00    +0.000 A 
ENDBRANCH   2   6
BRANCH   4  13
ATOM     13  C   UNL     1       1.806   7.884  20.014  0.00  0.00    +0.000 A 
ATOM     14  C   UNL     1       1.487   8.967  19.180  0.00  0.00    +0.000 A 
ATOM     15  C   UNL     1       0.796  10.066  19.693  0.00  0.00    +0.000 A 
ATOM     16  C   UNL     1       0.435  10.087  21.043  0.00  0.00    +0.000 A 
ATOM     17  C   UNL     1       0.774   9.028  21.888  0.00  0.00    +0.000 A 
ATOM     18  C   UNL     1       1.458   7.926  21.371  0.00  0.00    +0.000 A 
BRANCH  16  19
ATOM     19  S   UNL     1      -0.403  11.498  21.699  0.00  0.00    +0.000 S 
ATOM     20  O   UNL     1      -1.495  11.851  20.823  0.00  0.00    +0.000 OA
ATOM     21  O   UNL     1      -0.571  11.329  23.122  0.00  0.00    +0.000 OA
BRANCH  19  22
ATOM     22  N   UNL     1       0.754  12.697  21.506  0.00  0.00    +0.000 NA
ATOM     23  H   UNL     1       1.448  12.631  22.250  0.00  0.00    +0.000 HD
ATOM     24  H   UNL     1       1.150  12.648  20.567  0.00  0.00    +0.000 HD
ENDBRANCH  19  22
ENDBRANCH  16  19
ENDBRANCH   4  13
BRANCH   5  25
ATOM     25  N   UNL     1       2.239   5.171  21.295  0.00  0.00    +0.000 N 
ATOM     26  H   UNL     1       1.816   5.866  21.908  0.00  0.00    +0.000 HD
ATOM     27  H   UNL     1       1.813   4.252  21.420  0.00  0.00    +0.000 HD
ENDBRANCH   5  25
BRANCH   1  29
ATOM     28  N   UNL     1       4.284   2.346  19.693  0.00  0.00    +0.000 NA
ATOM     29  C   UNL     1       3.947   3.438  19.479  0.00  0.00    +0.000 C 
ENDBRANCH   1  29
TORSDOF 6
ENDMDL
MODEL 3
REMARK VINA RESULT:      -7.7      0.712      1.318
REMARK  Name = 
REMARK  6 active torsions:
REMARK  status: ('A' for Active; 'I' for Inactive)
REMARK    1  A    between atoms: C_2  and  C_3
REMARK    2  A    between atoms: C_4  and  C_5
REMARK    3  A    between atoms: N_13  and  C_14
REMARK    4  A    between atoms: C_17  and  S_18
REMARK    5  A    between atoms: S_18  and  N_19
REMARK    6  A    between atoms: C_24  and  N_25
REMARK                            x       y       z     vdW  Elec       q    Type
REMARK                         _______ _______ _______ _____ _____    ______ ____
ROOT
ATOM      1  C   UNL     1       3.531   4.761  19.196  0.00  0.00    +0.000 A 
ATOM      2  C   UNL     1       3.792   5.525  18.023  0.00  0.00    +0.000 A 
ATOM      3  C   UNL     1       3.132   6.726  18.198  0.00  0.00    +0.000 A 
ATOM      4  N   UNL     1       2.541   6.761  19.451  0.00  0.00    +0.000 N 
ATOM      5  C   UNL     1       2.764   5.525  20.061  0.00  0.00    +0.000 A 
ENDROOT
BRANCH   2   6
ATOM      6  C   UNL     1       4.594   5.217  16.839  0.00  0.00    +0.000 A 
ATOM      7  C   UNL     1       4.842   3.890  16.455  0.00  0.00    +0.000 A 
ATOM      8  C   UNL     1       5.594   3.605  15.308  0.00  0.00    +0.000 A 
ATOM      9  C   UNL     1       6.111   4.647  14.541  0.00  0.00    +0.000 A 
ATOM     10 CL   UNL     1       7.031   4.300  13.130  0.00  0.00    +0.000 Cl
ATOM     11  C   UNL     1       5.879   5.968  14.909  0.00  0.00    +0.000 A 
ATOM     12  C   UNL     1       5.118   6.251  16.047  0.00  0.00    +0.000 A 
ENDBRANCH   2   6
BRANCH   4  13
ATOM     13  C   UNL     1       1.848   7.892  19.977  0.00  0.00    +0.000 A 
ATOM     14  C   UNL     1       1.552   7.950  21.348  0.00  0.00    +0.000 A 
ATOM     15  C   UNL     1       0.878   9.055  21.872  0.00  0.00    +0.000 A 
ATOM     16  C   UNL     1       0.489  10.094  21.022  0.00  0.00    +0.000 A 
ATOM     17  C   UNL     1       0.752  10.031  19.652  0.00  0.00    +0.000 A 
ATOM     18  C   UNL     1       1.434   8.930  19.131  0.00  0.00    +0.000 A 
BRANCH  16  19
ATOM     19  S   UNL     1      -0.401  11.472  21.680  0.00  0.00    +0.000 S 
ATOM     20  O   UNL     1      -1.531  11.759  20.828  0.00  0.00    +0.000 OA
ATOM     21  O   UNL     1      -0.526  11.315  23.110  0.00  0.00    +0.000 OA
BRANCH  19  22
ATOM     22  N   UNL     1       0.690  12.724  21.443  0.00  0.00    +0.000 NA
ATOM     23  H   UNL     1       1.099  12.654  20.511  0.00  0.00    +0.000 HD
ATOM     24  H   UNL     1       0.235  13.619  21.627  0.00  0.00    +0.000 HD
ENDBRANCH  19  22
ENDBRANCH  16  19
ENDBRANCH   4  13
BRANCH   5  25
ATOM     25  N   UNL     1       2.234   5.175  21.265  0.00  0.00    +0.000 N 
ATOM     26  H   UNL     1       2.435   5.722  22.101  0.00  0.00    +0.000 HD
ATOM     27  H   UNL     1       1.314   4.739  21.315  0.00  0.00    +0.000 HD
ENDBRANCH   5  25
BRANCH   1  29
ATOM     28  N   UNL     1       4.263   2.321  19.677  0.00  0.00    +0.000 NA
ATOM     29  C   UNL     1       3.934   3.416  19.465  0.00  0.00    +0.000 C 
ENDBRANCH   1  29
TORSDOF 6
ENDMDL
MODEL 4
REMARK VINA RESULT:      -7.7      0.096      1.371
REMARK  Name = 
REMARK  6 active torsions:
REMARK  status: ('A' for Active; 'I' for Inactive)
REMARK    1  A    between atoms: C_2  and  C_3
REMARK    2  A    between atoms: C_4  and  C_5
REMARK    3  A    between atoms: N_13  and  C_14
REMARK    4  A    between atoms: C_17  and  S_18
REMARK    5  A    between atoms: S_18  and  N_19
REMARK    6  A    between atoms: C_24  and  N_25
REMARK                            x       y       z     vdW  Elec       q    Type
REMARK                         _______ _______ _______ _____ _____    ______ ____
ROOT
ATOM      1  C   UNL     1       3.465   4.838  19.169  0.00  0.00    +0.000 A 
ATOM      2  C   UNL     1       3.748   5.593  17.995  0.00  0.00    +0.000 A 
ATOM      3  C   UNL     1       3.111   6.808  18.164  0.00  0.00    +0.000 A 
ATOM      4  N   UNL     1       2.513   6.857  19.413  0.00  0.00    +0.000 N 
ATOM      5  C   UNL     1       2.708   5.619  20.028  0.00  0.00    +0.000 A 
ENDROOT
BRANCH   2   6
ATOM      6  C   UNL     1       4.551   5.267  16.817  0.00  0.00    +0.000 A 
ATOM      7  C   UNL     1       5.104   6.276  16.013  0.00  0.00    +0.000 A 
ATOM      8  C   UNL     1       5.888   5.956  14.899  0.00  0.00    +0.000 A 
ATOM      9  C   UNL     1       6.118   4.621  14.573  0.00  0.00    +0.000 A 
ATOM     10 CL   UNL     1       7.083   4.224  13.207  0.00  0.00    +0.000 Cl
ATOM     11  C   UNL     1       5.574   3.607  15.355  0.00  0.00    +0.000 A 
ATOM     12  C   UNL     1       4.802   3.929  16.475  0.00  0.00    +0.000 A 
ENDBRANCH   2   6
BRANCH   4  13
ATOM     13  C   UNL     1       1.840   8.002  19.933  0.00  0.00    +0.000 A 
ATOM     14  C   UNL     1       1.556   8.080  21.306  0.00  0.00    +0.000 A 
ATOM     15  C   UNL     1       0.901   9.199  21.823  0.00  0.00    +0.000 A 
ATOM     16  C   UNL     1       0.519  10.234  20.964  0.00  0.00    +0.000 A 
ATOM     17  C   UNL     1       0.770  10.153  19.593  0.00  0.00    +0.000 A 
ATOM     18  C   UNL     1       1.433   9.037  19.079  0.00  0.00    +0.000 A 
BRANCH  16  19
ATOM     19  S   UNL     1      -0.347  11.630  21.615  0.00  0.00    +0.000 S 
ATOM     20  O   UNL     1       0.570  12.738  21.750  0.00  0.00    +0.000 OA
ATOM     21  O   UNL     1      -1.620  11.752  20.946  0.00  0.00    +0.000 OA
BRANCH  19  22
ATOM     22  N   UNL     1      -0.689  11.118  23.176  0.00  0.00    +0.000 NA
ATOM     23  H   UNL     1      -1.606  10.672  23.201  0.00  0.00    +0.000 HD
ATOM     24  H   UNL     1       0.067  10.524  23.519  0.00  0.00    +0.000 HD
ENDBRANCH  19  22
ENDBRANCH  16  19
ENDBRANCH   4  13
BRANCH   5  25
ATOM     25  N   UNL     1       2.166   5.282  21.229  0.00  0.00    +0.000 N 
ATOM     26  H   UNL     1       1.690   5.980  21.800  0.00  0.00    +0.000 HD
ATOM     27  H   UNL     1       1.776   4.351  21.375  0.00  0.00    +0.000 HD
ENDBRANCH   5  25
BRANCH   1  29
ATOM     28  N   UNL     1       4.141   2.384  19.661  0.00  0.00    +0.000 NA
ATOM     29  C   UNL     1       3.840   3.486  19.444  0.00  0.00    +0.000 C 
ENDBRANCH   1  29
TORSDOF 6
ENDMDL
MODEL 5
REMARK VINA RESULT:      -7.2      5.801      9.323
REMARK  Name = 
REMARK  6 active torsions:
REMARK  status: ('A' for Active; 'I' for Inactive)
REMARK    1  A    between atoms: C_2  and  C_3
REMARK    2  A    between atoms: C_4  and  C_5
REMARK    3  A    between atoms: N_13  and  C_14
REMARK    4  A    between atoms: C_17  and  S_18
REMARK    5  A    between atoms: S_18  and  N_19
REMARK    6  A    between atoms: C_24  and  N_25
REMARK                            x       y       z     vdW  Elec       q    Type
REMARK                         _______ _______ _______ _____ _____    ______ ____
ROOT
ATOM      1  C   UNL     1      -0.359  12.333  18.725  0.00  0.00    +0.000 A 
ATOM      2  C   UNL     1      -1.479  11.466  18.577  0.00  0.00    +0.000 A 
ATOM      3  C   UNL     1      -0.966  10.182  18.571  0.00  0.00    +0.000 A 
ATOM      4  N   UNL     1       0.403  10.221  18.779  0.00  0.00    +0.000 N 
ATOM      5  C   UNL     1       0.786  11.562  18.846  0.00  0.00    +0.000 A 
ENDROOT
BRANCH   2   6
ATOM      6  C   UNL     1      -2.909  11.756  18.475  0.00  0.00    +0.000 A 
ATOM      7  C   UNL     1      -3.622  11.486  17.296  0.00  0.00    +0.000 A 
ATOM      8  C   UNL     1      -4.995  11.748  17.213  0.00  0.00    +0.000 A 
ATOM      9  C   UNL     1      -5.664  12.292  18.307  0.00  0.00    +0.000 A 
ATOM     10 CL   UNL     1      -7.351  12.612  18.209  0.00  0.00    +0.000 Cl
ATOM     11  C   UNL     1      -4.974  12.571  19.481  0.00  0.00    +0.000 A 
ATOM     12  C   UNL     1      -3.605  12.297  19.566  0.00  0.00    +0.000 A 
ENDBRANCH   2   6
BRANCH   4  13
ATOM     13  C   UNL     1       1.225   9.062  18.907  0.00  0.00    +0.000 A 
ATOM     14  C   UNL     1       1.936   8.586  17.793  0.00  0.00    +0.000 A 
ATOM     15  C   UNL     1       2.745   7.455  17.911  0.00  0.00    +0.000 A 
ATOM     16  C   UNL     1       2.834   6.793  19.139  0.00  0.00    +0.000 A 
ATOM     17  C   UNL     1       2.108   7.241  20.244  0.00  0.00    +0.000 A 
ATOM     18  C   UNL     1       1.306   8.377  20.128  0.00  0.00    +0.000 A 
BRANCH  16  19
ATOM     19  S   UNL     1       3.827   5.337  19.274  0.00  0.00    +0.000 S 
ATOM     20  O   UNL     1       5.215   5.718  19.390  0.00  0.00    +0.000 OA
ATOM     21  O   UNL     1       3.194   4.416  20.187  0.00  0.00    +0.000 OA
BRANCH  19  22
ATOM     22  N   UNL     1       3.655   4.669  17.745  0.00  0.00    +0.000 NA
ATOM     23  H   UNL     1       4.381   3.970  17.589  0.00  0.00    +0.000 HD
ATOM     24  H   UNL     1       2.707   4.310  17.628  0.00  0.00    +0.000 HD
ENDBRANCH  19  22
ENDBRANCH  16  19
ENDBRANCH   4  13
BRANCH   5  25
ATOM     25  N   UNL     1       2.080  11.970  18.944  0.00  0.00    +0.000 N 
ATOM     26  H   UNL     1       2.831  11.431  18.513  0.00  0.00    +0.000 HD
ATOM     27  H   UNL     1       2.306  12.965  18.977  0.00  0.00    +0.000 HD
ENDBRANCH   5  25
BRANCH   1  29
ATOM     28  N   UNL     1      -0.356  14.925  18.713  0.00  0.00    +0.000 NA
ATOM     29  C   UNL     1      -0.360  13.762  18.715  0.00  0.00    +0.000 C 
ENDBRANCH   1  29
TORSDOF 6
ENDMDL
MODEL 6
REMARK VINA RESULT:      -7.1      2.064      2.686
REMARK  Name = 
REMARK  6 active torsions:
REMARK  status: ('A' for Active; 'I' for Inactive)
REMARK    1  A    between atoms: C_2  and  C_3
REMARK    2  A    between atoms: C_4  and  C_5
REMARK    3  A    between atoms: N_13  and  C_14
REMARK    4  A    between atoms: C_17  and  S_18
REMARK    5  A    between atoms: S_18  and  N_19
REMARK    6  A    between atoms: C_24  and  N_25
REMARK                            x       y       z     vdW  Elec       q    Type
REMARK                         _______ _______ _______ _____ _____    ______ ____
ROOT
ATOM      1  C   UNL     1       2.071   6.644  20.012  0.00  0.00    +0.000 A 
ATOM      2  C   UNL     1       2.627   6.983  18.746  0.00  0.00    +0.000 A 
ATOM      3  C   UNL     1       2.206   8.272  18.481  0.00  0.00    +0.000 A 
ATOM      4  N   UNL     1       1.481   8.762  19.555  0.00  0.00    +0.000 N 
ATOM      5  C   UNL     1       1.372   7.737  20.497  0.00  0.00    +0.000 A 
ENDROOT
BRANCH   2   6
ATOM      6  C   UNL     1       3.493   6.223  17.845  0.00  0.00    +0.000 A 
ATOM      7  C   UNL     1       3.330   4.838  17.677  0.00  0.00    +0.000 A 
ATOM      8  C   UNL     1       4.149   4.122  16.797  0.00  0.00    +0.000 A 
ATOM      9  C   UNL     1       5.146   4.784  16.083  0.00  0.00    +0.000 A 
ATOM     10 CL   UNL     1       6.152   3.907  14.999  0.00  0.00    +0.000 Cl
ATOM     11  C   UNL     1       5.326   6.154  16.240  0.00  0.00    +0.000 A 
ATOM     12  C   UNL     1       4.498   6.870  17.110  0.00  0.00    +0.000 A 
ENDBRANCH   2   6
BRANCH   4  13
ATOM     13  C   UNL     1       0.970  10.091  19.636  0.00  0.00    +0.000 A 
ATOM     14  C   UNL     1       0.068  10.551  18.663  0.00  0.00    +0.000 A 
ATOM     15  C   UNL     1      -0.439  11.849  18.737  0.00  0.00    +0.000 A 
ATOM     16  C   UNL     1      -0.034  12.692  19.776  0.00  0.00    +0.000 A 
ATOM     17  C   UNL     1       0.886  12.254  20.731  0.00  0.00    +0.000 A 
ATOM     18  C   UNL     1       1.386  10.953  20.661  0.00  0.00    +0.000 A 
BRANCH  16  19
ATOM     19  S   UNL     1      -0.645  14.349  19.843  0.00  0.00    +0.000 S 
ATOM     20  O   UNL     1      -0.292  14.934  21.115  0.00  0.00    +0.000 OA
ATOM     21  O   UNL     1      -0.377  15.003  18.585  0.00  0.00    +0.000 OA
BRANCH  19  22
ATOM     22  N   UNL     1      -2.303  14.096  19.892  0.00  0.00    +0.000 NA
ATOM     23  H   UNL     1      -2.595  13.558  19.076  0.00  0.00    +0.000 HD
ATOM     24  H   UNL     1      -2.561  13.668  20.782  0.00  0.00    +0.000 HD
ENDBRANCH  19  22
ENDBRANCH  16  19
ENDBRANCH   4  13
BRANCH   5  25
ATOM     25  N   UNL     1       0.635   7.839  21.637  0.00  0.00    +0.000 N 
ATOM     26  H   UNL     1       0.583   8.721  22.146  0.00  0.00    +0.000 HD
ATOM     27  H   UNL     1      -0.217   7.290  21.751  0.00  0.00    +0.000 HD
ENDBRANCH   5  25
BRANCH   1  29
ATOM     28  N   UNL     1       2.235   4.367  21.241  0.00  0.00    +0.000 NA
ATOM     29  C   UNL     1       2.157   5.388  20.691  0.00  0.00    +0.000 C 
ENDBRANCH   1  29
TORSDOF 6
ENDMDL
MODEL 7
REMARK VINA RESULT:      -7.1      5.771      9.759
REMARK  Name = 
REMARK  6 active torsions:
REMARK  status: ('A' for Active; 'I' for Inactive)
REMARK    1  A    between atoms: C_2  and  C_3
REMARK    2  A    between atoms: C_4  and  C_5
REMARK    3  A    between atoms: N_13  and  C_14
REMARK    4  A    between atoms: C_17  and  S_18
REMARK    5  A    between atoms: S_18  and  N_19
REMARK    6  A    between atoms: C_24  and  N_25
REMARK                            x       y       z     vdW  Elec       q    Type
REMARK                         _______ _______ _______ _____ _____    ______ ____
ROOT
ATOM      1  C   UNL     1       0.044  12.454  19.476  0.00  0.00    +0.000 A 
ATOM      2  C   UNL     1      -0.840  11.701  20.299  0.00  0.00    +0.000 A 
ATOM      3  C   UNL     1      -0.423  10.387  20.199  0.00  0.00    +0.000 A 
ATOM      4  N   UNL     1       0.716  10.312  19.413  0.00  0.00    +0.000 N 
ATOM      5  C   UNL     1       0.990  11.596  18.938  0.00  0.00    +0.000 A 
ENDROOT
BRANCH   2   6
ATOM      6  C   UNL     1      -1.963  12.122  21.136  0.00  0.00    +0.000 A 
ATOM      7  C   UNL     1      -3.131  12.655  20.570  0.00  0.00    +0.000 A 
ATOM      8  C   UNL     1      -4.210  13.036  21.377  0.00  0.00    +0.000 A 
ATOM      9  C   UNL     1      -4.124  12.896  22.760  0.00  0.00    +0.000 A 
ATOM     10 CL   UNL     1      -5.448  13.360  23.754  0.00  0.00    +0.000 Cl
ATOM     11  C   UNL     1      -2.973  12.373  23.340  0.00  0.00    +0.000 A 
ATOM     12  C   UNL     1      -1.902  11.981  22.531  0.00  0.00    +0.000 A 
ENDBRANCH   2   6
BRANCH   4  13
ATOM     13  C   UNL     1       1.446   9.110  19.174  0.00  0.00    +0.000 A 
ATOM     14  C   UNL     1       1.578   8.161  20.201  0.00  0.00    +0.000 A 
ATOM     15  C   UNL     1       2.288   6.980  19.975  0.00  0.00    +0.000 A 
ATOM     16  C   UNL     1       2.875   6.755  18.726  0.00  0.00    +0.000 A 
ATOM     17  C   UNL     1       2.776   7.706  17.710  0.00  0.00    +0.000 A 
ATOM     18  C   UNL     1       2.058   8.883  17.934  0.00  0.00    +0.000 A 
BRANCH  16  19
ATOM     19  S   UNL     1       3.808   5.279  18.457  0.00  0.00    +0.000 S 
ATOM     20  O   UNL     1       4.926   5.250  19.370  0.00  0.00    +0.000 OA
ATOM     21  O   UNL     1       2.901   4.166  18.303  0.00  0.00    +0.000 OA
BRANCH  19  22
ATOM     22  N   UNL     1       4.458   5.563  16.936  0.00  0.00    +0.000 NA
ATOM     23  H   UNL     1       5.140   6.319  16.987  0.00  0.00    +0.000 HD
ATOM     24  H   UNL     1       4.834   4.695  16.553  0.00  0.00    +0.000 HD
ENDBRANCH  19  22
ENDBRANCH  16  19
ENDBRANCH   4  13
BRANCH   5  25
ATOM     25  N   UNL     1       1.985  11.874  18.052  0.00  0.00    +0.000 N 
ATOM     26  H   UNL     1       2.052  12.792  17.615  0.00  0.00    +0.000 HD
ATOM     27  H   UNL     1       2.903  11.441  18.156  0.00  0.00    +0.000 HD
ENDBRANCH   5  25
BRANCH   1  29
ATOM     28  N   UNL     1      -0.068  14.993  18.964  0.00  0.00    +0.000 NA
ATOM     29  C   UNL     1      -0.017  13.854  19.189  0.00  0.00    +0.000 C 
ENDBRANCH   1  29
TORSDOF 6
ENDMDL
MODEL 8
REMARK VINA RESULT:      -7.1      5.790      9.705
REMARK  Name = 
REMARK  6 active torsions:
REMARK  status: ('A' for Active; 'I' for Inactive)
REMARK    1  A    between atoms: C_2  and  C_3
REMARK    2  A    between atoms: C_4  and  C_5
REMARK    3  A    between atoms: N_13  and  C_14
REMARK    4  A    between atoms: C_17  and  S_18
REMARK    5  A    between atoms: S_18  and  N_19
REMARK    6  A    between atoms: C_24  and  N_25
REMARK                            x       y       z     vdW  Elec       q    Type
REMARK                         _______ _______ _______ _____ _____    ______ ____
ROOT
ATOM      1  C   UNL     1       0.070  12.458  19.494  0.00  0.00    +0.000 A 
ATOM      2  C   UNL     1      -0.831  11.699  20.294  0.00  0.00    +0.000 A 
ATOM      3  C   UNL     1      -0.423  10.383  20.177  0.00  0.00    +0.000 A 
ATOM      4  N   UNL     1       0.724  10.312  19.403  0.00  0.00    +0.000 N 
ATOM      5  C   UNL     1       1.015  11.601  18.953  0.00  0.00    +0.000 A 
ENDROOT
BRANCH   2   6
ATOM      6  C   UNL     1      -1.959  12.116  21.125  0.00  0.00    +0.000 A 
ATOM      7  C   UNL     1      -3.136  12.624  20.550  0.00  0.00    +0.000 A 
ATOM      8  C   UNL     1      -4.219  13.001  21.352  0.00  0.00    +0.000 A 
ATOM      9  C   UNL     1      -4.132  12.883  22.737  0.00  0.00    +0.000 A 
ATOM     10 CL   UNL     1      -5.463  13.343  23.724  0.00  0.00    +0.000 Cl
ATOM     11  C   UNL     1      -2.973  12.387  23.325  0.00  0.00    +0.000 A 
ATOM     12  C   UNL     1      -1.897  11.999  22.522  0.00  0.00    +0.000 A 
ENDBRANCH   2   6
BRANCH   4  13
ATOM     13  C   UNL     1       1.446   9.107  19.154  0.00  0.00    +0.000 A 
ATOM     14  C   UNL     1       1.983   8.869  17.879  0.00  0.00    +0.000 A 
ATOM     15  C   UNL     1       2.694   7.694  17.627  0.00  0.00    +0.000 A 
ATOM     16  C   UNL     1       2.857   6.753  18.648  0.00  0.00    +0.000 A 
ATOM     17  C   UNL     1       2.301   6.966  19.910  0.00  0.00    +0.000 A 
ATOM     18  C   UNL     1       1.598   8.145  20.163  0.00  0.00    +0.000 A 
BRANCH  16  19
ATOM     19  S   UNL     1       3.721   5.248  18.314  0.00  0.00    +0.000 S 
ATOM     20  O   UNL     1       2.948   4.135  18.813  0.00  0.00    +0.000 OA
ATOM     21  O   UNL     1       4.245   5.290  16.970  0.00  0.00    +0.000 OA
BRANCH  19  22
ATOM     22  N   UNL     1       5.046   5.386  19.334  0.00  0.00    +0.000 NA
ATOM     23  H   UNL     1       5.167   6.359  19.614  0.00  0.00    +0.000 HD
ATOM     24  H   UNL     1       4.948   4.741  20.119  0.00  0.00    +0.000 HD
ENDBRANCH  19  22
ENDBRANCH  16  19
ENDBRANCH   4  13
BRANCH   5  25
ATOM     25  N   UNL     1       2.022  11.884  18.083  0.00  0.00    +0.000 N 
ATOM     26  H   UNL     1       2.874  12.343  18.404  0.00  0.00    +0.000 HD
ATOM     27  H   UNL     1       2.204  11.270  17.289  0.00  0.00    +0.000 HD
ENDBRANCH   5  25
BRANCH   1  29
ATOM     28  N   UNL     1      -0.015  15.006  19.022  0.00  0.00    +0.000 NA
ATOM     29  C   UNL     1       0.024  13.862  19.230  0.00  0.00    +0.000 C 
ENDBRANCH   1  29
TORSDOF 6
ENDMDL
MODEL 9
REMARK VINA RESULT:      -7.0      5.765      9.659
REMARK  Name = 
REMARK  6 active torsions:
REMARK  status: ('A' for Active; 'I' for Inactive)
REMARK    1  A    between atoms: C_2  and  C_3
REMARK    2  A    between atoms: C_4  and  C_5
REMARK    3  A    between atoms: N_13  and  C_14
REMARK    4  A    between atoms: C_17  and  S_18
REMARK    5  A    between atoms: S_18  and  N_19
REMARK    6  A    between atoms: C_24  and  N_25
REMARK                            x       y       z     vdW  Elec       q    Type
REMARK                         _______ _______ _______ _____ _____    ______ ____
ROOT
ATOM      1  C   UNL     1       0.170  12.273  19.434  0.00  0.00    +0.000 A 
ATOM      2  C   UNL     1      -0.733  11.571  20.282  0.00  0.00    +0.000 A 
ATOM      3  C   UNL     1      -0.349  10.244  20.227  0.00  0.00    +0.000 A 
ATOM      4  N   UNL     1       0.788  10.114  19.445  0.00  0.00    +0.000 N 
ATOM      5  C   UNL     1       1.094  11.374  18.927  0.00  0.00    +0.000 A 
ENDROOT
BRANCH   2   6
ATOM      6  C   UNL     1      -1.845  12.048  21.103  0.00  0.00    +0.000 A 
ATOM      7  C   UNL     1      -1.817  11.933  22.501  0.00  0.00    +0.000 A 
ATOM      8  C   UNL     1      -2.876  12.412  23.281  0.00  0.00    +0.000 A 
ATOM      9  C   UNL     1      -3.978  13.002  22.667  0.00  0.00    +0.000 A 
ATOM     10 CL   UNL     1      -5.279  13.595  23.622  0.00  0.00    +0.000 Cl
ATOM     11  C   UNL     1      -4.026  13.121  21.282  0.00  0.00    +0.000 A 
ATOM     12  C   UNL     1      -2.961  12.654  20.506  0.00  0.00    +0.000 A 
ENDBRANCH   2   6
BRANCH   4  13
ATOM     13  C   UNL     1       1.488   8.886  19.250  0.00  0.00    +0.000 A 
ATOM     14  C   UNL     1       1.625   7.986  20.318  0.00  0.00    +0.000 A 
ATOM     15  C   UNL     1       2.305   6.780  20.134  0.00  0.00    +0.000 A 
ATOM     16  C   UNL     1       2.858   6.482  18.885  0.00  0.00    +0.000 A 
ATOM     17  C   UNL     1       2.753   7.385  17.825  0.00  0.00    +0.000 A 
ATOM     18  C   UNL     1       2.065   8.586  18.008  0.00  0.00    +0.000 A 
BRANCH  16  19
ATOM     19  S   UNL     1       3.755   4.975  18.667  0.00  0.00    +0.000 S 
ATOM     20  O   UNL     1       3.300   4.008  19.637  0.00  0.00    +0.000 OA
ATOM     21  O   UNL     1       3.846   4.678  17.257  0.00  0.00    +0.000 OA
BRANCH  19  22
ATOM     22  N   UNL     1       5.297   5.427  19.148  0.00  0.00    +0.000 NA
ATOM     23  H   UNL     1       5.987   4.812  18.718  0.00  0.00    +0.000 HD
ATOM     24  H   UNL     1       5.446   6.417  18.949  0.00  0.00    +0.000 HD
ENDBRANCH  19  22
ENDBRANCH  16  19
ENDBRANCH   4  13
BRANCH   5  25
ATOM     25  N   UNL     1       2.095  11.595  18.033  0.00  0.00    +0.000 N 
ATOM     26  H   UNL     1       2.609  10.816  17.622  0.00  0.00    +0.000 HD
ATOM     27  H   UNL     1       2.050  12.391  17.395  0.00  0.00    +0.000 HD
ENDBRANCH   5  25
BRANCH   1  29
ATOM     28  N   UNL     1       0.126  14.791  18.819  0.00  0.00    +0.000 NA
ATOM     29  C   UNL     1       0.144  13.663  19.099  0.00  0.00    +0.000 C 
ENDBRANCH   1  29
TORSDOF 6
ENDMDL
