MODEL 1
REMARK VINA RESULT:      -7.9      0.000      0.000
REMARK  Name = 
REMARK  8 active torsions:
REMARK  status: ('A' for Active; 'I' for Inactive)
REMARK    1  A    between atoms: C_2  and  C_20
REMARK    2  A    between atoms: N_3  and  C_4
REMARK    3  A    between atoms: C_4  and  C_5
REMARK    4  A    between atoms: C_5  and  C_6
REMARK    5  A    between atoms: C_6  and  O_7
REMARK    6  A    between atoms: O_7  and  C_8
REMARK    7  A    between atoms: C_15  and  O_16
REMARK    8  A    between atoms: C_17  and  O_18
REMARK                            x       y       z     vdW  Elec       q    Type
REMARK                         _______ _______ _______ _____ _____    ______ ____
ROOT
ATOM      1  C   UNL     1       4.388   4.188  18.682  0.00  0.00    +0.000 C 
ATOM      2  C   UNL     1       4.420   2.994  19.707  0.00  0.00    +0.000 C 
ATOM      3  C   UNL     1       3.558   1.872  19.132  0.00  0.00    +0.000 C 
ATOM      4  C   UNL     1       2.537   2.665  18.302  0.00  0.00    +0.000 C 
ATOM      5  C   UNL     1       3.397   3.707  17.587  0.00  0.00    +0.000 C 
ENDROOT
BRANCH   3   6
ATOM      6  O   UNL     1       4.313   0.965  18.362  0.00  0.00    +0.000 OA
ATOM      7  H   UNL     1       5.262   1.235  18.358  0.00  0.00    +0.000 HD
ENDBRANCH   3   6
BRANCH   4   8
ATOM      8  O   UNL     1       1.772   1.863  17.434  0.00  0.00    +0.000 OA
ATOM      9  H   UNL     1       2.357   1.118  17.125  0.00  0.00    +0.000 HD
ENDBRANCH   4   8
BRANCH   1  10
ATOM     10  C   UNL     1       5.798   4.477  18.063  0.00  0.00    +0.000 C 
BRANCH  10  13
ATOM     11  O   UNL     1       7.300   5.603  16.034  0.00  0.00    +0.000 OA
ATOM     12  C   UNL     1       6.697   4.574  15.760  0.00  0.00    +0.000 C 
ATOM     13  N   UNL     1       5.935   3.952  16.708  0.00  0.00    +0.000 N 
ATOM     14  H   UNL     1       5.438   3.091  16.439  0.00  0.00    +0.000 HD
BRANCH  12  15
ATOM     15  C   UNL     1       6.773   4.007  14.351  0.00  0.00    +0.000 C 
ATOM     16  C   UNL     1       5.426   3.775  13.655  0.00  0.00    +0.000 C 
ATOM     17  C   UNL     1       5.882   3.420  12.247  0.00  0.00    +0.000 C 
ATOM     18  C   UNL     1       7.072   4.354  11.974  0.00  0.00    +0.000 C 
ATOM     19  C   UNL     1       7.440   4.943  13.346  0.00  0.00    +0.000 C 
ENDBRANCH  12  15
ENDBRANCH  10  13
ENDBRANCH   1  10
BRANCH   1  20
ATOM     20  C   UNL     1       3.861   5.448  19.434  0.00  0.00    +0.000 C 
BRANCH  20  21
ATOM     21  O   UNL     1       3.260   6.289  18.510  0.00  0.00    +0.000 OA
BRANCH  21  22
ATOM     22  C   UNL     1       2.492   7.386  18.763  0.00  0.00    +0.000 A 
ATOM     23  C   UNL     1       1.914   7.674  20.016  0.00  0.00    +0.000 A 
ATOM     24  N   UNL     1       1.226   8.833  20.184  0.00  0.00    +0.000 NA
ATOM     25  C   UNL     1       1.086   9.727  19.172  0.00  0.00    +0.000 A 
ATOM     26  C   UNL     1       1.645   9.445  17.929  0.00  0.00    +0.000 A 
ATOM     27  N   UNL     1       2.331   8.287  17.756  0.00  0.00    +0.000 NA
ENDBRANCH  21  22
ENDBRANCH  20  21
ENDBRANCH   1  20
TORSDOF 8
ENDMDL
MODEL 2
REMARK VINA RESULT:      -7.7      1.051      1.352
REMARK  Name = 
REMARK  8 active torsions:
REMARK  status: ('A' for Active; 'I' for Inactive)
REMARK    1  A    between atoms: C_2  and  C_20
REMARK    2  A    between atoms: N_3  and  C_4
REMARK    3  A    between atoms: C_4  and  C_5
REMARK    4  A    between atoms: C_5  and  C_6
REMARK    5  A    between atoms: C_6  and  O_7
REMARK    6  A    between atoms: O_7  and  C_8
REMARK    7  A    between atoms: C_15  and  O_16
REMARK    8  A    between atoms: C_17  and  O_18
REMARK                            x       y       z     vdW  Elec       q    Type
REMARK                         _______ _______ _______ _____ _____    ______ ____
ROOT
ATOM      1  C   UNL     1       4.496   4.586  18.166  0.00  0.00    +0.000 C 
ATOM      2  C   UNL     1       4.389   4.330  19.715  0.00  0.00    +0.000 C 
ATOM      3  C   UNL     1       3.906   2.894  19.912  0.00  0.00    +0.000 C 
ATOM      4  C   UNL     1       3.079   2.673  18.637  0.00  0.00    +0.000 C 
ATOM      5  C   UNL     1       3.957   3.272  17.538  0.00  0.00    +0.000 C 
ENDROOT
BRANCH   3   6
ATOM      6  O   UNL     1       4.978   1.988  20.041  0.00  0.00    +0.000 OA
ATOM      7  H   UNL     1       5.383   1.817  19.158  0.00  0.00    +0.000 HD
ENDBRANCH   3   6
BRANCH   4   8
ATOM      8  O   UNL     1       2.730   1.326  18.418  0.00  0.00    +0.000 OA
ATOM      9  H   UNL     1       2.172   1.295  17.593  0.00  0.00    +0.000 HD
ENDBRANCH   4   8
BRANCH   1  10
ATOM     10  C   UNL     1       5.971   4.852  17.709  0.00  0.00    +0.000 C 
BRANCH  10  13
ATOM     11  O   UNL     1       5.926   5.988  15.189  0.00  0.00    +0.000 OA
ATOM     12  C   UNL     1       6.252   4.810  15.251  0.00  0.00    +0.000 C 
ATOM     13  N   UNL     1       6.304   4.175  16.459  0.00  0.00    +0.000 N 
ATOM     14  H   UNL     1       6.577   3.182  16.471  0.00  0.00    +0.000 HD
BRANCH  12  15
ATOM     15  C   UNL     1       6.569   4.047  13.974  0.00  0.00    +0.000 C 
ATOM     16  C   UNL     1       5.359   3.659  13.115  0.00  0.00    +0.000 C 
ATOM     17  C   UNL     1       6.047   3.122  11.869  0.00  0.00    +0.000 C 
ATOM     18  C   UNL     1       7.250   4.054  11.651  0.00  0.00    +0.000 C 
ATOM     19  C   UNL     1       7.377   4.852  12.960  0.00  0.00    +0.000 C 
ENDBRANCH  12  15
ENDBRANCH  10  13
ENDBRANCH   1  10
BRANCH   1  20
ATOM     20  C   UNL     1       3.595   5.811  17.821  0.00  0.00    +0.000 C 
BRANCH  20  21
ATOM     21  O   UNL     1       2.945   6.214  18.977  0.00  0.00    +0.000 OA
BRANCH  21  22
ATOM     22  C   UNL     1       2.306   7.397  19.200  0.00  0.00    +0.000 A 
ATOM     23  C   UNL     1       2.078   8.371  18.208  0.00  0.00    +0.000 A 
ATOM     24  N   UNL     1       1.365   9.485  18.516  0.00  0.00    +0.000 NA
ATOM     25  C   UNL     1       0.860   9.682  19.761  0.00  0.00    +0.000 A 
ATOM     26  C   UNL     1       1.091   8.729  20.749  0.00  0.00    +0.000 A 
ATOM     27  N   UNL     1       1.804   7.616  20.446  0.00  0.00    +0.000 NA
ENDBRANCH  21  22
ENDBRANCH  20  21
ENDBRANCH   1  20
TORSDOF 8
ENDMDL
MODEL 3
REMARK VINA RESULT:      -7.6      1.108      1.377
REMARK  Name = 
REMARK  8 active torsions:
REMARK  status: ('A' for Active; 'I' for Inactive)
REMARK    1  A    between atoms: C_2  and  C_20
REMARK    2  A    between atoms: N_3  and  C_4
REMARK    3  A    between atoms: C_4  and  C_5
REMARK    4  A    between atoms: C_5  and  C_6
REMARK    5  A    between atoms: C_6  and  O_7
REMARK    6  A    between atoms: O_7  and  C_8
REMARK    7  A    between atoms: C_15  and  O_16
REMARK    8  A    between atoms: C_17  and  O_18
REMARK                            x       y       z     vdW  Elec       q    Type
REMARK                         _______ _______ _______ _____ _____    ______ ____
ROOT
ATOM      1  C   UNL     1       3.660   5.341  18.019  0.00  0.00    +0.000 C 
ATOM      2  C   UNL     1       4.080   4.952  19.486  0.00  0.00    +0.000 C 
ATOM      3  C   UNL     1       3.929   3.438  19.621  0.00  0.00    +0.000 C 
ATOM      4  C   UNL     1       2.799   3.152  18.621  0.00  0.00    +0.000 C 
ATOM      5  C   UNL     1       3.183   3.997  17.404  0.00  0.00    +0.000 C 
ENDROOT
BRANCH   3   6
ATOM      6  O   UNL     1       5.124   2.757  19.316  0.00  0.00    +0.000 OA
ATOM      7  H   UNL     1       5.600   2.522  20.148  0.00  0.00    +0.000 HD
ENDBRANCH   3   6
BRANCH   4   8
ATOM      8  O   UNL     1       2.631   1.784  18.336  0.00  0.00    +0.000 OA
ATOM      9  H   UNL     1       1.748   1.510  18.708  0.00  0.00    +0.000 HD
ENDBRANCH   4   8
BRANCH   1  10
ATOM     10  C   UNL     1       4.856   5.930  17.197  0.00  0.00    +0.000 C 
BRANCH  10  13
ATOM     11  O   UNL     1       7.324   5.793  15.957  0.00  0.00    +0.000 OA
ATOM     12  C   UNL     1       6.428   5.119  15.465  0.00  0.00    +0.000 C 
ATOM     13  N   UNL     1       5.180   5.128  16.021  0.00  0.00    +0.000 N 
ATOM     14  H   UNL     1       4.450   4.552  15.576  0.00  0.00    +0.000 HD
BRANCH  12  15
ATOM     15  C   UNL     1       6.701   4.298  14.215  0.00  0.00    +0.000 C 
ATOM     16  C   UNL     1       5.459   3.817  13.453  0.00  0.00    +0.000 C 
ATOM     17  C   UNL     1       6.095   3.236  12.198  0.00  0.00    +0.000 C 
ATOM     18  C   UNL     1       7.245   4.199  11.859  0.00  0.00    +0.000 C 
ATOM     19  C   UNL     1       7.415   5.073  13.112  0.00  0.00    +0.000 C 
ENDBRANCH  12  15
ENDBRANCH  10  13
ENDBRANCH   1  10
BRANCH   1  20
ATOM     20  C   UNL     1       2.505   6.383  18.113  0.00  0.00    +0.000 C 
BRANCH  20  21
ATOM     21  O   UNL     1       2.615   7.049  19.324  0.00  0.00    +0.000 OA
BRANCH  21  22
ATOM     22  C   UNL     1       1.778   7.999  19.827  0.00  0.00    +0.000 A 
ATOM     23  C   UNL     1       1.268   7.987  21.141  0.00  0.00    +0.000 A 
ATOM     24  N   UNL     1       0.500   9.021  21.570  0.00  0.00    +0.000 NA
ATOM     25  C   UNL     1       0.213  10.074  20.762  0.00  0.00    +0.000 A 
ATOM     26  C   UNL     1       0.704  10.088  19.460  0.00  0.00    +0.000 A 
ATOM     27  N   UNL     1       1.471   9.056  19.026  0.00  0.00    +0.000 NA
ENDBRANCH  21  22
ENDBRANCH  20  21
ENDBRANCH   1  20
TORSDOF 8
ENDMDL
MODEL 4
REMARK VINA RESULT:      -7.6      2.282      7.248
REMARK  Name = 
REMARK  8 active torsions:
REMARK  status: ('A' for Active; 'I' for Inactive)
REMARK    1  A    between atoms: C_2  and  C_20
REMARK    2  A    between atoms: N_3  and  C_4
REMARK    3  A    between atoms: C_4  and  C_5
REMARK    4  A    between atoms: C_5  and  C_6
REMARK    5  A    between atoms: C_6  and  O_7
REMARK    6  A    between atoms: O_7  and  C_8
REMARK    7  A    between atoms: C_15  and  O_16
REMARK    8  A    between atoms: C_17  and  O_18
REMARK                            x       y       z     vdW  Elec       q    Type
REMARK                         _______ _______ _______ _____ _____    ______ ____
ROOT
ATOM      1  C   UNL     1       3.051   4.579  19.623  0.00  0.00    +0.000 C 
ATOM      2  C   UNL     1       2.348   3.396  18.858  0.00  0.00    +0.000 C 
ATOM      3  C   UNL     1       1.485   2.643  19.868  0.00  0.00    +0.000 C 
ATOM      4  C   UNL     1       2.259   2.887  21.173  0.00  0.00    +0.000 C 
ATOM      5  C   UNL     1       2.615   4.373  21.099  0.00  0.00    +0.000 C 
ENDROOT
BRANCH   3   6
ATOM      6  O   UNL     1       0.165   3.133  19.907  0.00  0.00    +0.000 OA
ATOM      7  H   UNL     1      -0.056   3.435  20.821  0.00  0.00    +0.000 HD
ENDBRANCH   3   6
BRANCH   4   8
ATOM      8  O   UNL     1       1.541   2.529  22.329  0.00  0.00    +0.000 OA
ATOM      9  H   UNL     1       2.199   2.183  22.992  0.00  0.00    +0.000 HD
ENDBRANCH   4   8
BRANCH   1  10
ATOM     10  C   UNL     1       2.587   5.981  19.101  0.00  0.00    +0.000 C 
BRANCH  10  13
ATOM     11  O   UNL     1       1.840   8.631  18.840  0.00  0.00    +0.000 OA
ATOM     12  C   UNL     1       1.709   8.133  19.951  0.00  0.00    +0.000 C 
ATOM     13  N   UNL     1       2.050   6.828  20.162  0.00  0.00    +0.000 N 
ATOM     14  H   UNL     1       1.931   6.446  21.111  0.00  0.00    +0.000 HD
BRANCH  12  15
ATOM     15  C   UNL     1       1.193   8.983  21.102  0.00  0.00    +0.000 C 
ATOM     16  C   UNL     1       0.504  10.294  20.702  0.00  0.00    +0.000 C 
ATOM     17  C   UNL     1      -0.047  10.754  22.044  0.00  0.00    +0.000 C 
ATOM     18  C   UNL     1      -0.530   9.466  22.732  0.00  0.00    +0.000 C 
ATOM     19  C   UNL     1       0.075   8.321  21.904  0.00  0.00    +0.000 C 
ENDBRANCH  12  15
ENDBRANCH  10  13
ENDBRANCH   1  10
BRANCH   1  20
ATOM     20  C   UNL     1       4.591   4.418  19.440  0.00  0.00    +0.000 C 
BRANCH  20  21
ATOM     21  O   UNL     1       5.034   5.406  18.575  0.00  0.00    +0.000 OA
BRANCH  21  22
ATOM     22  C   UNL     1       5.690   5.240  17.392  0.00  0.00    +0.000 A 
ATOM     23  C   UNL     1       6.778   6.033  16.975  0.00  0.00    +0.000 A 
ATOM     24  N   UNL     1       7.411   5.739  15.810  0.00  0.00    +0.000 NA
ATOM     25  C   UNL     1       7.023   4.693  15.036  0.00  0.00    +0.000 A 
ATOM     26  C   UNL     1       5.942   3.912  15.436  0.00  0.00    +0.000 A 
ATOM     27  N   UNL     1       5.305   4.204  16.598  0.00  0.00    +0.000 NA
ENDBRANCH  21  22
ENDBRANCH  20  21
ENDBRANCH   1  20
TORSDOF 8
ENDMDL
MODEL 5
REMARK VINA RESULT:      -7.6      0.925      1.307
REMARK  Name = 
REMARK  8 active torsions:
REMARK  status: ('A' for Active; 'I' for Inactive)
REMARK    1  A    between atoms: C_2  and  C_20
REMARK    2  A    between atoms: N_3  and  C_4
REMARK    3  A    between atoms: C_4  and  C_5
REMARK    4  A    between atoms: C_5  and  C_6
REMARK    5  A    between atoms: C_6  and  O_7
REMARK    6  A    between atoms: O_7  and  C_8
REMARK    7  A    between atoms: C_15  and  O_16
REMARK    8  A    between atoms: C_17  and  O_18
REMARK                            x       y       z     vdW  Elec       q    Type
REMARK                         _______ _______ _______ _____ _____    ______ ____
ROOT
ATOM      1  C   UNL     1       3.889   5.056  18.399  0.00  0.00    +0.000 C 
ATOM      2  C   UNL     1       4.661   3.819  18.993  0.00  0.00    +0.000 C 
ATOM      3  C   UNL     1       3.916   2.559  18.559  0.00  0.00    +0.000 C 
ATOM      4  C   UNL     1       2.476   3.082  18.437  0.00  0.00    +0.000 C 
ATOM      5  C   UNL     1       2.647   4.420  17.717  0.00  0.00    +0.000 C 
ENDROOT
BRANCH   3   6
ATOM      6  O   UNL     1       4.419   2.035  17.352  0.00  0.00    +0.000 OA
ATOM      7  H   UNL     1       4.951   1.224  17.532  0.00  0.00    +0.000 HD
ENDBRANCH   3   6
BRANCH   4   8
ATOM      8  O   UNL     1       1.606   2.189  17.785  0.00  0.00    +0.000 OA
ATOM      9  H   UNL     1       0.816   2.057  18.378  0.00  0.00    +0.000 HD
ENDBRANCH   4   8
BRANCH   1  10
ATOM     10  C   UNL     1       4.748   5.846  17.355  0.00  0.00    +0.000 C 
BRANCH  10  13
ATOM     11  O   UNL     1       7.236   5.465  16.211  0.00  0.00    +0.000 OA
ATOM     12  C   UNL     1       6.289   4.932  15.647  0.00  0.00    +0.000 C 
ATOM     13  N   UNL     1       5.027   5.068  16.151  0.00  0.00    +0.000 N 
ATOM     14  H   UNL     1       4.254   4.609  15.647  0.00  0.00    +0.000 HD
BRANCH  12  15
ATOM     15  C   UNL     1       6.518   4.144  14.367  0.00  0.00    +0.000 C 
ATOM     16  C   UNL     1       5.262   3.840  13.541  0.00  0.00    +0.000 C 
ATOM     17  C   UNL     1       5.878   3.251  12.280  0.00  0.00    +0.000 C 
ATOM     18  C   UNL     1       7.138   4.096  12.027  0.00  0.00    +0.000 C 
ATOM     19  C   UNL     1       7.354   4.887  13.328  0.00  0.00    +0.000 C 
ENDBRANCH  12  15
ENDBRANCH  10  13
ENDBRANCH   1  10
BRANCH   1  20
ATOM     20  C   UNL     1       3.492   5.986  19.586  0.00  0.00    +0.000 C 
BRANCH  20  21
ATOM     21  O   UNL     1       2.269   6.569  19.293  0.00  0.00    +0.000 OA
BRANCH  21  22
ATOM     22  C   UNL     1       2.017   7.884  19.037  0.00  0.00    +0.000 A 
ATOM     23  C   UNL     1       2.343   8.528  17.827  0.00  0.00    +0.000 A 
ATOM     24  N   UNL     1       1.982   9.825  17.642  0.00  0.00    +0.000 NA
ATOM     25  C   UNL     1       1.307  10.516  18.596  0.00  0.00    +0.000 A 
ATOM     26  C   UNL     1       0.991   9.889  19.798  0.00  0.00    +0.000 A 
ATOM     27  N   UNL     1       1.352   8.595  19.988  0.00  0.00    +0.000 NA
ENDBRANCH  21  22
ENDBRANCH  20  21
ENDBRANCH   1  20
TORSDOF 8
ENDMDL
MODEL 6
REMARK VINA RESULT:      -7.6      2.318      5.422
REMARK  Name = 
REMARK  8 active torsions:
REMARK  status: ('A' for Active; 'I' for Inactive)
REMARK    1  A    between atoms: C_2  and  C_20
REMARK    2  A    between atoms: N_3  and  C_4
REMARK    3  A    between atoms: C_4  and  C_5
REMARK    4  A    between atoms: C_5  and  C_6
REMARK    5  A    between atoms: C_6  and  O_7
REMARK    6  A    between atoms: O_7  and  C_8
REMARK    7  A    between atoms: C_15  and  O_16
REMARK    8  A    between atoms: C_17  and  O_18
REMARK                            x       y       z     vdW  Elec       q    Type
REMARK                         _______ _______ _______ _____ _____    ______ ____
ROOT
ATOM      1  C   UNL     1       5.333   5.695  17.248  0.00  0.00    +0.000 C 
ATOM      2  C   UNL     1       6.651   5.680  16.387  0.00  0.00    +0.000 C 
ATOM      3  C   UNL     1       7.816   5.400  17.334  0.00  0.00    +0.000 C 
ATOM      4  C   UNL     1       7.293   5.998  18.648  0.00  0.00    +0.000 C 
ATOM      5  C   UNL     1       5.843   5.514  18.704  0.00  0.00    +0.000 C 
ENDROOT
BRANCH   3   6
ATOM      6  O   UNL     1       8.104   4.023  17.428  0.00  0.00    +0.000 OA
ATOM      7  H   UNL     1       9.078   3.887  17.502  0.00  0.00    +0.000 HD
ENDBRANCH   3   6
BRANCH   4   8
ATOM      8  O   UNL     1       8.058   5.640  19.775  0.00  0.00    +0.000 OA
ATOM      9  H   UNL     1       8.584   4.829  19.531  0.00  0.00    +0.000 HD
ENDBRANCH   4   8
BRANCH   1  10
ATOM     10  C   UNL     1       4.356   4.535  16.857  0.00  0.00    +0.000 C 
BRANCH  10  13
ATOM     11  O   UNL     1       1.709   4.035  17.475  0.00  0.00    +0.000 OA
ATOM     12  C   UNL     1       2.544   3.590  18.252  0.00  0.00    +0.000 C 
ATOM     13  N   UNL     1       3.874   3.790  18.016  0.00  0.00    +0.000 N 
ATOM     14  H   UNL     1       4.547   3.405  18.694  0.00  0.00    +0.000 HD
BRANCH  12  15
ATOM     15  C   UNL     1       2.094   2.843  19.497  0.00  0.00    +0.000 C 
ATOM     16  C   UNL     1       3.171   2.626  20.567  0.00  0.00    +0.000 C 
ATOM     17  C   UNL     1       2.339   2.058  21.708  0.00  0.00    +0.000 C 
ATOM     18  C   UNL     1       1.025   2.856  21.669  0.00  0.00    +0.000 C 
ATOM     19  C   UNL     1       1.042   3.586  20.316  0.00  0.00    +0.000 C 
ENDBRANCH  12  15
ENDBRANCH  10  13
ENDBRANCH   1  10
BRANCH   1  20
ATOM     20  C   UNL     1       4.642   7.076  17.039  0.00  0.00    +0.000 C 
BRANCH  20  21
ATOM     21  O   UNL     1       3.291   6.935  17.315  0.00  0.00    +0.000 OA
BRANCH  21  22
ATOM     22  C   UNL     1       2.519   7.728  18.111  0.00  0.00    +0.000 A 
ATOM     23  C   UNL     1       2.230   7.448  19.461  0.00  0.00    +0.000 A 
ATOM     24  N   UNL     1       1.511   8.341  20.190  0.00  0.00    +0.000 NA
ATOM     25  C   UNL     1       1.067   9.504  19.648  0.00  0.00    +0.000 A 
ATOM     26  C   UNL     1       1.339   9.782  18.312  0.00  0.00    +0.000 A 
ATOM     27  N   UNL     1       2.055   8.892  17.579  0.00  0.00    +0.000 NA
ENDBRANCH  21  22
ENDBRANCH  20  21
ENDBRANCH   1  20
TORSDOF 8
ENDMDL
MODEL 7
REMARK VINA RESULT:      -7.5      2.445      6.803
REMARK  Name = 
REMARK  8 active torsions:
REMARK  status: ('A' for Active; 'I' for Inactive)
REMARK    1  A    between atoms: C_2  and  C_20
REMARK    2  A    between atoms: N_3  and  C_4
REMARK    3  A    between atoms: C_4  and  C_5
REMARK    4  A    between atoms: C_5  and  C_6
REMARK    5  A    between atoms: C_6  and  O_7
REMARK    6  A    between atoms: O_7  and  C_8
REMARK    7  A    between atoms: C_15  and  O_16
REMARK    8  A    between atoms: C_17  and  O_18
REMARK                            x       y       z     vdW  Elec       q    Type
REMARK                         _______ _______ _______ _____ _____    ______ ____
ROOT
ATOM      1  C   UNL     1       4.733   6.159  16.989  0.00  0.00    +0.000 C 
ATOM      2  C   UNL     1       5.961   6.101  17.972  0.00  0.00    +0.000 C 
ATOM      3  C   UNL     1       7.223   5.956  17.124  0.00  0.00    +0.000 C 
ATOM      4  C   UNL     1       6.681   5.210  15.895  0.00  0.00    +0.000 C 
ATOM      5  C   UNL     1       5.370   5.938  15.590  0.00  0.00    +0.000 C 
ENDROOT
BRANCH   3   6
ATOM      6  O   UNL     1       7.795   7.204  16.806  0.00  0.00    +0.000 OA
ATOM      7  H   UNL     1       8.623   7.337  17.327  0.00  0.00    +0.000 HD
ENDBRANCH   3   6
BRANCH   4   8
ATOM      8  O   UNL     1       7.581   5.178  14.813  0.00  0.00    +0.000 OA
ATOM      9  H   UNL     1       7.744   4.220  14.591  0.00  0.00    +0.000 HD
ENDBRANCH   4   8
BRANCH   1  10
ATOM     10  C   UNL     1       3.992   7.539  17.046  0.00  0.00    +0.000 C 
BRANCH  10  13
ATOM     11  O   UNL     1       2.170   9.581  17.436  0.00  0.00    +0.000 OA
ATOM     12  C   UNL     1       2.105   8.636  18.212  0.00  0.00    +0.000 C 
ATOM     13  N   UNL     1       2.967   7.584  18.084  0.00  0.00    +0.000 N 
ATOM     14  H   UNL     1       2.886   6.810  18.759  0.00  0.00    +0.000 HD
BRANCH  12  15
ATOM     15  C   UNL     1       1.082   8.652  19.337  0.00  0.00    +0.000 C 
ATOM     16  C   UNL     1       1.574   8.117  20.688  0.00  0.00    +0.000 C 
ATOM     17  C   UNL     1       0.398   8.471  21.587  0.00  0.00    +0.000 C 
ATOM     18  C   UNL     1      -0.068   9.853  21.096  0.00  0.00    +0.000 C 
ATOM     19  C   UNL     1       0.638  10.054  19.745  0.00  0.00    +0.000 C 
ENDBRANCH  12  15
ENDBRANCH  10  13
ENDBRANCH   1  10
BRANCH   1  20
ATOM     20  C   UNL     1       3.757   5.007  17.376  0.00  0.00    +0.000 C 
BRANCH  20  21
ATOM     21  O   UNL     1       3.975   4.676  18.704  0.00  0.00    +0.000 OA
BRANCH  21  22
ATOM     22  C   UNL     1       3.078   4.156  19.588  0.00  0.00    +0.000 A 
ATOM     23  C   UNL     1       1.722   4.534  19.650  0.00  0.00    +0.000 A 
ATOM     24  N   UNL     1       0.892   3.901  20.520  0.00  0.00    +0.000 NA
ATOM     25  C   UNL     1       1.337   2.907  21.330  0.00  0.00    +0.000 A 
ATOM     26  C   UNL     1       2.678   2.537  21.281  0.00  0.00    +0.000 A 
ATOM     27  N   UNL     1       3.512   3.167  20.416  0.00  0.00    +0.000 NA
ENDBRANCH  21  22
ENDBRANCH  20  21
ENDBRANCH   1  20
TORSDOF 8
ENDMDL
MODEL 8
REMARK VINA RESULT:      -7.5      2.071      6.982
REMARK  Name = 
REMARK  8 active torsions:
REMARK  status: ('A' for Active; 'I' for Inactive)
REMARK    1  A    between atoms: C_2  and  C_20
REMARK    2  A    between atoms: N_3  and  C_4
REMARK    3  A    between atoms: C_4  and  C_5
REMARK    4  A    between atoms: C_5  and  C_6
REMARK    5  A    between atoms: C_6  and  O_7
REMARK    6  A    between atoms: O_7  and  C_8
REMARK    7  A    between atoms: C_15  and  O_16
REMARK    8  A    between atoms: C_17  and  O_18
REMARK                            x       y       z     vdW  Elec       q    Type
REMARK                         _______ _______ _______ _____ _____    ______ ____
ROOT
ATOM      1  C   UNL     1       2.954   4.235  18.439  0.00  0.00    +0.000 C 
ATOM      2  C   UNL     1       1.498   3.637  18.402  0.00  0.00    +0.000 C 
ATOM      3  C   UNL     1       1.132   3.231  19.828  0.00  0.00    +0.000 C 
ATOM      4  C   UNL     1       2.512   2.897  20.415  0.00  0.00    +0.000 C 
ATOM      5  C   UNL     1       3.394   4.042  19.916  0.00  0.00    +0.000 C 
ENDROOT
BRANCH   3   6
ATOM      6  O   UNL     1       0.471   4.265  20.520  0.00  0.00    +0.000 OA
ATOM      7  H   UNL     1       0.755   5.142  20.168  0.00  0.00    +0.000 HD
ENDBRANCH   3   6
BRANCH   4   8
ATOM      8  O   UNL     1       2.508   2.748  21.815  0.00  0.00    +0.000 OA
ATOM      9  H   UNL     1       1.555   2.689  22.104  0.00  0.00    +0.000 HD
ENDBRANCH   4   8
BRANCH   1  10
ATOM     10  C   UNL     1       2.982   5.752  18.048  0.00  0.00    +0.000 C 
BRANCH  10  13
ATOM     11  O   UNL     1       2.103   8.354  17.738  0.00  0.00    +0.000 OA
ATOM     12  C   UNL     1       2.062   7.896  18.873  0.00  0.00    +0.000 C 
ATOM     13  N   UNL     1       2.474   6.616  19.110  0.00  0.00    +0.000 N 
ATOM     14  H   UNL     1       2.429   6.266  20.078  0.00  0.00    +0.000 HD
BRANCH  12  15
ATOM     15  C   UNL     1       1.579   8.767  20.022  0.00  0.00    +0.000 C 
ATOM     16  C   UNL     1       0.424   9.720  19.692  0.00  0.00    +0.000 C 
ATOM     17  C   UNL     1       0.081  10.253  21.076  0.00  0.00    +0.000 C 
ATOM     18  C   UNL     1       0.225   9.040  22.010  0.00  0.00    +0.000 C 
ATOM     19  C   UNL     1       0.962   7.980  21.175  0.00  0.00    +0.000 C 
ENDBRANCH  12  15
ENDBRANCH  10  13
ENDBRANCH   1  10
BRANCH   1  20
ATOM     20  C   UNL     1       3.835   3.408  17.454  0.00  0.00    +0.000 C 
BRANCH  20  21
ATOM     21  O   UNL     1       5.102   3.969  17.424  0.00  0.00    +0.000 OA
BRANCH  21  22
ATOM     22  C   UNL     1       5.815   4.351  16.328  0.00  0.00    +0.000 A 
ATOM     23  C   UNL     1       6.865   5.291  16.357  0.00  0.00    +0.000 A 
ATOM     24  N   UNL     1       7.563   5.548  15.221  0.00  0.00    +0.000 NA
ATOM     25  C   UNL     1       7.277   4.916  14.054  0.00  0.00    +0.000 A 
ATOM     26  C   UNL     1       6.235   3.995  14.015  0.00  0.00    +0.000 A 
ATOM     27  N   UNL     1       5.533   3.736  15.147  0.00  0.00    +0.000 NA
ENDBRANCH  21  22
ENDBRANCH  20  21
ENDBRANCH   1  20
TORSDOF 8
ENDMDL
MODEL 9
REMARK VINA RESULT:      -7.4      1.881      5.117
REMARK  Name = 
REMARK  8 active torsions:
REMARK  status: ('A' for Active; 'I' for Inactive)
REMARK    1  A    between atoms: C_2  and  C_20
REMARK    2  A    between atoms: N_3  and  C_4
REMARK    3  A    between atoms: C_4  and  C_5
REMARK    4  A    between atoms: C_5  and  C_6
REMARK    5  A    between atoms: C_6  and  O_7
REMARK    6  A    between atoms: O_7  and  C_8
REMARK    7  A    between atoms: C_15  and  O_16
REMARK    8  A    between atoms: C_17  and  O_18
REMARK                            x       y       z     vdW  Elec       q    Type
REMARK                         _______ _______ _______ _____ _____    ______ ____
ROOT
ATOM      1  C   UNL     1       5.664   5.799  17.286  0.00  0.00    +0.000 C 
ATOM      2  C   UNL     1       4.802   4.917  16.308  0.00  0.00    +0.000 C 
ATOM      3  C   UNL     1       5.726   4.426  15.195  0.00  0.00    +0.000 C 
ATOM      4  C   UNL     1       6.759   5.561  15.133  0.00  0.00    +0.000 C 
ATOM      5  C   UNL     1       7.059   5.847  16.605  0.00  0.00    +0.000 C 
ENDROOT
BRANCH   3   6
ATOM      6  O   UNL     1       6.297   3.173  15.496  0.00  0.00    +0.000 OA
ATOM      7  H   UNL     1       6.507   2.689  14.661  0.00  0.00    +0.000 HD
ENDBRANCH   3   6
BRANCH   4   8
ATOM      8  O   UNL     1       7.899   5.244  14.369  0.00  0.00    +0.000 OA
ATOM      9  H   UNL     1       7.665   4.462  13.797  0.00  0.00    +0.000 HD
ENDBRANCH   4   8
BRANCH   1  10
ATOM     10  C   UNL     1       5.769   5.168  18.716  0.00  0.00    +0.000 C 
BRANCH  10  13
ATOM     11  O   UNL     1       5.311   2.585  19.589  0.00  0.00    +0.000 OA
ATOM     12  C   UNL     1       4.351   3.345  19.604  0.00  0.00    +0.000 C 
ATOM     13  N   UNL     1       4.495   4.639  19.193  0.00  0.00    +0.000 N 
ATOM     14  H   UNL     1       3.664   5.247  19.214  0.00  0.00    +0.000 HD
BRANCH  12  15
ATOM     15  C   UNL     1       2.991   2.833  20.052  0.00  0.00    +0.000 C 
ATOM     16  C   UNL     1       2.117   3.845  20.804  0.00  0.00    +0.000 C 
ATOM     17  C   UNL     1       0.805   3.080  20.903  0.00  0.00    +0.000 C 
ATOM     18  C   UNL     1       0.672   2.355  19.553  0.00  0.00    +0.000 C 
ATOM     19  C   UNL     1       2.059   2.471  18.900  0.00  0.00    +0.000 C 
ENDBRANCH  12  15
ENDBRANCH  10  13
ENDBRANCH   1  10
BRANCH   1  20
ATOM     20  C   UNL     1       5.004   7.209  17.365  0.00  0.00    +0.000 C 
BRANCH  20  21
ATOM     21  O   UNL     1       3.629   7.045  17.414  0.00  0.00    +0.000 OA
BRANCH  21  22
ATOM     22  C   UNL     1       2.728   7.793  18.112  0.00  0.00    +0.000 A 
ATOM     23  C   UNL     1       2.325   7.513  19.433  0.00  0.00    +0.000 A 
ATOM     24  N   UNL     1       1.477   8.363  20.067  0.00  0.00    +0.000 NA
ATOM     25  C   UNL     1       1.010   9.484  19.459  0.00  0.00    +0.000 A 
ATOM     26  C   UNL     1       1.395   9.761  18.151  0.00  0.00    +0.000 A 
ATOM     27  N   UNL     1       2.241   8.913  17.512  0.00  0.00    +0.000 NA
ENDBRANCH  21  22
ENDBRANCH  20  21
ENDBRANCH   1  20
TORSDOF 8
ENDMDL
