MODEL 1
REMARK VINA RESULT:      -7.3      0.000      0.000
REMARK  Name = 
REMARK  4 active torsions:
REMARK  status: ('A' for Active; 'I' for Inactive)
REMARK    1  A    between atoms: C_2  and  OXT_3
REMARK    2  A    between atoms: C_2  and  CA_4
REMARK    3  A    between atoms: C_6  and  C_7
REMARK    4  A    between atoms: C_7  and  C_8
REMARK                            x       y       z     vdW  Elec       q    Type
REMARK                         _______ _______ _______ _____ _____    ______ ____
ROOT
ATOM      1  CA  UNL     1       5.651   4.830  15.793  0.00  0.00    +0.000 C 
ATOM      2  C   UNL     1       5.732   6.233  16.359  0.00  0.00    +0.000 C 
ATOM      3  C   UNL     1       5.004   6.103  17.694  0.00  0.00    +0.000 C 
ATOM      4  C   UNL     1       5.330   4.668  18.133  0.00  0.00    +0.000 C 
ATOM      5  N   UNL     1       5.966   3.991  16.985  0.00  0.00    +0.000 NA
ATOM      6  H   UNL     1       5.537   3.068  16.866  0.00  0.00    +0.000 HD
ENDROOT
BRANCH   1   8
ATOM      7  O   UNL     1       7.652   5.312  14.491  0.00  0.00    +0.000 OA
ATOM      8  C   UNL     1       6.681   4.599  14.694  0.00  0.00    +0.000 C 
BRANCH   8   9
ATOM      9  OXT UNL     1       6.407   3.482  13.975  0.00  0.00    +0.000 OA
ATOM     10  HXT UNL     1       5.422   3.396  13.965  0.00  0.00    +0.000 HD
ENDBRANCH   8   9
ENDBRANCH   1   8
BRANCH   3  11
ATOM     11  C   UNL     1       3.490   6.350  17.517  0.00  0.00    +0.000 C 
BRANCH  11  12
ATOM     12  C   UNL     1       2.640   5.607  18.519  0.00  0.00    +0.000 A 
ATOM     13  C   UNL     1       2.457   6.108  19.815  0.00  0.00    +0.000 A 
ATOM     14  C   UNL     1       1.714   5.390  20.756  0.00  0.00    +0.000 A 
ATOM     15  C   UNL     1       1.142   4.170  20.408  0.00  0.00    +0.000 A 
ATOM     16  C   UNL     1       1.293   3.680  19.114  0.00  0.00    +0.000 A 
ATOM     17 CL   UNL     1       0.574   2.178  18.676  0.00  0.00    +0.000 Cl
ATOM     18  C   UNL     1       2.032   4.392  18.169  0.00  0.00    +0.000 A 
ENDBRANCH  11  12
ENDBRANCH   3  11
TORSDOF 4
ENDMDL
MODEL 2
REMARK VINA RESULT:      -7.1      1.289      1.873
REMARK  Name = 
REMARK  4 active torsions:
REMARK  status: ('A' for Active; 'I' for Inactive)
REMARK    1  A    between atoms: C_2  and  OXT_3
REMARK    2  A    between atoms: C_2  and  CA_4
REMARK    3  A    between atoms: C_6  and  C_7
REMARK    4  A    between atoms: C_7  and  C_8
REMARK                            x       y       z     vdW  Elec       q    Type
REMARK                         _______ _______ _______ _____ _____    ______ ____
ROOT
ATOM      1  CA  UNL     1       5.740   4.673  15.911  0.00  0.00    +0.000 C 
ATOM      2  C   UNL     1       5.535   6.102  16.371  0.00  0.00    +0.000 C 
ATOM      3  C   UNL     1       4.962   5.928  17.774  0.00  0.00    +0.000 C 
ATOM      4  C   UNL     1       5.647   4.649  18.276  0.00  0.00    +0.000 C 
ATOM      5  N   UNL     1       6.333   4.036  17.122  0.00  0.00    +0.000 NA
ATOM      6  H   UNL     1       6.123   3.033  17.108  0.00  0.00    +0.000 HD
ENDROOT
BRANCH   1   8
ATOM      7  O   UNL     1       7.637   5.355  14.545  0.00  0.00    +0.000 OA
ATOM      8  C   UNL     1       6.708   4.586  14.738  0.00  0.00    +0.000 C 
BRANCH   8   9
ATOM      9  OXT UNL     1       6.433   3.526  13.937  0.00  0.00    +0.000 OA
ATOM     10  HXT UNL     1       6.423   3.876  13.011  0.00  0.00    +0.000 HD
ENDBRANCH   8   9
ENDBRANCH   1   8
BRANCH   3  11
ATOM     11  C   UNL     1       3.423   5.810  17.726  0.00  0.00    +0.000 C 
BRANCH  11  12
ATOM     12  C   UNL     1       2.907   4.490  18.245  0.00  0.00    +0.000 A 
ATOM     13  C   UNL     1       2.706   3.407  17.378  0.00  0.00    +0.000 A 
ATOM     14  C   UNL     1       2.178   2.204  17.853  0.00  0.00    +0.000 A 
ATOM     15  C   UNL     1       1.854   2.070  19.200  0.00  0.00    +0.000 A 
ATOM     16  C   UNL     1       2.080   3.129  20.074  0.00  0.00    +0.000 A 
ATOM     17 CL   UNL     1       1.694   2.960  21.743  0.00  0.00    +0.000 Cl
ATOM     18  C   UNL     1       2.608   4.332  19.606  0.00  0.00    +0.000 A 
ENDBRANCH  11  12
ENDBRANCH   3  11
TORSDOF 4
ENDMDL
MODEL 3
REMARK VINA RESULT:      -7.1      1.561      1.974
REMARK  Name = 
REMARK  4 active torsions:
REMARK  status: ('A' for Active; 'I' for Inactive)
REMARK    1  A    between atoms: C_2  and  OXT_3
REMARK    2  A    between atoms: C_2  and  CA_4
REMARK    3  A    between atoms: C_6  and  C_7
REMARK    4  A    between atoms: C_7  and  C_8
REMARK                            x       y       z     vdW  Elec       q    Type
REMARK                         _______ _______ _______ _____ _____    ______ ____
ROOT
ATOM      1  CA  UNL     1       6.757   4.991  15.874  0.00  0.00    +0.000 C 
ATOM      2  C   UNL     1       5.269   5.207  16.055  0.00  0.00    +0.000 C 
ATOM      3  C   UNL     1       5.186   5.867  17.429  0.00  0.00    +0.000 C 
ATOM      4  C   UNL     1       6.482   6.687  17.502  0.00  0.00    +0.000 C 
ATOM      5  N   UNL     1       7.324   6.282  16.359  0.00  0.00    +0.000 NA
ATOM      6  H   UNL     1       8.280   6.123  16.693  0.00  0.00    +0.000 HD
ENDROOT
BRANCH   1   8
ATOM      7  O   UNL     1       7.886   5.474  13.771  0.00  0.00    +0.000 OA
ATOM      8  C   UNL     1       7.127   4.765  14.413  0.00  0.00    +0.000 C 
BRANCH   8   9
ATOM      9  OXT UNL     1       6.529   3.656  13.909  0.00  0.00    +0.000 OA
ATOM     10  HXT UNL     1       6.528   2.988  14.639  0.00  0.00    +0.000 HD
ENDBRANCH   8   9
ENDBRANCH   1   8
BRANCH   3  11
ATOM     11  C   UNL     1       5.083   4.800  18.541  0.00  0.00    +0.000 C 
BRANCH  11  12
ATOM     12  C   UNL     1       3.677   4.299  18.762  0.00  0.00    +0.000 A 
ATOM     13  C   UNL     1       2.707   4.420  17.757  0.00  0.00    +0.000 A 
ATOM     14  C   UNL     1       1.393   4.004  17.984  0.00  0.00    +0.000 A 
ATOM     15  C   UNL     1       1.038   3.456  19.214  0.00  0.00    +0.000 A 
ATOM     16  C   UNL     1       2.002   3.303  20.205  0.00  0.00    +0.000 A 
ATOM     17 CL   UNL     1       1.570   2.612  21.722  0.00  0.00    +0.000 Cl
ATOM     18  C   UNL     1       3.316   3.715  19.985  0.00  0.00    +0.000 A 
ENDBRANCH  11  12
ENDBRANCH   3  11
TORSDOF 4
ENDMDL
MODEL 4
REMARK VINA RESULT:      -7.1      1.699      2.200
REMARK  Name = 
REMARK  4 active torsions:
REMARK  status: ('A' for Active; 'I' for Inactive)
REMARK    1  A    between atoms: C_2  and  OXT_3
REMARK    2  A    between atoms: C_2  and  CA_4
REMARK    3  A    between atoms: C_6  and  C_7
REMARK    4  A    between atoms: C_7  and  C_8
REMARK                            x       y       z     vdW  Elec       q    Type
REMARK                         _______ _______ _______ _____ _____    ______ ____
ROOT
ATOM      1  CA  UNL     1       6.448   4.237  15.297  0.00  0.00    +0.000 C 
ATOM      2  C   UNL     1       5.189   5.010  15.632  0.00  0.00    +0.000 C 
ATOM      3  C   UNL     1       4.987   4.704  17.113  0.00  0.00    +0.000 C 
ATOM      4  C   UNL     1       6.422   4.564  17.641  0.00  0.00    +0.000 C 
ATOM      5  N   UNL     1       7.320   4.532  16.470  0.00  0.00    +0.000 NA
ATOM      6  H   UNL     1       7.991   3.767  16.588  0.00  0.00    +0.000 HD
ENDROOT
BRANCH   1   8
ATOM      7  O   UNL     1       7.938   5.623  13.958  0.00  0.00    +0.000 OA
ATOM      8  C   UNL     1       7.099   4.737  14.013  0.00  0.00    +0.000 C 
BRANCH   8   9
ATOM      9  OXT UNL     1       6.652   4.058  12.926  0.00  0.00    +0.000 OA
ATOM     10  HXT UNL     1       6.422   4.743  12.250  0.00  0.00    +0.000 HD
ENDBRANCH   8   9
ENDBRANCH   1   8
BRANCH   3  11
ATOM     11  C   UNL     1       4.149   3.420  17.296  0.00  0.00    +0.000 C 
BRANCH  11  12
ATOM     12  C   UNL     1       3.037   3.569  18.306  0.00  0.00    +0.000 A 
ATOM     13  C   UNL     1       2.128   2.526  18.531  0.00  0.00    +0.000 A 
ATOM     14  C   UNL     1       1.068   2.687  19.427  0.00  0.00    +0.000 A 
ATOM     15  C   UNL     1       0.912   3.889  20.111  0.00  0.00    +0.000 A 
ATOM     16  C   UNL     1       1.828   4.919  19.917  0.00  0.00    +0.000 A 
ATOM     17 CL   UNL     1       1.645   6.401  20.774  0.00  0.00    +0.000 Cl
ATOM     18  C   UNL     1       2.889   4.764  19.025  0.00  0.00    +0.000 A 
ENDBRANCH  11  12
ENDBRANCH   3  11
TORSDOF 4
ENDMDL
MODEL 5
REMARK VINA RESULT:      -7.0      1.374      1.671
REMARK  Name = 
REMARK  4 active torsions:
REMARK  status: ('A' for Active; 'I' for Inactive)
REMARK    1  A    between atoms: C_2  and  OXT_3
REMARK    2  A    between atoms: C_2  and  CA_4
REMARK    3  A    between atoms: C_6  and  C_7
REMARK    4  A    between atoms: C_7  and  C_8
REMARK                            x       y       z     vdW  Elec       q    Type
REMARK                         _______ _______ _______ _____ _____    ______ ____
ROOT
ATOM      1  CA  UNL     1       6.466   4.220  15.284  0.00  0.00    +0.000 C 
ATOM      2  C   UNL     1       5.333   5.140  15.693  0.00  0.00    +0.000 C 
ATOM      3  C   UNL     1       5.391   5.093  17.217  0.00  0.00    +0.000 C 
ATOM      4  C   UNL     1       6.889   4.919  17.506  0.00  0.00    +0.000 C 
ATOM      5  N   UNL     1       7.554   4.625  16.220  0.00  0.00    +0.000 NA
ATOM      6  H   UNL     1       8.193   3.835  16.351  0.00  0.00    +0.000 HD
ENDROOT
BRANCH   1   8
ATOM      7  O   UNL     1       7.571   5.395  13.459  0.00  0.00    +0.000 OA
ATOM      8  C   UNL     1       6.895   4.452  13.840  0.00  0.00    +0.000 C 
BRANCH   8   9
ATOM      9  OXT UNL     1       6.456   3.463  13.021  0.00  0.00    +0.000 OA
ATOM     10  HXT UNL     1       6.027   2.791  13.606  0.00  0.00    +0.000 HD
ENDBRANCH   8   9
ENDBRANCH   1   8
BRANCH   3  11
ATOM     11  C   UNL     1       4.534   3.929  17.761  0.00  0.00    +0.000 C 
BRANCH  11  12
ATOM     12  C   UNL     1       3.524   4.362  18.795  0.00  0.00    +0.000 A 
ATOM     13  C   UNL     1       3.157   5.709  18.919  0.00  0.00    +0.000 A 
ATOM     14  C   UNL     1       2.263   6.114  19.913  0.00  0.00    +0.000 A 
ATOM     15  C   UNL     1       1.720   5.175  20.786  0.00  0.00    +0.000 A 
ATOM     16  C   UNL     1       2.055   3.831  20.650  0.00  0.00    +0.000 A 
ATOM     17 CL   UNL     1       1.373   2.666  21.719  0.00  0.00    +0.000 Cl
ATOM     18  C   UNL     1       2.946   3.420  19.659  0.00  0.00    +0.000 A 
ENDBRANCH  11  12
ENDBRANCH   3  11
TORSDOF 4
ENDMDL
MODEL 6
REMARK VINA RESULT:      -7.0      2.577      3.344
REMARK  Name = 
REMARK  4 active torsions:
REMARK  status: ('A' for Active; 'I' for Inactive)
REMARK    1  A    between atoms: C_2  and  OXT_3
REMARK    2  A    between atoms: C_2  and  CA_4
REMARK    3  A    between atoms: C_6  and  C_7
REMARK    4  A    between atoms: C_7  and  C_8
REMARK                            x       y       z     vdW  Elec       q    Type
REMARK                         _______ _______ _______ _____ _____    ______ ____
ROOT
ATOM      1  CA  UNL     1       6.838   6.490  17.154  0.00  0.00    +0.000 C 
ATOM      2  C   UNL     1       6.531   5.191  17.870  0.00  0.00    +0.000 C 
ATOM      3  C   UNL     1       6.020   4.296  16.744  0.00  0.00    +0.000 C 
ATOM      4  C   UNL     1       6.823   4.772  15.526  0.00  0.00    +0.000 C 
ATOM      5  N   UNL     1       7.520   6.014  15.916  0.00  0.00    +0.000 NA
ATOM      6  H   UNL     1       7.393   6.711  15.176  0.00  0.00    +0.000 HD
ENDROOT
BRANCH   1   8
ATOM      7  O   UNL     1       7.997   8.556  17.722  0.00  0.00    +0.000 OA
ATOM      8  C   UNL     1       7.772   7.380  17.966  0.00  0.00    +0.000 C 
BRANCH   8   9
ATOM      9  OXT UNL     1       8.311   6.715  19.018  0.00  0.00    +0.000 OA
ATOM     10  HXT UNL     1       7.555   6.283  19.487  0.00  0.00    +0.000 HD
ENDBRANCH   8   9
ENDBRANCH   1   8
BRANCH   3  11
ATOM     11  C   UNL     1       4.495   4.462  16.564  0.00  0.00    +0.000 C 
BRANCH  11  12
ATOM     12  C   UNL     1       3.687   3.766  17.632  0.00  0.00    +0.000 A 
ATOM     13  C   UNL     1       3.681   2.367  17.729  0.00  0.00    +0.000 A 
ATOM     14  C   UNL     1       2.890   1.725  18.684  0.00  0.00    +0.000 A 
ATOM     15  C   UNL     1       2.103   2.473  19.555  0.00  0.00    +0.000 A 
ATOM     16  C   UNL     1       2.127   3.863  19.486  0.00  0.00    +0.000 A 
ATOM     17 CL   UNL     1       1.167   4.792  20.572  0.00  0.00    +0.000 Cl
ATOM     18  C   UNL     1       2.916   4.511  18.536  0.00  0.00    +0.000 A 
ENDBRANCH  11  12
ENDBRANCH   3  11
TORSDOF 4
ENDMDL
MODEL 7
REMARK VINA RESULT:      -7.0      1.637      2.239
REMARK  Name = 
REMARK  4 active torsions:
REMARK  status: ('A' for Active; 'I' for Inactive)
REMARK    1  A    between atoms: C_2  and  OXT_3
REMARK    2  A    between atoms: C_2  and  CA_4
REMARK    3  A    between atoms: C_6  and  C_7
REMARK    4  A    between atoms: C_7  and  C_8
REMARK                            x       y       z     vdW  Elec       q    Type
REMARK                         _______ _______ _______ _____ _____    ______ ____
ROOT
ATOM      1  CA  UNL     1       5.916   4.900  17.156  0.00  0.00    +0.000 C 
ATOM      2  C   UNL     1       5.386   6.319  17.191  0.00  0.00    +0.000 C 
ATOM      3  C   UNL     1       4.392   6.282  18.348  0.00  0.00    +0.000 C 
ATOM      4  C   UNL     1       5.018   5.266  19.315  0.00  0.00    +0.000 C 
ATOM      5  N   UNL     1       6.131   4.608  18.602  0.00  0.00    +0.000 NA
ATOM      6  H   UNL     1       6.067   3.597  18.752  0.00  0.00    +0.000 HD
ENDROOT
BRANCH   1   8
ATOM      7  O   UNL     1       7.437   5.297  15.296  0.00  0.00    +0.000 OA
ATOM      8  C   UNL     1       7.232   4.802  16.393  0.00  0.00    +0.000 C 
BRANCH   8   9
ATOM      9  OXT UNL     1       8.169   4.116  17.094  0.00  0.00    +0.000 OA
ATOM     10  HXT UNL     1       7.672   3.521  17.709  0.00  0.00    +0.000 HD
ENDBRANCH   8   9
ENDBRANCH   1   8
BRANCH   3  11
ATOM     11  C   UNL     1       2.992   5.859  17.852  0.00  0.00    +0.000 C 
BRANCH  11  12
ATOM     12  C   UNL     1       2.587   4.479  18.308  0.00  0.00    +0.000 A 
ATOM     13  C   UNL     1       2.614   3.394  17.421  0.00  0.00    +0.000 A 
ATOM     14  C   UNL     1       2.187   2.129  17.832  0.00  0.00    +0.000 A 
ATOM     15  C   UNL     1       1.736   1.935  19.135  0.00  0.00    +0.000 A 
ATOM     16  C   UNL     1       1.734   3.000  20.031  0.00  0.00    +0.000 A 
ATOM     17 CL   UNL     1       1.191   2.760  21.647  0.00  0.00    +0.000 Cl
ATOM     18  C   UNL     1       2.161   4.265  19.627  0.00  0.00    +0.000 A 
ENDBRANCH  11  12
ENDBRANCH   3  11
TORSDOF 4
ENDMDL
MODEL 8
REMARK VINA RESULT:      -7.0      1.975      2.544
REMARK  Name = 
REMARK  4 active torsions:
REMARK  status: ('A' for Active; 'I' for Inactive)
REMARK    1  A    between atoms: C_2  and  OXT_3
REMARK    2  A    between atoms: C_2  and  CA_4
REMARK    3  A    between atoms: C_6  and  C_7
REMARK    4  A    between atoms: C_7  and  C_8
REMARK                            x       y       z     vdW  Elec       q    Type
REMARK                         _______ _______ _______ _____ _____    ______ ____
ROOT
ATOM      1  CA  UNL     1       6.392   5.912  18.197  0.00  0.00    +0.000 C 
ATOM      2  C   UNL     1       5.287   4.924  17.884  0.00  0.00    +0.000 C 
ATOM      3  C   UNL     1       4.397   5.705  16.921  0.00  0.00    +0.000 C 
ATOM      4  C   UNL     1       5.395   6.588  16.159  0.00  0.00    +0.000 C 
ATOM      5  N   UNL     1       6.695   6.482  16.853  0.00  0.00    +0.000 NA
ATOM      6  H   UNL     1       7.085   7.422  16.969  0.00  0.00    +0.000 HD
ENDROOT
BRANCH   1   8
ATOM      7  O   UNL     1       8.330   4.437  18.158  0.00  0.00    +0.000 OA
ATOM      8  C   UNL     1       7.625   5.224  18.771  0.00  0.00    +0.000 C 
BRANCH   8   9
ATOM      9  OXT UNL     1       7.867   5.611  20.049  0.00  0.00    +0.000 OA
ATOM     10  HXT UNL     1       7.000   5.920  20.412  0.00  0.00    +0.000 HD
ENDBRANCH   8   9
ENDBRANCH   1   8
BRANCH   3  11
ATOM     11  C   UNL     1       3.338   6.520  17.694  0.00  0.00    +0.000 C 
BRANCH  11  12
ATOM     12  C   UNL     1       2.529   5.687  18.659  0.00  0.00    +0.000 A 
ATOM     13  C   UNL     1       2.348   6.102  19.986  0.00  0.00    +0.000 A 
ATOM     14  C   UNL     1       1.644   5.302  20.890  0.00  0.00    +0.000 A 
ATOM     15  C   UNL     1       1.109   4.086  20.475  0.00  0.00    +0.000 A 
ATOM     16  C   UNL     1       1.257   3.682  19.151  0.00  0.00    +0.000 A 
ATOM     17 CL   UNL     1       0.583   2.186  18.632  0.00  0.00    +0.000 Cl
ATOM     18  C   UNL     1       1.957   4.476  18.243  0.00  0.00    +0.000 A 
ENDBRANCH  11  12
ENDBRANCH   3  11
TORSDOF 4
ENDMDL
MODEL 9
REMARK VINA RESULT:      -7.0      2.236      2.956
REMARK  Name = 
REMARK  4 active torsions:
REMARK  status: ('A' for Active; 'I' for Inactive)
REMARK    1  A    between atoms: C_2  and  OXT_3
REMARK    2  A    between atoms: C_2  and  CA_4
REMARK    3  A    between atoms: C_6  and  C_7
REMARK    4  A    between atoms: C_7  and  C_8
REMARK                            x       y       z     vdW  Elec       q    Type
REMARK                         _______ _______ _______ _____ _____    ______ ____
ROOT
ATOM      1  CA  UNL     1       6.476   5.703  18.196  0.00  0.00    +0.000 C 
ATOM      2  C   UNL     1       5.447   4.773  17.588  0.00  0.00    +0.000 C 
ATOM      3  C   UNL     1       4.457   5.738  16.941  0.00  0.00    +0.000 C 
ATOM      4  C   UNL     1       5.347   6.909  16.501  0.00  0.00    +0.000 C 
ATOM      5  N   UNL     1       6.676   6.704  17.110  0.00  0.00    +0.000 NA
ATOM      6  H   UNL     1       6.990   7.588  17.523  0.00  0.00    +0.000 HD
ENDROOT
BRANCH   1   8
ATOM      7  O   UNL     1       8.325   4.180  17.759  0.00  0.00    +0.000 OA
ATOM      8  C   UNL     1       7.784   4.983  18.503  0.00  0.00    +0.000 C 
BRANCH   8   9
ATOM      9  OXT UNL     1       8.298   5.362  19.700  0.00  0.00    +0.000 OA
ATOM     10  HXT UNL     1       8.383   6.347  19.663  0.00  0.00    +0.000 HD
ENDBRANCH   8   9
ENDBRANCH   1   8
BRANCH   3  11
ATOM     11  C   UNL     1       3.364   6.155  17.948  0.00  0.00    +0.000 C 
BRANCH  11  12
ATOM     12  C   UNL     1       2.609   4.986  18.531  0.00  0.00    +0.000 A 
ATOM     13  C   UNL     1       1.757   4.212  17.731  0.00  0.00    +0.000 A 
ATOM     14  C   UNL     1       1.018   3.164  18.286  0.00  0.00    +0.000 A 
ATOM     15  C   UNL     1       1.130   2.875  19.643  0.00  0.00    +0.000 A 
ATOM     16  C   UNL     1       1.997   3.619  20.438  0.00  0.00    +0.000 A 
ATOM     17 CL   UNL     1       2.149   3.254  22.114  0.00  0.00    +0.000 Cl
ATOM     18  C   UNL     1       2.739   4.665  19.891  0.00  0.00    +0.000 A 
ENDBRANCH  11  12
ENDBRANCH   3  11
TORSDOF 4
ENDMDL
