MODEL 1
REMARK VINA RESULT:      -7.6      0.000      0.000
REMARK  Name = 
REMARK  17 active torsions:
REMARK  status: ('A' for Active; 'I' for Inactive)
REMARK    1  A    between atoms: C_1  and  O_2
REMARK    2  A    between atoms: O_2  and  C_3
REMARK    3  A    between atoms: C_5  and  O_6
REMARK    4  A    between atoms: C_9  and  O_10
REMARK    5  A    between atoms: O_10  and  C_11
REMARK    6  A    between atoms: C_13  and  C_14
REMARK    7  A    between atoms: C_14  and  O_15
REMARK    8  A    between atoms: O_15  and  C_16
REMARK    9  A    between atoms: C_16  and  C_18
REMARK   10  A    between atoms: C_20  and  O_21
REMARK   11  A    between atoms: O_21  and  C_22
REMARK   12  A    between atoms: C_23  and  O_24
REMARK   13  A    between atoms: C_25  and  O_26
REMARK   14  A    between atoms: O_26  and  C_27
REMARK   15  A    between atoms: C_29  and  O_30
REMARK   16  A    between atoms: C_31  and  O_32
REMARK   17  A    between atoms: C_33  and  O_34
REMARK                            x       y       z     vdW  Elec       q    Type
REMARK                         _______ _______ _______ _____ _____    ______ ____
ROOT
ATOM      1  C   UNL     1       3.770   3.788  17.899  0.00  0.00    +0.000 C 
ATOM      2  O   UNL     1       3.793   5.218  18.111  0.00  0.00    +0.000 OA
ATOM      3  C   UNL     1       2.609   5.638  18.826  0.00  0.00    +0.000 C 
ATOM      4  C   UNL     1       2.505   4.954  20.209  0.00  0.00    +0.000 C 
ATOM      5  C   UNL     1       2.746   3.437  20.131  0.00  0.00    +0.000 C 
ATOM      6  C   UNL     1       3.945   3.045  19.240  0.00  0.00    +0.000 C 
ENDROOT
BRANCH   4   7
ATOM      7  O   UNL     1       1.204   5.179  20.781  0.00  0.00    +0.000 OA
ATOM      8  H   UNL     1       0.606   5.474  20.071  0.00  0.00    +0.000 HD
ENDBRANCH   4   7
BRANCH   5   9
ATOM      9  O   UNL     1       2.867   2.895  21.455  0.00  0.00    +0.000 OA
ATOM     10  H   UNL     1       2.188   3.305  22.019  0.00  0.00    +0.000 HD
ENDBRANCH   5   9
BRANCH   6  11
ATOM     11  O   UNL     1       3.977   1.617  19.106  0.00  0.00    +0.000 OA
ATOM     12  H   UNL     1       4.384   1.391  18.251  0.00  0.00    +0.000 HD
ENDBRANCH   6  11
BRANCH   1  13
ATOM     13  O   UNL     1       4.463   3.301  16.749  0.00  0.00    +0.000 OA
BRANCH  13  19
ATOM     14  C   UNL     1       6.705   4.369  16.655  0.00  0.00    +0.000 A 
ATOM     15  C   UNL     1       7.656   4.957  15.793  0.00  0.00    +0.000 A 
ATOM     16  C   UNL     1       7.408   5.082  14.429  0.00  0.00    +0.000 A 
ATOM     17  C   UNL     1       6.257   4.557  13.878  0.00  0.00    +0.000 A 
ATOM     18  C   UNL     1       5.335   3.924  14.720  0.00  0.00    +0.000 A 
ATOM     19  C   UNL     1       5.536   3.834  16.111  0.00  0.00    +0.000 A 
BRANCH  14  21
ATOM     20  C   UNL     1       7.502   5.479  18.578  0.00  0.00    +0.000 C 
ATOM     21  O   UNL     1       6.866   4.338  18.013  0.00  0.00    +0.000 OA
ENDBRANCH  14  21
BRANCH  16  22
ATOM     22  O   UNL     1       8.271   5.745  13.608  0.00  0.00    +0.000 OA
ATOM     23  H   UNL     1       9.082   5.220  13.511  0.00  0.00    +0.000 HD
ENDBRANCH  16  22
ENDBRANCH  13  19
ENDBRANCH   1  13
BRANCH   3  24
ATOM     24  C   UNL     1       2.534   7.180  18.969  0.00  0.00    +0.000 C 
BRANCH  24  25
ATOM     25  O   UNL     1       1.430   7.756  18.225  0.00  0.00    +0.000 OA
BRANCH  25  26
ATOM     26  C   UNL     1       1.534   9.087  17.979  0.00  0.00    +0.000 C 
ATOM     27  O   UNL     1       2.428   9.615  17.344  0.00  0.00    +0.000 OA
BRANCH  26  28
ATOM     28  C   UNL     1       0.418   9.874  18.576  0.00  0.00    +0.000 A 
ATOM     29  C   UNL     1      -0.723  10.260  17.855  0.00  0.00    +0.000 A 
ATOM     30  C   UNL     1      -1.688  11.062  18.475  0.00  0.00    +0.000 A 
ATOM     31  C   UNL     1      -1.503  11.454  19.812  0.00  0.00    +0.000 A 
ATOM     32  C   UNL     1      -0.366  11.084  20.537  0.00  0.00    +0.000 A 
ATOM     33  C   UNL     1       0.598  10.303  19.902  0.00  0.00    +0.000 A 
BRANCH  30  34
ATOM     34  O   UNL     1      -2.844  11.536  17.907  0.00  0.00    +0.000 OA
ATOM     35  C   UNL     1      -3.894  10.603  17.687  0.00  0.00    +0.000 C 
ENDBRANCH  30  34
BRANCH  31  36
ATOM     36  O   UNL     1      -2.467  12.225  20.417  0.00  0.00    +0.000 OA
ATOM     37  H   UNL     1      -2.065  12.544  21.246  0.00  0.00    +0.000 HD
ENDBRANCH  31  36
BRANCH  32  38
ATOM     38  O   UNL     1      -0.288  11.534  21.827  0.00  0.00    +0.000 OA
ATOM     39  C   UNL     1      -0.654  10.627  22.858  0.00  0.00    +0.000 C 
ENDBRANCH  32  38
ENDBRANCH  26  28
ENDBRANCH  25  26
ENDBRANCH  24  25
ENDBRANCH   3  24
TORSDOF 14
ENDMDL
MODEL 2
REMARK VINA RESULT:      -7.6      1.779      2.754
REMARK  Name = 
REMARK  17 active torsions:
REMARK  status: ('A' for Active; 'I' for Inactive)
REMARK    1  A    between atoms: C_1  and  O_2
REMARK    2  A    between atoms: O_2  and  C_3
REMARK    3  A    between atoms: C_5  and  O_6
REMARK    4  A    between atoms: C_9  and  O_10
REMARK    5  A    between atoms: O_10  and  C_11
REMARK    6  A    between atoms: C_13  and  C_14
REMARK    7  A    between atoms: C_14  and  O_15
REMARK    8  A    between atoms: O_15  and  C_16
REMARK    9  A    between atoms: C_16  and  C_18
REMARK   10  A    between atoms: C_20  and  O_21
REMARK   11  A    between atoms: O_21  and  C_22
REMARK   12  A    between atoms: C_23  and  O_24
REMARK   13  A    between atoms: C_25  and  O_26
REMARK   14  A    between atoms: O_26  and  C_27
REMARK   15  A    between atoms: C_29  and  O_30
REMARK   16  A    between atoms: C_31  and  O_32
REMARK   17  A    between atoms: C_33  and  O_34
REMARK                            x       y       z     vdW  Elec       q    Type
REMARK                         _______ _______ _______ _____ _____    ______ ____
ROOT
ATOM      1  C   UNL     1       4.216   4.554  19.296  0.00  0.00    +0.000 C 
ATOM      2  O   UNL     1       3.595   5.602  20.076  0.00  0.00    +0.000 OA
ATOM      3  C   UNL     1       2.156   5.488  20.014  0.00  0.00    +0.000 C 
ATOM      4  C   UNL     1       1.667   4.130  20.570  0.00  0.00    +0.000 C 
ATOM      5  C   UNL     1       2.465   2.943  20.001  0.00  0.00    +0.000 C 
ATOM      6  C   UNL     1       3.991   3.183  19.967  0.00  0.00    +0.000 C 
ENDROOT
BRANCH   4   7
ATOM      7  O   UNL     1       0.276   3.933  20.256  0.00  0.00    +0.000 OA
ATOM      8  H   UNL     1       0.174   3.972  19.288  0.00  0.00    +0.000 HD
ENDBRANCH   4   7
BRANCH   5   9
ATOM      9  O   UNL     1       2.130   1.745  20.716  0.00  0.00    +0.000 OA
ATOM     10  H   UNL     1       2.338   1.879  21.657  0.00  0.00    +0.000 HD
ENDBRANCH   5   9
BRANCH   6  11
ATOM     11  O   UNL     1       4.617   2.095  19.274  0.00  0.00    +0.000 OA
ATOM     12  H   UNL     1       4.747   1.359  19.897  0.00  0.00    +0.000 HD
ENDBRANCH   6  11
BRANCH   1  13
ATOM     13  O   UNL     1       5.500   4.845  18.742  0.00  0.00    +0.000 OA
BRANCH  13  19
ATOM     14  C   UNL     1       7.042   5.270  16.840  0.00  0.00    +0.000 A 
ATOM     15  C   UNL     1       7.240   5.056  15.459  0.00  0.00    +0.000 A 
ATOM     16  C   UNL     1       6.303   4.362  14.699  0.00  0.00    +0.000 A 
ATOM     17  C   UNL     1       5.197   3.797  15.300  0.00  0.00    +0.000 A 
ATOM     18  C   UNL     1       5.023   3.960  16.680  0.00  0.00    +0.000 A 
ATOM     19  C   UNL     1       5.927   4.705  17.461  0.00  0.00    +0.000 A 
BRANCH  14  21
ATOM     20  C   UNL     1       7.577   7.439  17.603  0.00  0.00    +0.000 C 
ATOM     21  O   UNL     1       7.882   6.048  17.590  0.00  0.00    +0.000 OA
ENDBRANCH  14  21
BRANCH  16  22
ATOM     22  O   UNL     1       6.432   4.244  13.347  0.00  0.00    +0.000 OA
ATOM     23  H   UNL     1       7.119   3.587  13.150  0.00  0.00    +0.000 HD
ENDBRANCH  16  22
ENDBRANCH  13  19
ENDBRANCH   1  13
BRANCH   3  24
ATOM     24  C   UNL     1       1.448   6.663  20.737  0.00  0.00    +0.000 C 
BRANCH  24  25
ATOM     25  O   UNL     1       1.718   7.944  20.115  0.00  0.00    +0.000 OA
BRANCH  25  26
ATOM     26  C   UNL     1       1.260   9.024  20.798  0.00  0.00    +0.000 C 
ATOM     27  O   UNL     1       1.287   9.152  22.008  0.00  0.00    +0.000 OA
BRANCH  26  28
ATOM     28  C   UNL     1       0.701  10.078  19.905  0.00  0.00    +0.000 A 
ATOM     29  C   UNL     1       1.422  11.217  19.514  0.00  0.00    +0.000 A 
ATOM     30  C   UNL     1       0.793  12.194  18.733  0.00  0.00    +0.000 A 
ATOM     31  C   UNL     1      -0.543  12.009  18.343  0.00  0.00    +0.000 A 
ATOM     32  C   UNL     1      -1.276  10.883  18.734  0.00  0.00    +0.000 A 
ATOM     33  C   UNL     1      -0.645   9.927  19.529  0.00  0.00    +0.000 A 
BRANCH  30  34
ATOM     34  O   UNL     1       1.350  13.367  18.286  0.00  0.00    +0.000 OA
ATOM     35  C   UNL     1       2.768  13.469  18.314  0.00  0.00    +0.000 C 
ENDBRANCH  30  34
BRANCH  31  36
ATOM     36  O   UNL     1      -1.145  12.965  17.558  0.00  0.00    +0.000 OA
ATOM     37  H   UNL     1      -1.095  12.625  16.646  0.00  0.00    +0.000 HD
ENDBRANCH  31  36
BRANCH  32  38
ATOM     38  O   UNL     1      -2.573  10.815  18.303  0.00  0.00    +0.000 OA
ATOM     39  C   UNL     1      -2.877   9.864  17.292  0.00  0.00    +0.000 C 
ENDBRANCH  32  38
ENDBRANCH  26  28
ENDBRANCH  25  26
ENDBRANCH  24  25
ENDBRANCH   3  24
TORSDOF 14
ENDMDL
MODEL 3
REMARK VINA RESULT:      -7.6      2.635     10.777
REMARK  Name = 
REMARK  17 active torsions:
REMARK  status: ('A' for Active; 'I' for Inactive)
REMARK    1  A    between atoms: C_1  and  O_2
REMARK    2  A    between atoms: O_2  and  C_3
REMARK    3  A    between atoms: C_5  and  O_6
REMARK    4  A    between atoms: C_9  and  O_10
REMARK    5  A    between atoms: O_10  and  C_11
REMARK    6  A    between atoms: C_13  and  C_14
REMARK    7  A    between atoms: C_14  and  O_15
REMARK    8  A    between atoms: O_15  and  C_16
REMARK    9  A    between atoms: C_16  and  C_18
REMARK   10  A    between atoms: C_20  and  O_21
REMARK   11  A    between atoms: O_21  and  C_22
REMARK   12  A    between atoms: C_23  and  O_24
REMARK   13  A    between atoms: C_25  and  O_26
REMARK   14  A    between atoms: O_26  and  C_27
REMARK   15  A    between atoms: C_29  and  O_30
REMARK   16  A    between atoms: C_31  and  O_32
REMARK   17  A    between atoms: C_33  and  O_34
REMARK                            x       y       z     vdW  Elec       q    Type
REMARK                         _______ _______ _______ _____ _____    ______ ____
ROOT
ATOM      1  C   UNL     1       0.072  11.761  21.500  0.00  0.00    +0.000 C 
ATOM      2  O   UNL     1       1.025  10.674  21.484  0.00  0.00    +0.000 OA
ATOM      3  C   UNL     1       0.821   9.842  20.320  0.00  0.00    +0.000 C 
ATOM      4  C   UNL     1       0.994  10.644  19.009  0.00  0.00    +0.000 C 
ATOM      5  C   UNL     1       0.226  11.977  19.032  0.00  0.00    +0.000 C 
ATOM      6  C   UNL     1       0.375  12.755  20.359  0.00  0.00    +0.000 C 
ENDROOT
BRANCH   4   7
ATOM      7  O   UNL     1       0.530   9.873  17.887  0.00  0.00    +0.000 OA
ATOM      8  H   UNL     1       0.531  10.448  17.100  0.00  0.00    +0.000 HD
ENDBRANCH   4   7
BRANCH   5   9
ATOM      9  O   UNL     1       0.605  12.776  17.901  0.00  0.00    +0.000 OA
ATOM     10  H   UNL     1       0.998  13.604  18.227  0.00  0.00    +0.000 HD
ENDBRANCH   5   9
BRANCH   6  11
ATOM     11  O   UNL     1      -0.504  13.888  20.335  0.00  0.00    +0.000 OA
ATOM     12  H   UNL     1      -0.893  14.002  21.219  0.00  0.00    +0.000 HD
ENDBRANCH   6  11
BRANCH   1  13
ATOM     13  O   UNL     1      -0.290  12.277  22.781  0.00  0.00    +0.000 OA
BRANCH  13  19
ATOM     14  C   UNL     1      -1.570  14.157  23.781  0.00  0.00    +0.000 A 
ATOM     15  C   UNL     1      -2.861  14.590  24.157  0.00  0.00    +0.000 A 
ATOM     16  C   UNL     1      -3.971  13.769  23.984  0.00  0.00    +0.000 A 
ATOM     17  C   UNL     1      -3.843  12.543  23.362  0.00  0.00    +0.000 A 
ATOM     18  C   UNL     1      -2.574  12.132  22.938  0.00  0.00    +0.000 A 
ATOM     19  C   UNL     1      -1.426  12.920  23.152  0.00  0.00    +0.000 A 
BRANCH  14  21
ATOM     20  C   UNL     1      -0.140  15.905  23.095  0.00  0.00    +0.000 C 
ATOM     21  O   UNL     1      -0.445  14.889  24.046  0.00  0.00    +0.000 OA
ENDBRANCH  14  21
BRANCH  16  22
ATOM     22  O   UNL     1      -5.202  14.134  24.443  0.00  0.00    +0.000 OA
ATOM     23  H   UNL     1      -5.750  14.413  23.692  0.00  0.00    +0.000 HD
ENDBRANCH  16  22
ENDBRANCH  13  19
ENDBRANCH   1  13
BRANCH   3  24
ATOM     24  C   UNL     1       1.743   8.596  20.327  0.00  0.00    +0.000 C 
BRANCH  24  25
ATOM     25  O   UNL     1       1.504   7.720  19.197  0.00  0.00    +0.000 OA
BRANCH  25  26
ATOM     26  C   UNL     1       2.601   7.433  18.449  0.00  0.00    +0.000 C 
ATOM     27  O   UNL     1       3.100   8.175  17.623  0.00  0.00    +0.000 OA
BRANCH  26  28
ATOM     28  C   UNL     1       3.160   6.083  18.737  0.00  0.00    +0.000 A 
ATOM     29  C   UNL     1       2.373   4.996  19.149  0.00  0.00    +0.000 A 
ATOM     30  C   UNL     1       2.992   3.782  19.469  0.00  0.00    +0.000 A 
ATOM     31  C   UNL     1       4.388   3.670  19.360  0.00  0.00    +0.000 A 
ATOM     32  C   UNL     1       5.184   4.749  18.961  0.00  0.00    +0.000 A 
ATOM     33  C   UNL     1       4.558   5.958  18.664  0.00  0.00    +0.000 A 
BRANCH  30  34
ATOM     34  O   UNL     1       2.370   2.637  19.902  0.00  0.00    +0.000 OA
ATOM     35  C   UNL     1       1.457   2.012  19.008  0.00  0.00    +0.000 C 
ENDBRANCH  30  34
BRANCH  31  36
ATOM     36  O   UNL     1       4.983   2.467  19.659  0.00  0.00    +0.000 OA
ATOM     37  H   UNL     1       5.935   2.599  19.496  0.00  0.00    +0.000 HD
ENDBRANCH  31  36
BRANCH  32  38
ATOM     38  O   UNL     1       6.533   4.526  18.902  0.00  0.00    +0.000 OA
ATOM     39  C   UNL     1       7.388   5.649  19.069  0.00  0.00    +0.000 C 
ENDBRANCH  32  38
ENDBRANCH  26  28
ENDBRANCH  25  26
ENDBRANCH  24  25
ENDBRANCH   3  24
TORSDOF 14
ENDMDL
MODEL 4
REMARK VINA RESULT:      -7.5      2.991      9.964
REMARK  Name = 
REMARK  17 active torsions:
REMARK  status: ('A' for Active; 'I' for Inactive)
REMARK    1  A    between atoms: C_1  and  O_2
REMARK    2  A    between atoms: O_2  and  C_3
REMARK    3  A    between atoms: C_5  and  O_6
REMARK    4  A    between atoms: C_9  and  O_10
REMARK    5  A    between atoms: O_10  and  C_11
REMARK    6  A    between atoms: C_13  and  C_14
REMARK    7  A    between atoms: C_14  and  O_15
REMARK    8  A    between atoms: O_15  and  C_16
REMARK    9  A    between atoms: C_16  and  C_18
REMARK   10  A    between atoms: C_20  and  O_21
REMARK   11  A    between atoms: O_21  and  C_22
REMARK   12  A    between atoms: C_23  and  O_24
REMARK   13  A    between atoms: C_25  and  O_26
REMARK   14  A    between atoms: O_26  and  C_27
REMARK   15  A    between atoms: C_29  and  O_30
REMARK   16  A    between atoms: C_31  and  O_32
REMARK   17  A    between atoms: C_33  and  O_34
REMARK                            x       y       z     vdW  Elec       q    Type
REMARK                         _______ _______ _______ _____ _____    ______ ____
ROOT
ATOM      1  C   UNL     1      -0.115  11.964  20.856  0.00  0.00    +0.000 C 
ATOM      2  O   UNL     1       0.027  11.046  19.748  0.00  0.00    +0.000 OA
ATOM      3  C   UNL     1       0.967  10.000  20.081  0.00  0.00    +0.000 C 
ATOM      4  C   UNL     1       0.504   9.188  21.314  0.00  0.00    +0.000 C 
ATOM      5  C   UNL     1       0.059  10.093  22.476  0.00  0.00    +0.000 C 
ATOM      6  C   UNL     1      -0.833  11.274  22.035  0.00  0.00    +0.000 C 
ENDROOT
BRANCH   4   7
ATOM      7  O   UNL     1       1.568   8.339  21.781  0.00  0.00    +0.000 OA
ATOM      8  H   UNL     1       1.452   8.205  22.739  0.00  0.00    +0.000 HD
ENDBRANCH   4   7
BRANCH   5   9
ATOM      9  O   UNL     1      -0.571   9.301  23.494  0.00  0.00    +0.000 OA
ATOM     10  H   UNL     1      -1.233   9.852  23.947  0.00  0.00    +0.000 HD
ENDBRANCH   5   9
BRANCH   6  11
ATOM     11  O   UNL     1      -1.052  12.137  23.159  0.00  0.00    +0.000 OA
ATOM     12  H   UNL     1      -0.703  13.020  22.949  0.00  0.00    +0.000 HD
ENDBRANCH   6  11
BRANCH   1  13
ATOM     13  O   UNL     1      -0.468  13.310  20.531  0.00  0.00    +0.000 OA
BRANCH  13  19
ATOM     14  C   UNL     1       0.755  15.223  21.540  0.00  0.00    +0.000 A 
ATOM     15  C   UNL     1       1.505  16.382  21.247  0.00  0.00    +0.000 A 
ATOM     16  C   UNL     1       1.746  16.768  19.932  0.00  0.00    +0.000 A 
ATOM     17  C   UNL     1       1.325  15.975  18.883  0.00  0.00    +0.000 A 
ATOM     18  C   UNL     1       0.628  14.795  19.169  0.00  0.00    +0.000 A 
ATOM     19  C   UNL     1       0.323  14.412  20.489  0.00  0.00    +0.000 A 
BRANCH  14  21
ATOM     20  C   UNL     1      -0.633  15.673  23.394  0.00  0.00    +0.000 C 
ATOM     21  O   UNL     1       0.400  14.881  22.816  0.00  0.00    +0.000 OA
ENDBRANCH  14  21
BRANCH  16  22
ATOM     22  O   UNL     1       2.375  17.942  19.640  0.00  0.00    +0.000 OA
ATOM     23  H   UNL     1       3.128  18.056  20.242  0.00  0.00    +0.000 HD
ENDBRANCH  16  22
ENDBRANCH  13  19
ENDBRANCH   1  13
BRANCH   3  24
ATOM     24  C   UNL     1       1.241   9.061  18.877  0.00  0.00    +0.000 C 
BRANCH  24  25
ATOM     25  O   UNL     1       2.097   7.944  19.225  0.00  0.00    +0.000 OA
BRANCH  25  26
ATOM     26  C   UNL     1       2.839   7.446  18.203  0.00  0.00    +0.000 C 
ATOM     27  O   UNL     1       2.967   7.968  17.111  0.00  0.00    +0.000 OA
BRANCH  26  28
ATOM     28  C   UNL     1       3.505   6.158  18.546  0.00  0.00    +0.000 A 
ATOM     29  C   UNL     1       4.878   5.930  18.363  0.00  0.00    +0.000 A 
ATOM     30  C   UNL     1       5.407   4.664  18.643  0.00  0.00    +0.000 A 
ATOM     31  C   UNL     1       4.556   3.651  19.116  0.00  0.00    +0.000 A 
ATOM     32  C   UNL     1       3.185   3.863  19.292  0.00  0.00    +0.000 A 
ATOM     33  C   UNL     1       2.666   5.122  18.990  0.00  0.00    +0.000 A 
BRANCH  30  34
ATOM     34  O   UNL     1       6.716   4.276  18.502  0.00  0.00    +0.000 OA
ATOM     35  C   UNL     1       7.363   4.596  17.277  0.00  0.00    +0.000 C 
ENDBRANCH  30  34
BRANCH  31  36
ATOM     36  O   UNL     1       5.090   2.418  19.407  0.00  0.00    +0.000 OA
ATOM     37  H   UNL     1       4.725   1.810  18.738  0.00  0.00    +0.000 HD
ENDBRANCH  31  36
BRANCH  32  38
ATOM     38  O   UNL     1       2.453   2.800  19.746  0.00  0.00    +0.000 OA
ATOM     39  C   UNL     1       1.317   2.415  18.984  0.00  0.00    +0.000 C 
ENDBRANCH  32  38
ENDBRANCH  26  28
ENDBRANCH  25  26
ENDBRANCH  24  25
ENDBRANCH   3  24
TORSDOF 14
ENDMDL
MODEL 5
REMARK VINA RESULT:      -7.5      3.018      9.875
REMARK  Name = 
REMARK  17 active torsions:
REMARK  status: ('A' for Active; 'I' for Inactive)
REMARK    1  A    between atoms: C_1  and  O_2
REMARK    2  A    between atoms: O_2  and  C_3
REMARK    3  A    between atoms: C_5  and  O_6
REMARK    4  A    between atoms: C_9  and  O_10
REMARK    5  A    between atoms: O_10  and  C_11
REMARK    6  A    between atoms: C_13  and  C_14
REMARK    7  A    between atoms: C_14  and  O_15
REMARK    8  A    between atoms: O_15  and  C_16
REMARK    9  A    between atoms: C_16  and  C_18
REMARK   10  A    between atoms: C_20  and  O_21
REMARK   11  A    between atoms: O_21  and  C_22
REMARK   12  A    between atoms: C_23  and  O_24
REMARK   13  A    between atoms: C_25  and  O_26
REMARK   14  A    between atoms: O_26  and  C_27
REMARK   15  A    between atoms: C_29  and  O_30
REMARK   16  A    between atoms: C_31  and  O_32
REMARK   17  A    between atoms: C_33  and  O_34
REMARK                            x       y       z     vdW  Elec       q    Type
REMARK                         _______ _______ _______ _____ _____    ______ ____
ROOT
ATOM      1  C   UNL     1      -0.002  11.945  20.877  0.00  0.00    +0.000 C 
ATOM      2  O   UNL     1       0.122  11.007  19.783  0.00  0.00    +0.000 OA
ATOM      3  C   UNL     1       1.033   9.942  20.134  0.00  0.00    +0.000 C 
ATOM      4  C   UNL     1       0.545   9.160  21.376  0.00  0.00    +0.000 C 
ATOM      5  C   UNL     1       0.118  10.092  22.524  0.00  0.00    +0.000 C 
ATOM      6  C   UNL     1      -0.742  11.289  22.062  0.00  0.00    +0.000 C 
ENDROOT
BRANCH   4   7
ATOM      7  O   UNL     1       1.585   8.291  21.860  0.00  0.00    +0.000 OA
ATOM      8  H   UNL     1       2.440   8.739  21.730  0.00  0.00    +0.000 HD
ENDBRANCH   4   7
BRANCH   5   9
ATOM      9  O   UNL     1      -0.536   9.330  23.550  0.00  0.00    +0.000 OA
ATOM     10  H   UNL     1      -0.359   8.387  23.393  0.00  0.00    +0.000 HD
ENDBRANCH   5   9
BRANCH   6  11
ATOM     11  O   UNL     1      -0.943  12.173  23.173  0.00  0.00    +0.000 OA
ATOM     12  H   UNL     1      -1.898  12.302  23.303  0.00  0.00    +0.000 HD
ENDBRANCH   6  11
BRANCH   1  13
ATOM     13  O   UNL     1      -0.318  13.294  20.531  0.00  0.00    +0.000 OA
BRANCH  13  19
ATOM     14  C   UNL     1       0.869  15.230  21.539  0.00  0.00    +0.000 A 
ATOM     15  C   UNL     1       1.662  16.361  21.249  0.00  0.00    +0.000 A 
ATOM     16  C   UNL     1       2.006  16.680  19.939  0.00  0.00    +0.000 A 
ATOM     17  C   UNL     1       1.645  15.846  18.900  0.00  0.00    +0.000 A 
ATOM     18  C   UNL     1       0.904  14.693  19.187  0.00  0.00    +0.000 A 
ATOM     19  C   UNL     1       0.496  14.379  20.498  0.00  0.00    +0.000 A 
BRANCH  14  21
ATOM     20  C   UNL     1      -0.371  15.980  23.402  0.00  0.00    +0.000 C 
ATOM     21  O   UNL     1       0.415  14.956  22.800  0.00  0.00    +0.000 OA
ENDBRANCH  14  21
BRANCH  16  22
ATOM     22  O   UNL     1       2.678  17.828  19.640  0.00  0.00    +0.000 OA
ATOM     23  H   UNL     1       2.119  18.590  19.862  0.00  0.00    +0.000 HD
ENDBRANCH  16  22
ENDBRANCH  13  19
ENDBRANCH   1  13
BRANCH   3  24
ATOM     24  C   UNL     1       1.288   8.980  18.945  0.00  0.00    +0.000 C 
BRANCH  24  25
ATOM     25  O   UNL     1       2.080   7.826  19.322  0.00  0.00    +0.000 OA
BRANCH  25  26
ATOM     26  C   UNL     1       2.900   7.348  18.351  0.00  0.00    +0.000 C 
ATOM     27  O   UNL     1       3.218   7.951  17.342  0.00  0.00    +0.000 OA
BRANCH  26  28
ATOM     28  C   UNL     1       3.395   5.972  18.637  0.00  0.00    +0.000 A 
ATOM     29  C   UNL     1       2.556   4.923  19.046  0.00  0.00    +0.000 A 
ATOM     30  C   UNL     1       3.116   3.681  19.366  0.00  0.00    +0.000 A 
ATOM     31  C   UNL     1       4.505   3.503  19.257  0.00  0.00    +0.000 A 
ATOM     32  C   UNL     1       5.353   4.543  18.861  0.00  0.00    +0.000 A 
ATOM     33  C   UNL     1       4.785   5.782  18.565  0.00  0.00    +0.000 A 
BRANCH  30  34
ATOM     34  O   UNL     1       2.441   2.566  19.796  0.00  0.00    +0.000 OA
ATOM     35  C   UNL     1       1.330   2.135  19.020  0.00  0.00    +0.000 C 
ENDBRANCH  30  34
BRANCH  31  36
ATOM     36  O   UNL     1       5.043   2.272  19.554  0.00  0.00    +0.000 OA
ATOM     37  H   UNL     1       5.792   2.159  18.941  0.00  0.00    +0.000 HD
ENDBRANCH  31  36
BRANCH  32  38
ATOM     38  O   UNL     1       6.690   4.257  18.802  0.00  0.00    +0.000 OA
ATOM     39  C   UNL     1       7.438   4.844  17.746  0.00  0.00    +0.000 C 
ENDBRANCH  32  38
ENDBRANCH  26  28
ENDBRANCH  25  26
ENDBRANCH  24  25
ENDBRANCH   3  24
TORSDOF 14
ENDMDL
MODEL 6
REMARK VINA RESULT:      -7.5      1.625      2.058
REMARK  Name = 
REMARK  17 active torsions:
REMARK  status: ('A' for Active; 'I' for Inactive)
REMARK    1  A    between atoms: C_1  and  O_2
REMARK    2  A    between atoms: O_2  and  C_3
REMARK    3  A    between atoms: C_5  and  O_6
REMARK    4  A    between atoms: C_9  and  O_10
REMARK    5  A    between atoms: O_10  and  C_11
REMARK    6  A    between atoms: C_13  and  C_14
REMARK    7  A    between atoms: C_14  and  O_15
REMARK    8  A    between atoms: O_15  and  C_16
REMARK    9  A    between atoms: C_16  and  C_18
REMARK   10  A    between atoms: C_20  and  O_21
REMARK   11  A    between atoms: O_21  and  C_22
REMARK   12  A    between atoms: C_23  and  O_24
REMARK   13  A    between atoms: C_25  and  O_26
REMARK   14  A    between atoms: O_26  and  C_27
REMARK   15  A    between atoms: C_29  and  O_30
REMARK   16  A    between atoms: C_31  and  O_32
REMARK   17  A    between atoms: C_33  and  O_34
REMARK                            x       y       z     vdW  Elec       q    Type
REMARK                         _______ _______ _______ _____ _____    ______ ____
ROOT
ATOM      1  C   UNL     1       4.187   4.971  19.391  0.00  0.00    +0.000 C 
ATOM      2  O   UNL     1       3.438   5.984  20.101  0.00  0.00    +0.000 OA
ATOM      3  C   UNL     1       2.030   5.660  20.101  0.00  0.00    +0.000 C 
ATOM      4  C   UNL     1       1.757   4.300  20.786  0.00  0.00    +0.000 C 
ATOM      5  C   UNL     1       2.706   3.195  20.291  0.00  0.00    +0.000 C 
ATOM      6  C   UNL     1       4.179   3.646  20.182  0.00  0.00    +0.000 C 
ENDROOT
BRANCH   4   7
ATOM      7  O   UNL     1       0.403   3.879  20.541  0.00  0.00    +0.000 OA
ATOM      8  H   UNL     1       0.179   3.183  21.184  0.00  0.00    +0.000 HD
ENDBRANCH   4   7
BRANCH   5   9
ATOM      9  O   UNL     1       2.566   2.028  21.116  0.00  0.00    +0.000 OA
ATOM     10  H   UNL     1       2.879   1.257  20.613  0.00  0.00    +0.000 HD
ENDBRANCH   5   9
BRANCH   6  11
ATOM     11  O   UNL     1       4.941   2.602  19.561  0.00  0.00    +0.000 OA
ATOM     12  H   UNL     1       4.438   2.253  18.806  0.00  0.00    +0.000 HD
ENDBRANCH   6  11
BRANCH   1  13
ATOM     13  O   UNL     1       5.402   5.392  18.768  0.00  0.00    +0.000 OA
BRANCH  13  19
ATOM     14  C   UNL     1       7.037   5.542  16.904  0.00  0.00    +0.000 A 
ATOM     15  C   UNL     1       7.277   5.175  15.562  0.00  0.00    +0.000 A 
ATOM     16  C   UNL     1       6.336   4.452  14.836  0.00  0.00    +0.000 A 
ATOM     17  C   UNL     1       5.178   4.007  15.442  0.00  0.00    +0.000 A 
ATOM     18  C   UNL     1       4.960   4.321  16.789  0.00  0.00    +0.000 A 
ATOM     19  C   UNL     1       5.871   5.099  17.529  0.00  0.00    +0.000 A 
BRANCH  14  21
ATOM     20  C   UNL     1       7.631   7.748  17.495  0.00  0.00    +0.000 C 
ATOM     21  O   UNL     1       7.887   6.351  17.606  0.00  0.00    +0.000 OA
ENDBRANCH  14  21
BRANCH  16  22
ATOM     22  O   UNL     1       6.511   4.187  13.510  0.00  0.00    +0.000 OA
ATOM     23  H   UNL     1       6.418   3.233  13.362  0.00  0.00    +0.000 HD
ENDBRANCH  16  22
ENDBRANCH  13  19
ENDBRANCH   1  13
BRANCH   3  24
ATOM     24  C   UNL     1       1.176   6.781  20.748  0.00  0.00    +0.000 C 
BRANCH  24  25
ATOM     25  O   UNL     1       1.694   8.106  20.471  0.00  0.00    +0.000 OA
BRANCH  25  26
ATOM     26  C   UNL     1       1.311   9.069  21.349  0.00  0.00    +0.000 C 
ATOM     27  O   UNL     1       1.756   9.210  22.473  0.00  0.00    +0.000 OA
BRANCH  26  28
ATOM     28  C   UNL     1       0.260   9.970  20.797  0.00  0.00    +0.000 A 
ATOM     29  C   UNL     1      -0.108   9.982  19.442  0.00  0.00    +0.000 A 
ATOM     30  C   UNL     1      -1.053  10.913  18.996  0.00  0.00    +0.000 A 
ATOM     31  C   UNL     1      -1.626  11.808  19.915  0.00  0.00    +0.000 A 
ATOM     32  C   UNL     1      -1.260  11.812  21.265  0.00  0.00    +0.000 A 
ATOM     33  C   UNL     1      -0.303  10.894  21.694  0.00  0.00    +0.000 A 
BRANCH  30  34
ATOM     34  O   UNL     1      -1.505  11.067  17.709  0.00  0.00    +0.000 OA
ATOM     35  C   UNL     1      -1.895   9.892  17.009  0.00  0.00    +0.000 C 
ENDBRANCH  30  34
BRANCH  31  36
ATOM     36  O   UNL     1      -2.568  12.705  19.470  0.00  0.00    +0.000 OA
ATOM     37  H   UNL     1      -2.977  12.290  18.688  0.00  0.00    +0.000 HD
ENDBRANCH  31  36
BRANCH  32  38
ATOM     38  O   UNL     1      -1.876  12.736  22.065  0.00  0.00    +0.000 OA
ATOM     39  C   UNL     1      -2.806  12.253  23.025  0.00  0.00    +0.000 C 
ENDBRANCH  32  38
ENDBRANCH  26  28
ENDBRANCH  25  26
ENDBRANCH  24  25
ENDBRANCH   3  24
TORSDOF 14
ENDMDL
MODEL 7
REMARK VINA RESULT:      -7.5      1.550      2.488
REMARK  Name = 
REMARK  17 active torsions:
REMARK  status: ('A' for Active; 'I' for Inactive)
REMARK    1  A    between atoms: C_1  and  O_2
REMARK    2  A    between atoms: O_2  and  C_3
REMARK    3  A    between atoms: C_5  and  O_6
REMARK    4  A    between atoms: C_9  and  O_10
REMARK    5  A    between atoms: O_10  and  C_11
REMARK    6  A    between atoms: C_13  and  C_14
REMARK    7  A    between atoms: C_14  and  O_15
REMARK    8  A    between atoms: O_15  and  C_16
REMARK    9  A    between atoms: C_16  and  C_18
REMARK   10  A    between atoms: C_20  and  O_21
REMARK   11  A    between atoms: O_21  and  C_22
REMARK   12  A    between atoms: C_23  and  O_24
REMARK   13  A    between atoms: C_25  and  O_26
REMARK   14  A    between atoms: O_26  and  C_27
REMARK   15  A    between atoms: C_29  and  O_30
REMARK   16  A    between atoms: C_31  and  O_32
REMARK   17  A    between atoms: C_33  and  O_34
REMARK                            x       y       z     vdW  Elec       q    Type
REMARK                         _______ _______ _______ _____ _____    ______ ____
ROOT
ATOM      1  C   UNL     1       3.634   3.996  18.296  0.00  0.00    +0.000 C 
ATOM      2  O   UNL     1       3.788   5.429  18.416  0.00  0.00    +0.000 OA
ATOM      3  C   UNL     1       2.603   6.014  19.000  0.00  0.00    +0.000 C 
ATOM      4  C   UNL     1       2.323   5.447  20.411  0.00  0.00    +0.000 C 
ATOM      5  C   UNL     1       2.410   3.911  20.453  0.00  0.00    +0.000 C 
ATOM      6  C   UNL     1       3.627   3.339  19.693  0.00  0.00    +0.000 C 
ENDROOT
BRANCH   4   7
ATOM      7  O   UNL     1       1.012   5.839  20.856  0.00  0.00    +0.000 OA
ATOM      8  H   UNL     1       0.718   6.592  20.312  0.00  0.00    +0.000 HD
ENDBRANCH   4   7
BRANCH   5   9
ATOM      9  O   UNL     1       2.372   3.459  21.815  0.00  0.00    +0.000 OA
ATOM     10  H   UNL     1       3.198   3.730  22.251  0.00  0.00    +0.000 HD
ENDBRANCH   5   9
BRANCH   6  11
ATOM     11  O   UNL     1       3.521   1.910  19.655  0.00  0.00    +0.000 OA
ATOM     12  H   UNL     1       2.582   1.665  19.599  0.00  0.00    +0.000 HD
ENDBRANCH   6  11
BRANCH   1  13
ATOM     13  O   UNL     1       4.359   3.360  17.242  0.00  0.00    +0.000 OA
BRANCH  13  19
ATOM     14  C   UNL     1       6.598   4.395  16.935  0.00  0.00    +0.000 A 
ATOM     15  C   UNL     1       7.491   4.923  15.978  0.00  0.00    +0.000 A 
ATOM     16  C   UNL     1       7.149   4.977  14.630  0.00  0.00    +0.000 A 
ATOM     17  C   UNL     1       5.958   4.436  14.190  0.00  0.00    +0.000 A 
ATOM     18  C   UNL     1       5.092   3.861  15.127  0.00  0.00    +0.000 A 
ATOM     19  C   UNL     1       5.389   3.845  16.504  0.00  0.00    +0.000 A 
BRANCH  14  21
ATOM     20  C   UNL     1       7.617   5.553  18.720  0.00  0.00    +0.000 C 
ATOM     21  O   UNL     1       6.853   4.435  18.278  0.00  0.00    +0.000 OA
ENDBRANCH  14  21
BRANCH  16  22
ATOM     22  O   UNL     1       7.959   5.584  13.716  0.00  0.00    +0.000 OA
ATOM     23  H   UNL     1       8.243   4.928  13.060  0.00  0.00    +0.000 HD
ENDBRANCH  16  22
ENDBRANCH  13  19
ENDBRANCH   1  13
BRANCH   3  24
ATOM     24  C   UNL     1       2.677   7.563  19.035  0.00  0.00    +0.000 C 
BRANCH  24  25
ATOM     25  O   UNL     1       1.370   8.185  18.961  0.00  0.00    +0.000 OA
BRANCH  25  26
ATOM     26  C   UNL     1       1.105   9.087  19.941  0.00  0.00    +0.000 C 
ATOM     27  O   UNL     1       1.222   8.880  21.134  0.00  0.00    +0.000 OA
BRANCH  26  28
ATOM     28  C   UNL     1       0.641  10.399  19.408  0.00  0.00    +0.000 A 
ATOM     29  C   UNL     1       1.456  11.541  19.359  0.00  0.00    +0.000 A 
ATOM     30  C   UNL     1       0.914  12.752  18.911  0.00  0.00    +0.000 A 
ATOM     31  C   UNL     1      -0.430  12.798  18.507  0.00  0.00    +0.000 A 
ATOM     32  C   UNL     1      -1.255  11.669  18.561  0.00  0.00    +0.000 A 
ATOM     33  C   UNL     1      -0.710  10.474  19.028  0.00  0.00    +0.000 A 
BRANCH  30  34
ATOM     34  O   UNL     1       1.568  13.956  18.820  0.00  0.00    +0.000 OA
ATOM     35  C   UNL     1       2.054  14.528  20.028  0.00  0.00    +0.000 C 
ENDBRANCH  30  34
BRANCH  31  36
ATOM     36  O   UNL     1      -0.946  13.988  18.050  0.00  0.00    +0.000 OA
ATOM     37  H   UNL     1      -0.286  14.666  18.283  0.00  0.00    +0.000 HD
ENDBRANCH  31  36
BRANCH  32  38
ATOM     38  O   UNL     1      -2.550  11.836  18.152  0.00  0.00    +0.000 OA
ATOM     39  C   UNL     1      -2.946  11.184  16.954  0.00  0.00    +0.000 C 
ENDBRANCH  32  38
ENDBRANCH  26  28
ENDBRANCH  25  26
ENDBRANCH  24  25
ENDBRANCH   3  24
TORSDOF 14
ENDMDL
MODEL 8
REMARK VINA RESULT:      -7.5      2.965      6.128
REMARK  Name = 
REMARK  17 active torsions:
REMARK  status: ('A' for Active; 'I' for Inactive)
REMARK    1  A    between atoms: C_1  and  O_2
REMARK    2  A    between atoms: O_2  and  C_3
REMARK    3  A    between atoms: C_5  and  O_6
REMARK    4  A    between atoms: C_9  and  O_10
REMARK    5  A    between atoms: O_10  and  C_11
REMARK    6  A    between atoms: C_13  and  C_14
REMARK    7  A    between atoms: C_14  and  O_15
REMARK    8  A    between atoms: O_15  and  C_16
REMARK    9  A    between atoms: C_16  and  C_18
REMARK   10  A    between atoms: C_20  and  O_21
REMARK   11  A    between atoms: O_21  and  C_22
REMARK   12  A    between atoms: C_23  and  O_24
REMARK   13  A    between atoms: C_25  and  O_26
REMARK   14  A    between atoms: O_26  and  C_27
REMARK   15  A    between atoms: C_29  and  O_30
REMARK   16  A    between atoms: C_31  and  O_32
REMARK   17  A    between atoms: C_33  and  O_34
REMARK                            x       y       z     vdW  Elec       q    Type
REMARK                         _______ _______ _______ _____ _____    ______ ____
ROOT
ATOM      1  C   UNL     1       2.312   7.469  19.794  0.00  0.00    +0.000 C 
ATOM      2  O   UNL     1       1.097   7.789  20.511  0.00  0.00    +0.000 OA
ATOM      3  C   UNL     1       1.020   9.210  20.759  0.00  0.00    +0.000 C 
ATOM      4  C   UNL     1       1.022  10.021  19.442  0.00  0.00    +0.000 C 
ATOM      5  C   UNL     1       2.126   9.561  18.474  0.00  0.00    +0.000 C 
ATOM      6  C   UNL     1       2.248   8.026  18.356  0.00  0.00    +0.000 C 
ENDROOT
BRANCH   4   7
ATOM      7  O   UNL     1       1.212  11.420  19.716  0.00  0.00    +0.000 OA
ATOM      8  H   UNL     1       2.144  11.641  19.538  0.00  0.00    +0.000 HD
ENDBRANCH   4   7
BRANCH   5   9
ATOM      9  O   UNL     1       1.937  10.180  17.192  0.00  0.00    +0.000 OA
ATOM     10  H   UNL     1       1.311  10.917  17.296  0.00  0.00    +0.000 HD
ENDBRANCH   5   9
BRANCH   6  11
ATOM     11  O   UNL     1       3.401   7.710  17.566  0.00  0.00    +0.000 OA
ATOM     12  H   UNL     1       3.395   6.757  17.367  0.00  0.00    +0.000 HD
ENDBRANCH   6  11
BRANCH   1  13
ATOM     13  O   UNL     1       2.851   6.162  20.001  0.00  0.00    +0.000 OA
BRANCH  13  19
ATOM     14  C   UNL     1       2.773   4.332  18.322  0.00  0.00    +0.000 A 
ATOM     15  C   UNL     1       2.118   3.132  17.969  0.00  0.00    +0.000 A 
ATOM     16  C   UNL     1       1.074   2.630  18.740  0.00  0.00    +0.000 A 
ATOM     17  C   UNL     1       0.713   3.254  19.917  0.00  0.00    +0.000 A 
ATOM     18  C   UNL     1       1.396   4.414  20.301  0.00  0.00    +0.000 A 
ATOM     19  C   UNL     1       2.417   4.974  19.509  0.00  0.00    +0.000 A 
BRANCH  14  21
ATOM     20  C   UNL     1       4.441   4.020  16.683  0.00  0.00    +0.000 C 
ATOM     21  O   UNL     1       3.719   4.914  17.524  0.00  0.00    +0.000 OA
ENDBRANCH  14  21
BRANCH  16  22
ATOM     22  O   UNL     1       0.365   1.533  18.349  0.00  0.00    +0.000 OA
ATOM     23  H   UNL     1       0.290   0.921  19.098  0.00  0.00    +0.000 HD
ENDBRANCH  16  22
ENDBRANCH  13  19
ENDBRANCH   1  13
BRANCH   3  24
ATOM     24  C   UNL     1      -0.207   9.582  21.631  0.00  0.00    +0.000 C 
BRANCH  24  25
ATOM     25  O   UNL     1      -0.199  10.973  22.041  0.00  0.00    +0.000 OA
BRANCH  25  26
ATOM     26  C   UNL     1      -1.234  11.717  21.574  0.00  0.00    +0.000 C 
ATOM     27  O   UNL     1      -1.662  11.687  20.435  0.00  0.00    +0.000 OA
BRANCH  26  28
ATOM     28  C   UNL     1      -1.822  12.607  22.615  0.00  0.00    +0.000 A 
ATOM     29  C   UNL     1      -1.166  13.742  23.116  0.00  0.00    +0.000 A 
ATOM     30  C   UNL     1      -1.760  14.479  24.147  0.00  0.00    +0.000 A 
ATOM     31  C   UNL     1      -3.008  14.077  24.651  0.00  0.00    +0.000 A 
ATOM     32  C   UNL     1      -3.667  12.942  24.167  0.00  0.00    +0.000 A 
ATOM     33  C   UNL     1      -3.056  12.204  23.154  0.00  0.00    +0.000 A 
BRANCH  30  34
ATOM     34  O   UNL     1      -1.244  15.597  24.755  0.00  0.00    +0.000 OA
ATOM     35  C   UNL     1      -0.340  16.393  23.999  0.00  0.00    +0.000 C 
ENDBRANCH  30  34
BRANCH  31  36
ATOM     36  O   UNL     1      -3.592  14.820  25.650  0.00  0.00    +0.000 OA
ATOM     37  H   UNL     1      -3.109  15.667  25.662  0.00  0.00    +0.000 HD
ENDBRANCH  31  36
BRANCH  32  38
ATOM     38  O   UNL     1      -4.872  12.640  24.742  0.00  0.00    +0.000 OA
ATOM     39  C   UNL     1      -6.040  12.863  23.965  0.00  0.00    +0.000 C 
ENDBRANCH  32  38
ENDBRANCH  26  28
ENDBRANCH  25  26
ENDBRANCH  24  25
ENDBRANCH   3  24
TORSDOF 14
ENDMDL
MODEL 9
REMARK VINA RESULT:      -7.4      1.266      1.454
REMARK  Name = 
REMARK  17 active torsions:
REMARK  status: ('A' for Active; 'I' for Inactive)
REMARK    1  A    between atoms: C_1  and  O_2
REMARK    2  A    between atoms: O_2  and  C_3
REMARK    3  A    between atoms: C_5  and  O_6
REMARK    4  A    between atoms: C_9  and  O_10
REMARK    5  A    between atoms: O_10  and  C_11
REMARK    6  A    between atoms: C_13  and  C_14
REMARK    7  A    between atoms: C_14  and  O_15
REMARK    8  A    between atoms: O_15  and  C_16
REMARK    9  A    between atoms: C_16  and  C_18
REMARK   10  A    between atoms: C_20  and  O_21
REMARK   11  A    between atoms: O_21  and  C_22
REMARK   12  A    between atoms: C_23  and  O_24
REMARK   13  A    between atoms: C_25  and  O_26
REMARK   14  A    between atoms: O_26  and  C_27
REMARK   15  A    between atoms: C_29  and  O_30
REMARK   16  A    between atoms: C_31  and  O_32
REMARK   17  A    between atoms: C_33  and  O_34
REMARK                            x       y       z     vdW  Elec       q    Type
REMARK                         _______ _______ _______ _____ _____    ______ ____
ROOT
ATOM      1  C   UNL     1       4.353   4.205  19.313  0.00  0.00    +0.000 C 
ATOM      2  O   UNL     1       3.718   5.310  19.997  0.00  0.00    +0.000 OA
ATOM      3  C   UNL     1       2.290   5.283  19.776  0.00  0.00    +0.000 C 
ATOM      4  C   UNL     1       1.656   3.973  20.299  0.00  0.00    +0.000 C 
ATOM      5  C   UNL     1       2.434   2.725  19.847  0.00  0.00    +0.000 C 
ATOM      6  C   UNL     1       3.967   2.869  19.981  0.00  0.00    +0.000 C 
ENDROOT
BRANCH   4   7
ATOM      7  O   UNL     1       0.299   3.855  19.835  0.00  0.00    +0.000 OA
ATOM      8  H   UNL     1      -0.296   4.086  20.571  0.00  0.00    +0.000 HD
ENDBRANCH   4   7
BRANCH   5   9
ATOM      9  O   UNL     1       1.945   1.569  20.544  0.00  0.00    +0.000 OA
ATOM     10  H   UNL     1       2.691   1.151  21.007  0.00  0.00    +0.000 HD
ENDBRANCH   5   9
BRANCH   6  11
ATOM     11  O   UNL     1       4.595   1.726  19.385  0.00  0.00    +0.000 OA
ATOM     12  H   UNL     1       4.095   1.472  18.590  0.00  0.00    +0.000 HD
ENDBRANCH   6  11
BRANCH   1  13
ATOM     13  O   UNL     1       5.707   4.401  18.902  0.00  0.00    +0.000 OA
BRANCH  13  19
ATOM     14  C   UNL     1       7.131   5.579  17.241  0.00  0.00    +0.000 A 
ATOM     15  C   UNL     1       7.422   5.698  15.864  0.00  0.00    +0.000 A 
ATOM     16  C   UNL     1       6.733   4.946  14.918  0.00  0.00    +0.000 A 
ATOM     17  C   UNL     1       5.805   4.005  15.315  0.00  0.00    +0.000 A 
ATOM     18  C   UNL     1       5.552   3.844  16.682  0.00  0.00    +0.000 A 
ATOM     19  C   UNL     1       6.195   4.631  17.656  0.00  0.00    +0.000 A 
BRANCH  14  21
ATOM     20  C   UNL     1       7.824   7.759  17.822  0.00  0.00    +0.000 C 
ATOM     21  O   UNL     1       7.704   6.387  18.185  0.00  0.00    +0.000 OA
ENDBRANCH  14  21
BRANCH  16  22
ATOM     22  O   UNL     1       6.930   5.133  13.582  0.00  0.00    +0.000 OA
ATOM     23  H   UNL     1       7.527   5.888  13.452  0.00  0.00    +0.000 HD
ENDBRANCH  16  22
ENDBRANCH  13  19
ENDBRANCH   1  13
BRANCH   3  24
ATOM     24  C   UNL     1       1.583   6.519  20.391  0.00  0.00    +0.000 C 
BRANCH  24  25
ATOM     25  O   UNL     1       2.242   7.765  20.049  0.00  0.00    +0.000 OA
BRANCH  25  26
ATOM     26  C   UNL     1       1.753   8.392  18.949  0.00  0.00    +0.000 C 
ATOM     27  O   UNL     1       2.035   8.111  17.799  0.00  0.00    +0.000 OA
BRANCH  26  28
ATOM     28  C   UNL     1       0.808   9.494  19.283  0.00  0.00    +0.000 A 
ATOM     29  C   UNL     1       0.032  10.161  18.322  0.00  0.00    +0.000 A 
ATOM     30  C   UNL     1      -0.775  11.235  18.715  0.00  0.00    +0.000 A 
ATOM     31  C   UNL     1      -0.804  11.616  20.067  0.00  0.00    +0.000 A 
ATOM     32  C   UNL     1      -0.028  10.966  21.033  0.00  0.00    +0.000 A 
ATOM     33  C   UNL     1       0.787   9.911  20.625  0.00  0.00    +0.000 A 
BRANCH  30  34
ATOM     34  O   UNL     1      -1.575  11.997  17.901  0.00  0.00    +0.000 OA
ATOM     35  C   UNL     1      -2.817  11.437  17.495  0.00  0.00    +0.000 C 
ENDBRANCH  30  34
BRANCH  31  36
ATOM     36  O   UNL     1      -1.616  12.660  20.446  0.00  0.00    +0.000 OA
ATOM     37  H   UNL     1      -1.487  13.350  19.769  0.00  0.00    +0.000 HD
ENDBRANCH  31  36
BRANCH  32  38
ATOM     38  O   UNL     1      -0.129  11.432  22.316  0.00  0.00    +0.000 OA
ATOM     39  C   UNL     1      -0.973  10.716  23.206  0.00  0.00    +0.000 C 
ENDBRANCH  32  38
ENDBRANCH  26  28
ENDBRANCH  25  26
ENDBRANCH  24  25
ENDBRANCH   3  24
TORSDOF 14
ENDMDL
