MODEL 1
REMARK VINA RESULT:      -7.6      0.000      0.000
REMARK  Name = 
REMARK  4 active torsions:
REMARK  status: ('A' for Active; 'I' for Inactive)
REMARK    1  A    between atoms: N_2  and  C_4
REMARK    2  A    between atoms: C_6  and  N_7
REMARK    3  A    between atoms: C_10  and  N_11
REMARK    4  A    between atoms: C_21  and  C_22
REMARK                            x       y       z     vdW  Elec       q    Type
REMARK                         _______ _______ _______ _____ _____    ______ ____
ROOT
ATOM      1  C   UNL     1       1.233   7.713  20.959  0.00  0.00    +0.000 A 
ATOM      2  C   UNL     1       1.814   8.178  19.800  0.00  0.00    +0.000 A 
ATOM      3  C   UNL     1       2.564   7.288  19.002  0.00  0.00    +0.000 A 
ATOM      4  C   UNL     1       2.776   5.902  19.294  0.00  0.00    +0.000 A 
ATOM      5  C   UNL     1       2.108   5.456  20.474  0.00  0.00    +0.000 A 
ATOM      6  C   UNL     1       1.381   6.372  21.302  0.00  0.00    +0.000 A 
ENDROOT
BRANCH   4   7
ATOM      7  N   UNL     1       3.524   5.030  18.494  0.00  0.00    +0.000 N 
ATOM      8  C   UNL     1       2.954   4.456  17.246  0.00  0.00    +0.000 C 
ATOM      9  C   UNL     1       3.789   3.279  16.731  0.00  0.00    +0.000 C 
ATOM     10  C   UNL     1       5.110   3.880  16.330  0.00  0.00    +0.000 A 
ATOM     11  C   UNL     1       5.681   3.652  15.078  0.00  0.00    +0.000 A 
ATOM     12  C   UNL     1       6.797   4.389  14.692  0.00  0.00    +0.000 A 
ATOM     13  C   UNL     1       7.358   5.325  15.565  0.00  0.00    +0.000 A 
ATOM     14  C   UNL     1       6.815   5.523  16.838  0.00  0.00    +0.000 A 
ATOM     15  C   UNL     1       5.674   4.815  17.223  0.00  0.00    +0.000 A 
ATOM     16  C   UNL     1       5.015   4.996  18.580  0.00  0.00    +0.000 C 
ENDBRANCH   4   7
BRANCH   5  17
ATOM     17  C   UNL     1       1.984   4.023  20.970  0.00  0.00    +0.000 C 
ATOM     18  F   UNL     1       2.710   3.075  20.336  0.00  0.00    +0.000 F 
ATOM     19  F   UNL     1       2.308   3.927  22.293  0.00  0.00    +0.000 F 
ATOM     20  F   UNL     1       0.693   3.584  20.887  0.00  0.00    +0.000 F 
ENDBRANCH   5  17
BRANCH   1  22
ATOM     21  O   UNL     1      -0.740   8.315  22.007  0.00  0.00    +0.000 OA
ATOM     22  N   UNL     1       0.446   8.615  21.811  0.00  0.00    +0.000 N 
ATOM     23  O   UNL     1       1.012   9.612  22.274  0.00  0.00    +0.000 OA
ENDBRANCH   1  22
BRANCH   3  24
ATOM     24  N   UNL     1       3.126   7.946  17.840  0.00  0.00    +0.000 N 
ATOM     25  O   UNL     1       2.346   8.626  17.156  0.00  0.00    +0.000 OA
ATOM     26  O   UNL     1       4.347   7.851  17.671  0.00  0.00    +0.000 OA
ENDBRANCH   3  24
TORSDOF 4
ENDMDL
MODEL 2
REMARK VINA RESULT:      -7.0      2.692      3.385
REMARK  Name = 
REMARK  4 active torsions:
REMARK  status: ('A' for Active; 'I' for Inactive)
REMARK    1  A    between atoms: N_2  and  C_4
REMARK    2  A    between atoms: C_6  and  N_7
REMARK    3  A    between atoms: C_10  and  N_11
REMARK    4  A    between atoms: C_21  and  C_22
REMARK                            x       y       z     vdW  Elec       q    Type
REMARK                         _______ _______ _______ _____ _____    ______ ____
ROOT
ATOM      1  C   UNL     1       0.976   7.865  20.862  0.00  0.00    +0.000 A 
ATOM      2  C   UNL     1       1.072   6.552  21.266  0.00  0.00    +0.000 A 
ATOM      3  C   UNL     1       1.842   5.652  20.501  0.00  0.00    +0.000 A 
ATOM      4  C   UNL     1       2.562   5.992  19.310  0.00  0.00    +0.000 A 
ATOM      5  C   UNL     1       2.478   7.374  18.965  0.00  0.00    +0.000 A 
ATOM      6  C   UNL     1       1.663   8.276  19.722  0.00  0.00    +0.000 A 
ENDROOT
BRANCH   4   7
ATOM      7  N   UNL     1       3.322   5.087  18.559  0.00  0.00    +0.000 N 
ATOM      8  C   UNL     1       2.767   4.456  17.331  0.00  0.00    +0.000 C 
ATOM      9  C   UNL     1       3.610   3.259  16.879  0.00  0.00    +0.000 C 
ATOM     10  C   UNL     1       4.935   3.845  16.468  0.00  0.00    +0.000 A 
ATOM     11  C   UNL     1       5.522   3.561  15.235  0.00  0.00    +0.000 A 
ATOM     12  C   UNL     1       6.641   4.283  14.830  0.00  0.00    +0.000 A 
ATOM     13  C   UNL     1       7.190   5.258  15.666  0.00  0.00    +0.000 A 
ATOM     14  C   UNL     1       6.632   5.511  16.922  0.00  0.00    +0.000 A 
ATOM     15  C   UNL     1       5.487   4.819  17.325  0.00  0.00    +0.000 A 
ATOM     16  C   UNL     1       4.812   5.059  18.664  0.00  0.00    +0.000 C 
ENDBRANCH   4   7
BRANCH   5  17
ATOM     17  C   UNL     1       3.254   8.094  17.872  0.00  0.00    +0.000 C 
ATOM     18  F   UNL     1       4.604   8.046  17.926  0.00  0.00    +0.000 F 
ATOM     19  F   UNL     1       2.908   7.635  16.633  0.00  0.00    +0.000 F 
ATOM     20  F   UNL     1       2.956   9.427  17.854  0.00  0.00    +0.000 F 
ENDBRANCH   5  17
BRANCH   1  22
ATOM     21  O   UNL     1       0.589   9.997  21.674  0.00  0.00    +0.000 OA
ATOM     22  N   UNL     1       0.182   8.827  21.637  0.00  0.00    +0.000 N 
ATOM     23  O   UNL     1      -0.836   8.412  22.204  0.00  0.00    +0.000 OA
ENDBRANCH   1  22
BRANCH   3  24
ATOM     24  N   UNL     1       1.810   4.311  21.049  0.00  0.00    +0.000 N 
ATOM     25  O   UNL     1       2.593   4.074  21.981  0.00  0.00    +0.000 OA
ATOM     26  O   UNL     1       0.951   3.539  20.607  0.00  0.00    +0.000 OA
ENDBRANCH   3  24
TORSDOF 4
ENDMDL
MODEL 3
REMARK VINA RESULT:      -6.7      5.318      7.639
REMARK  Name = 
REMARK  4 active torsions:
REMARK  status: ('A' for Active; 'I' for Inactive)
REMARK    1  A    between atoms: N_2  and  C_4
REMARK    2  A    between atoms: C_6  and  N_7
REMARK    3  A    between atoms: C_10  and  N_11
REMARK    4  A    between atoms: C_21  and  C_22
REMARK                            x       y       z     vdW  Elec       q    Type
REMARK                         _______ _______ _______ _____ _____    ______ ____
ROOT
ATOM      1  C   UNL     1      -3.899  13.157  20.255  0.00  0.00    +0.000 A 
ATOM      2  C   UNL     1      -3.028  13.317  21.310  0.00  0.00    +0.000 A 
ATOM      3  C   UNL     1      -1.882  12.498  21.386  0.00  0.00    +0.000 A 
ATOM      4  C   UNL     1      -1.528  11.489  20.433  0.00  0.00    +0.000 A 
ATOM      5  C   UNL     1      -2.431  11.401  19.331  0.00  0.00    +0.000 A 
ATOM      6  C   UNL     1      -3.614  12.207  19.278  0.00  0.00    +0.000 A 
ENDROOT
BRANCH   4   7
ATOM      7  N   UNL     1      -0.389  10.681  20.522  0.00  0.00    +0.000 N 
ATOM      8  C   UNL     1      -0.450   9.337  21.156  0.00  0.00    +0.000 C 
ATOM      9  C   UNL     1       0.947   8.790  21.462  0.00  0.00    +0.000 C 
ATOM     10  C   UNL     1       1.587   8.571  20.116  0.00  0.00    +0.000 A 
ATOM     11  C   UNL     1       2.185   7.361  19.766  0.00  0.00    +0.000 A 
ATOM     12  C   UNL     1       2.580   7.151  18.448  0.00  0.00    +0.000 A 
ATOM     13  C   UNL     1       2.407   8.157  17.493  0.00  0.00    +0.000 A 
ATOM     14  C   UNL     1       1.851   9.387  17.852  0.00  0.00    +0.000 A 
ATOM     15  C   UNL     1       1.418   9.598  19.164  0.00  0.00    +0.000 A 
ATOM     16  C   UNL     1       0.782  10.899  19.620  0.00  0.00    +0.000 C 
ENDBRANCH   4   7
BRANCH   5  17
ATOM     17  C   UNL     1      -2.259  10.565  18.071  0.00  0.00    +0.000 C 
ATOM     18  F   UNL     1      -1.748   9.320  18.209  0.00  0.00    +0.000 F 
ATOM     19  F   UNL     1      -3.444  10.416  17.409  0.00  0.00    +0.000 F 
ATOM     20  F   UNL     1      -1.428  11.183  17.180  0.00  0.00    +0.000 F 
ENDBRANCH   5  17
BRANCH   1  22
ATOM     21  O   UNL     1      -5.938  13.675  19.291  0.00  0.00    +0.000 OA
ATOM     22  N   UNL     1      -5.101  13.995  20.147  0.00  0.00    +0.000 N 
ATOM     23  O   UNL     1      -5.200  14.962  20.911  0.00  0.00    +0.000 OA
ENDBRANCH   1  22
BRANCH   3  24
ATOM     24  N   UNL     1      -1.094  12.778  22.569  0.00  0.00    +0.000 N 
ATOM     25  O   UNL     1      -1.142  11.938  23.480  0.00  0.00    +0.000 OA
ATOM     26  O   UNL     1      -0.372  13.782  22.543  0.00  0.00    +0.000 OA
ENDBRANCH   3  24
TORSDOF 4
ENDMDL
MODEL 4
REMARK VINA RESULT:      -6.5      5.744      7.689
REMARK  Name = 
REMARK  4 active torsions:
REMARK  status: ('A' for Active; 'I' for Inactive)
REMARK    1  A    between atoms: N_2  and  C_4
REMARK    2  A    between atoms: C_6  and  N_7
REMARK    3  A    between atoms: C_10  and  N_11
REMARK    4  A    between atoms: C_21  and  C_22
REMARK                            x       y       z     vdW  Elec       q    Type
REMARK                         _______ _______ _______ _____ _____    ______ ____
ROOT
ATOM      1  C   UNL     1      -4.261  13.053  20.201  0.00  0.00    +0.000 A 
ATOM      2  C   UNL     1      -3.827  12.305  19.130  0.00  0.00    +0.000 A 
ATOM      3  C   UNL     1      -2.641  11.550  19.254  0.00  0.00    +0.000 A 
ATOM      4  C   UNL     1      -1.829  11.484  20.432  0.00  0.00    +0.000 A 
ATOM      5  C   UNL     1      -2.351  12.230  21.531  0.00  0.00    +0.000 A 
ATOM      6  C   UNL     1      -3.533  13.027  21.387  0.00  0.00    +0.000 A 
ENDROOT
BRANCH   4   7
ATOM      7  N   UNL     1      -0.653  10.732  20.541  0.00  0.00    +0.000 N 
ATOM      8  C   UNL     1      -0.666   9.373  21.146  0.00  0.00    +0.000 C 
ATOM      9  C   UNL     1       0.747   8.890  21.484  0.00  0.00    +0.000 C 
ATOM     10  C   UNL     1       1.438   8.732  20.155  0.00  0.00    +0.000 A 
ATOM     11  C   UNL     1       2.107   7.561  19.800  0.00  0.00    +0.000 A 
ATOM     12  C   UNL     1       2.550   7.399  18.491  0.00  0.00    +0.000 A 
ATOM     13  C   UNL     1       2.357   8.415  17.551  0.00  0.00    +0.000 A 
ATOM     14  C   UNL     1       1.728   9.608  17.917  0.00  0.00    +0.000 A 
ATOM     15  C   UNL     1       1.246   9.769  19.218  0.00  0.00    +0.000 A 
ATOM     16  C   UNL     1       0.532  11.027  19.680  0.00  0.00    +0.000 C 
ENDBRANCH   4   7
BRANCH   5  17
ATOM     17  C   UNL     1      -1.834  12.236  22.962  0.00  0.00    +0.000 C 
ATOM     18  F   UNL     1      -1.717  11.045  23.591  0.00  0.00    +0.000 F 
ATOM     19  F   UNL     1      -0.607  12.830  23.044  0.00  0.00    +0.000 F 
ATOM     20  F   UNL     1      -2.644  12.978  23.774  0.00  0.00    +0.000 F 
ENDBRANCH   5  17
BRANCH   1  22
ATOM     21  O   UNL     1      -6.560  13.229  20.006  0.00  0.00    +0.000 OA
ATOM     22  N   UNL     1      -5.492  13.850  20.103  0.00  0.00    +0.000 N 
ATOM     23  O   UNL     1      -5.386  15.081  20.121  0.00  0.00    +0.000 OA
ENDBRANCH   1  22
BRANCH   3  24
ATOM     24  N   UNL     1      -2.316  10.848  18.029  0.00  0.00    +0.000 N 
ATOM     25  O   UNL     1      -1.800  11.522  17.124  0.00  0.00    +0.000 OA
ATOM     26  O   UNL     1      -2.495   9.625  18.012  0.00  0.00    +0.000 OA
ENDBRANCH   3  24
TORSDOF 4
ENDMDL
MODEL 5
REMARK VINA RESULT:      -6.5      7.645     10.668
REMARK  Name = 
REMARK  4 active torsions:
REMARK  status: ('A' for Active; 'I' for Inactive)
REMARK    1  A    between atoms: N_2  and  C_4
REMARK    2  A    between atoms: C_6  and  N_7
REMARK    3  A    between atoms: C_10  and  N_11
REMARK    4  A    between atoms: C_21  and  C_22
REMARK                            x       y       z     vdW  Elec       q    Type
REMARK                         _______ _______ _______ _____ _____    ______ ____
ROOT
ATOM      1  C   UNL     1      -2.574  10.875  17.128  0.00  0.00    +0.000 A 
ATOM      2  C   UNL     1      -1.330  10.590  17.646  0.00  0.00    +0.000 A 
ATOM      3  C   UNL     1      -0.981  11.100  18.914  0.00  0.00    +0.000 A 
ATOM      4  C   UNL     1      -1.832  11.906  19.739  0.00  0.00    +0.000 A 
ATOM      5  C   UNL     1      -3.128  12.125  19.184  0.00  0.00    +0.000 A 
ATOM      6  C   UNL     1      -3.464  11.639  17.879  0.00  0.00    +0.000 A 
ENDROOT
BRANCH   4   7
ATOM      7  N   UNL     1      -1.471  12.407  20.996  0.00  0.00    +0.000 N 
ATOM      8  C   UNL     1      -0.870  13.760  21.136  0.00  0.00    +0.000 C 
ATOM      9  C   UNL     1      -0.237  13.958  22.517  0.00  0.00    +0.000 C 
ATOM     10  C   UNL     1      -1.389  13.927  23.486  0.00  0.00    +0.000 A 
ATOM     11  C   UNL     1      -1.586  14.926  24.440  0.00  0.00    +0.000 A 
ATOM     12  C   UNL     1      -2.770  14.949  25.170  0.00  0.00    +0.000 A 
ATOM     13  C   UNL     1      -3.739  13.962  24.971  0.00  0.00    +0.000 A 
ATOM     14  C   UNL     1      -3.524  12.933  24.049  0.00  0.00    +0.000 A 
ATOM     15  C   UNL     1      -2.355  12.919  23.284  0.00  0.00    +0.000 A 
ATOM     16  C   UNL     1      -2.066  11.848  22.247  0.00  0.00    +0.000 C 
ENDBRANCH   4   7
BRANCH   5  17
ATOM     17  C   UNL     1      -4.317  12.783  19.866  0.00  0.00    +0.000 C 
ATOM     18  F   UNL     1      -4.112  13.973  20.474  0.00  0.00    +0.000 F 
ATOM     19  F   UNL     1      -5.347  12.978  18.990  0.00  0.00    +0.000 F 
ATOM     20  F   UNL     1      -4.830  11.979  20.844  0.00  0.00    +0.000 F 
ENDBRANCH   5  17
BRANCH   1  22
ATOM     21  O   UNL     1      -2.881   9.135  15.634  0.00  0.00    +0.000 OA
ATOM     22  N   UNL     1      -2.968  10.359  15.810  0.00  0.00    +0.000 N 
ATOM     23  O   UNL     1      -3.356  11.172  14.964  0.00  0.00    +0.000 OA
ENDBRANCH   1  22
BRANCH   3  24
ATOM     24  N   UNL     1       0.368  10.731  19.293  0.00  0.00    +0.000 N 
ATOM     25  O   UNL     1       1.277  11.485  18.914  0.00  0.00    +0.000 OA
ATOM     26  O   UNL     1       0.499   9.749  20.034  0.00  0.00    +0.000 OA
ENDBRANCH   3  24
TORSDOF 4
ENDMDL
MODEL 6
REMARK VINA RESULT:      -6.5      5.982      9.855
REMARK  Name = 
REMARK  4 active torsions:
REMARK  status: ('A' for Active; 'I' for Inactive)
REMARK    1  A    between atoms: N_2  and  C_4
REMARK    2  A    between atoms: C_6  and  N_7
REMARK    3  A    between atoms: C_10  and  N_11
REMARK    4  A    between atoms: C_21  and  C_22
REMARK                            x       y       z     vdW  Elec       q    Type
REMARK                         _______ _______ _______ _____ _____    ______ ____
ROOT
ATOM      1  C   UNL     1       1.138   9.672  19.304  0.00  0.00    +0.000 A 
ATOM      2  C   UNL     1       0.961  10.968  18.872  0.00  0.00    +0.000 A 
ATOM      3  C   UNL     1       0.225  11.865  19.675  0.00  0.00    +0.000 A 
ATOM      4  C   UNL     1      -0.366  11.542  20.940  0.00  0.00    +0.000 A 
ATOM      5  C   UNL     1      -0.106  10.206  21.368  0.00  0.00    +0.000 A 
ATOM      6  C   UNL     1       0.608   9.287  20.532  0.00  0.00    +0.000 A 
ENDROOT
BRANCH   4   7
ATOM      7  N   UNL     1      -1.096  12.442  21.725  0.00  0.00    +0.000 N 
ATOM      8  C   UNL     1      -0.417  13.540  22.463  0.00  0.00    +0.000 C 
ATOM      9  C   UNL     1      -1.335  14.166  23.517  0.00  0.00    +0.000 C 
ATOM     10  C   UNL     1      -2.437  14.830  22.734  0.00  0.00    +0.000 A 
ATOM     11  C   UNL     1      -2.802  16.159  22.944  0.00  0.00    +0.000 A 
ATOM     12  C   UNL     1      -3.683  16.774  22.060  0.00  0.00    +0.000 A 
ATOM     13  C   UNL     1      -4.223  16.054  20.990  0.00  0.00    +0.000 A 
ATOM     14  C   UNL     1      -3.895  14.708  20.804  0.00  0.00    +0.000 A 
ATOM     15  C   UNL     1      -2.983  14.090  21.664  0.00  0.00    +0.000 A 
ATOM     16  C   UNL     1      -2.561  12.639  21.508  0.00  0.00    +0.000 C 
ENDBRANCH   4   7
BRANCH   5  17
ATOM     17  C   UNL     1      -0.436   9.598  22.723  0.00  0.00    +0.000 C 
ATOM     18  F   UNL     1      -1.299  10.270  23.518  0.00  0.00    +0.000 F 
ATOM     19  F   UNL     1      -0.944   8.338  22.591  0.00  0.00    +0.000 F 
ATOM     20  F   UNL     1       0.690   9.450  23.483  0.00  0.00    +0.000 F 
ENDBRANCH   5  17
BRANCH   1  22
ATOM     21  O   UNL     1       2.242   7.656  19.036  0.00  0.00    +0.000 OA
ATOM     22  N   UNL     1       1.900   8.715  18.490  0.00  0.00    +0.000 N 
ATOM     23  O   UNL     1       2.153   9.024  17.320  0.00  0.00    +0.000 OA
ENDBRANCH   1  22
BRANCH   3  24
ATOM     24  N   UNL     1       0.110  13.172  19.060  0.00  0.00    +0.000 N 
ATOM     25  O   UNL     1       1.032  13.972  19.281  0.00  0.00    +0.000 OA
ATOM     26  O   UNL     1      -0.847  13.358  18.299  0.00  0.00    +0.000 OA
ENDBRANCH   3  24
TORSDOF 4
ENDMDL
MODEL 7
REMARK VINA RESULT:      -6.4      8.981     12.367
REMARK  Name = 
REMARK  4 active torsions:
REMARK  status: ('A' for Active; 'I' for Inactive)
REMARK    1  A    between atoms: N_2  and  C_4
REMARK    2  A    between atoms: C_6  and  N_7
REMARK    3  A    between atoms: C_10  and  N_11
REMARK    4  A    between atoms: C_21  and  C_22
REMARK                            x       y       z     vdW  Elec       q    Type
REMARK                         _______ _______ _______ _____ _____    ______ ____
ROOT
ATOM      1  C   UNL     1      -3.373  11.138  17.127  0.00  0.00    +0.000 A 
ATOM      2  C   UNL     1      -2.351  11.471  17.989  0.00  0.00    +0.000 A 
ATOM      3  C   UNL     1      -2.657  12.149  19.187  0.00  0.00    +0.000 A 
ATOM      4  C   UNL     1      -3.973  12.527  19.606  0.00  0.00    +0.000 A 
ATOM      5  C   UNL     1      -5.001  12.110  18.708  0.00  0.00    +0.000 A 
ATOM      6  C   UNL     1      -4.683  11.457  17.473  0.00  0.00    +0.000 A 
ENDROOT
BRANCH   4   7
ATOM      7  N   UNL     1      -4.262  13.202  20.798  0.00  0.00    +0.000 N 
ATOM      8  C   UNL     1      -4.536  14.663  20.803  0.00  0.00    +0.000 C 
ATOM      9  C   UNL     1      -4.472  15.246  22.218  0.00  0.00    +0.000 C 
ATOM     10  C   UNL     1      -5.626  14.618  22.955  0.00  0.00    +0.000 A 
ATOM     11  C   UNL     1      -6.555  15.377  23.666  0.00  0.00    +0.000 A 
ATOM     12  C   UNL     1      -7.705  14.764  24.156  0.00  0.00    +0.000 A 
ATOM     13  C   UNL     1      -7.909  13.395  23.964  0.00  0.00    +0.000 A 
ATOM     14  C   UNL     1      -6.957  12.624  23.292  0.00  0.00    +0.000 A 
ATOM     15  C   UNL     1      -5.816  13.233  22.764  0.00  0.00    +0.000 A 
ATOM     16  C   UNL     1      -4.752  12.463  22.001  0.00  0.00    +0.000 C 
ENDBRANCH   4   7
BRANCH   5  17
ATOM     17  C   UNL     1      -6.504  12.196  18.932  0.00  0.00    +0.000 C 
ATOM     18  F   UNL     1      -7.025  11.498  19.966  0.00  0.00    +0.000 F 
ATOM     19  F   UNL     1      -6.905  13.490  19.108  0.00  0.00    +0.000 F 
ATOM     20  F   UNL     1      -7.190  11.757  17.836  0.00  0.00    +0.000 F 
ENDBRANCH   5  17
BRANCH   1  22
ATOM     21  O   UNL     1      -2.644   9.277  15.960  0.00  0.00    +0.000 OA
ATOM     22  N   UNL     1      -3.088  10.431  15.871  0.00  0.00    +0.000 N 
ATOM     23  O   UNL     1      -3.304  11.029  14.810  0.00  0.00    +0.000 OA
ENDBRANCH   1  22
BRANCH   3  24
ATOM     24  N   UNL     1      -1.466  12.447  19.958  0.00  0.00    +0.000 N 
ATOM     25  O   UNL     1      -1.080  11.568  20.744  0.00  0.00    +0.000 OA
ATOM     26  O   UNL     1      -0.884  13.509  19.712  0.00  0.00    +0.000 OA
ENDBRANCH   3  24
TORSDOF 4
ENDMDL
MODEL 8
REMARK VINA RESULT:      -6.4      7.924     11.930
REMARK  Name = 
REMARK  4 active torsions:
REMARK  status: ('A' for Active; 'I' for Inactive)
REMARK    1  A    between atoms: N_2  and  C_4
REMARK    2  A    between atoms: C_6  and  N_7
REMARK    3  A    between atoms: C_10  and  N_11
REMARK    4  A    between atoms: C_21  and  C_22
REMARK                            x       y       z     vdW  Elec       q    Type
REMARK                         _______ _______ _______ _____ _____    ______ ____
ROOT
ATOM      1  C   UNL     1      -1.487  10.919  18.859  0.00  0.00    +0.000 A 
ATOM      2  C   UNL     1      -0.762  11.229  19.988  0.00  0.00    +0.000 A 
ATOM      3  C   UNL     1      -1.360  12.020  20.992  0.00  0.00    +0.000 A 
ATOM      4  C   UNL     1      -2.694  12.539  20.945  0.00  0.00    +0.000 A 
ATOM      5  C   UNL     1      -3.422  12.142  19.783  0.00  0.00    +0.000 A 
ATOM      6  C   UNL     1      -2.798  11.373  18.748  0.00  0.00    +0.000 A 
ENDROOT
BRANCH   4   7
ATOM      7  N   UNL     1      -3.274  13.324  21.948  0.00  0.00    +0.000 N 
ATOM      8  C   UNL     1      -3.500  14.780  21.745  0.00  0.00    +0.000 C 
ATOM      9  C   UNL     1      -3.803  15.495  23.065  0.00  0.00    +0.000 C 
ATOM     10  C   UNL     1      -5.129  14.941  23.517  0.00  0.00    +0.000 A 
ATOM     11  C   UNL     1      -6.194  15.765  23.879  0.00  0.00    +0.000 A 
ATOM     12  C   UNL     1      -7.450  15.203  24.095  0.00  0.00    +0.000 A 
ATOM     13  C   UNL     1      -7.631  13.822  23.981  0.00  0.00    +0.000 A 
ATOM     14  C   UNL     1      -6.554  12.989  23.664  0.00  0.00    +0.000 A 
ATOM     15  C   UNL     1      -5.297  13.545  23.410  0.00  0.00    +0.000 A 
ATOM     16  C   UNL     1      -4.089  12.705  23.036  0.00  0.00    +0.000 C 
ENDBRANCH   4   7
BRANCH   5  17
ATOM     17  C   UNL     1      -4.900  12.372  19.505  0.00  0.00    +0.000 C 
ATOM     18  F   UNL     1      -5.791  11.814  20.354  0.00  0.00    +0.000 F 
ATOM     19  F   UNL     1      -5.196  13.705  19.466  0.00  0.00    +0.000 F 
ATOM     20  F   UNL     1      -5.249  11.895  18.274  0.00  0.00    +0.000 F 
ENDBRANCH   5  17
BRANCH   1  22
ATOM     21  O   UNL     1       0.297   9.777  17.927  0.00  0.00    +0.000 OA
ATOM     22  N   UNL     1      -0.893  10.097  17.796  0.00  0.00    +0.000 N 
ATOM     23  O   UNL     1      -1.612   9.780  16.841  0.00  0.00    +0.000 OA
ENDBRANCH   1  22
BRANCH   3  24
ATOM     24  N   UNL     1      -0.451  12.275  22.092  0.00  0.00    +0.000 N 
ATOM     25  O   UNL     1      -0.534  11.513  23.067  0.00  0.00    +0.000 OA
ATOM     26  O   UNL     1       0.388  13.170  21.938  0.00  0.00    +0.000 OA
ENDBRANCH   3  24
TORSDOF 4
ENDMDL
MODEL 9
REMARK VINA RESULT:      -6.4      3.581      6.899
REMARK  Name = 
REMARK  4 active torsions:
REMARK  status: ('A' for Active; 'I' for Inactive)
REMARK    1  A    between atoms: N_2  and  C_4
REMARK    2  A    between atoms: C_6  and  N_7
REMARK    3  A    between atoms: C_10  and  N_11
REMARK    4  A    between atoms: C_21  and  C_22
REMARK                            x       y       z     vdW  Elec       q    Type
REMARK                         _______ _______ _______ _____ _____    ______ ____
ROOT
ATOM      1  C   UNL     1       7.062   5.271  14.523  0.00  0.00    +0.000 A 
ATOM      2  C   UNL     1       7.487   6.095  15.542  0.00  0.00    +0.000 A 
ATOM      3  C   UNL     1       6.737   6.155  16.736  0.00  0.00    +0.000 A 
ATOM      4  C   UNL     1       5.542   5.408  16.994  0.00  0.00    +0.000 A 
ATOM      5  C   UNL     1       5.176   4.529  15.932  0.00  0.00    +0.000 A 
ATOM      6  C   UNL     1       5.917   4.501  14.706  0.00  0.00    +0.000 A 
ENDROOT
BRANCH   4   7
ATOM      7  N   UNL     1       4.807   5.479  18.183  0.00  0.00    +0.000 N 
ATOM      8  C   UNL     1       3.537   6.250  18.254  0.00  0.00    +0.000 C 
ATOM      9  C   UNL     1       3.098   6.486  19.702  0.00  0.00    +0.000 C 
ATOM     10  C   UNL     1       2.768   5.119  20.240  0.00  0.00    +0.000 A 
ATOM     11  C   UNL     1       1.559   4.843  20.878  0.00  0.00    +0.000 A 
ATOM     12  C   UNL     1       1.229   3.524  21.175  0.00  0.00    +0.000 A 
ATOM     13  C   UNL     1       2.117   2.490  20.865  0.00  0.00    +0.000 A 
ATOM     14  C   UNL     1       3.349   2.769  20.268  0.00  0.00    +0.000 A 
ATOM     15  C   UNL     1       3.677   4.085  19.933  0.00  0.00    +0.000 A 
ATOM     16  C   UNL     1       4.986   4.459  19.261  0.00  0.00    +0.000 C 
ENDBRANCH   4   7
BRANCH   5  17
ATOM     17  C   UNL     1       4.073   3.481  15.950  0.00  0.00    +0.000 C 
ATOM     18  F   UNL     1       2.910   3.805  16.560  0.00  0.00    +0.000 F 
ATOM     19  F   UNL     1       3.740   3.089  14.685  0.00  0.00    +0.000 F 
ATOM     20  F   UNL     1       4.487   2.341  16.579  0.00  0.00    +0.000 F 
ENDBRANCH   5  17
BRANCH   1  22
ATOM     21  O   UNL     1       8.843   5.882  13.178  0.00  0.00    +0.000 OA
ATOM     22  N   UNL     1       7.821   5.187  13.268  0.00  0.00    +0.000 N 
ATOM     23  O   UNL     1       7.394   4.435  12.385  0.00  0.00    +0.000 OA
ENDBRANCH   1  22
BRANCH   3  24
ATOM     24  N   UNL     1       7.307   7.089  17.686  0.00  0.00    +0.000 N 
ATOM     25  O   UNL     1       7.883   6.598  18.668  0.00  0.00    +0.000 OA
ATOM     26  O   UNL     1       7.251   8.291  17.401  0.00  0.00    +0.000 OA
ENDBRANCH   3  24
TORSDOF 4
ENDMDL
