MODEL 1
REMARK VINA RESULT:      -7.9      0.000      0.000
REMARK  Name = 
REMARK  4 active torsions:
REMARK  status: ('A' for Active; 'I' for Inactive)
REMARK    1  A    between atoms: C_7  and  C_8
REMARK    2  A    between atoms: C_11  and  O_12
REMARK    3  A    between atoms: O_12  and  C_13
REMARK    4  A    between atoms: C_13  and  C_14
REMARK                            x       y       z     vdW  Elec       q    Type
REMARK                         _______ _______ _______ _____ _____    ______ ____
ROOT
ATOM      1  C   UNL     1       2.438   6.979  18.728  0.00  0.00    +0.000 A 
ATOM      2  C   UNL     1       2.239   7.892  17.693  0.00  0.00    +0.000 A 
ATOM      3  C   UNL     1       1.663   9.135  17.953  0.00  0.00    +0.000 A 
ATOM      4  C   UNL     1       1.257   9.478  19.248  0.00  0.00    +0.000 A 
ATOM      5  C   UNL     1       1.489   8.569  20.290  0.00  0.00    +0.000 A 
ATOM      6 BR   UNL     1       1.017   8.973  22.086  0.00  0.00    +0.000 Br
ATOM      7  C   UNL     1       2.071   7.322  20.032  0.00  0.00    +0.000 A 
ENDROOT
BRANCH   1  14
ATOM      8  O   UNL     1       7.486   5.737  16.080  0.00  0.00    +0.000 OA
ATOM      9  C   UNL     1       6.434   5.485  16.644  0.00  0.00    +0.000 C 
ATOM     10  N   UNL     1       5.971   4.245  16.941  0.00  0.00    +0.000 N 
ATOM     11  C   UNL     1       4.775   4.145  17.585  0.00  0.00    +0.000 C 
ATOM     12  O   UNL     1       4.253   3.097  17.927  0.00  0.00    +0.000 OA
ATOM     13  C   UNL     1       4.214   5.500  17.815  0.00  0.00    +0.000 C 
ATOM     14  C   UNL     1       3.040   5.680  18.430  0.00  0.00    +0.000 C 
ATOM     15  S   UNL     1       5.295   6.694  17.200  0.00  0.00    +0.000 S 
ATOM     16  H   UNL     1       6.503   3.424  16.702  0.00  0.00    +0.000 HD
ENDBRANCH   1  14
BRANCH   4  17
ATOM     17  O   UNL     1       0.646  10.670  19.557  0.00  0.00    +0.000 OA
BRANCH  17  18
ATOM     18  C   UNL     1       0.093  11.374  18.442  0.00  0.00    +0.000 C 
BRANCH  18  19
ATOM     19  C   UNL     1      -1.367  11.061  18.225  0.00  0.00    +0.000 A 
ATOM     20  C   UNL     1      -2.328  11.844  18.885  0.00  0.00    +0.000 A 
ATOM     21  C   UNL     1      -3.689  11.624  18.678  0.00  0.00    +0.000 A 
ATOM     22  C   UNL     1      -4.103  10.626  17.800  0.00  0.00    +0.000 A 
ATOM     23  C   UNL     1      -3.159   9.856  17.122  0.00  0.00    +0.000 A 
ATOM     24  C   UNL     1      -1.796  10.076  17.327  0.00  0.00    +0.000 A 
ENDBRANCH  18  19
ENDBRANCH  17  18
ENDBRANCH   4  17
TORSDOF 4
ENDMDL
MODEL 2
REMARK VINA RESULT:      -7.9      1.233      1.267
REMARK  Name = 
REMARK  4 active torsions:
REMARK  status: ('A' for Active; 'I' for Inactive)
REMARK    1  A    between atoms: C_7  and  C_8
REMARK    2  A    between atoms: C_11  and  O_12
REMARK    3  A    between atoms: O_12  and  C_13
REMARK    4  A    between atoms: C_13  and  C_14
REMARK                            x       y       z     vdW  Elec       q    Type
REMARK                         _______ _______ _______ _____ _____    ______ ____
ROOT
ATOM      1  C   UNL     1       2.087   6.735  19.681  0.00  0.00    +0.000 A 
ATOM      2  C   UNL     1       2.198   7.508  18.525  0.00  0.00    +0.000 A 
ATOM      3  C   UNL     1       1.767   8.835  18.523  0.00  0.00    +0.000 A 
ATOM      4  C   UNL     1       1.198   9.404  19.668  0.00  0.00    +0.000 A 
ATOM      5  C   UNL     1       1.118   8.631  20.835  0.00  0.00    +0.000 A 
ATOM      6 BR   UNL     1       0.407   9.339  22.450  0.00  0.00    +0.000 Br
ATOM      7  C   UNL     1       1.553   7.300  20.842  0.00  0.00    +0.000 A 
ENDROOT
BRANCH   1  14
ATOM      8  O   UNL     1       7.309   4.553  18.265  0.00  0.00    +0.000 OA
ATOM      9  C   UNL     1       6.146   4.507  18.629  0.00  0.00    +0.000 C 
ATOM     10  N   UNL     1       5.463   3.383  18.963  0.00  0.00    +0.000 N 
ATOM     11  C   UNL     1       4.166   3.514  19.358  0.00  0.00    +0.000 C 
ATOM     12  O   UNL     1       3.445   2.592  19.702  0.00  0.00    +0.000 OA
ATOM     13  C   UNL     1       3.771   4.945  19.317  0.00  0.00    +0.000 C 
ATOM     14  C   UNL     1       2.541   5.346  19.657  0.00  0.00    +0.000 C 
ATOM     15  S   UNL     1       5.107   5.907  18.804  0.00  0.00    +0.000 S 
ATOM     16  H   UNL     1       5.907   2.480  18.929  0.00  0.00    +0.000 HD
ENDBRANCH   1  14
BRANCH   4  17
ATOM     17  O   UNL     1       0.717  10.691  19.713  0.00  0.00    +0.000 OA
BRANCH  17  18
ATOM     18  C   UNL     1       0.264  11.212  18.461  0.00  0.00    +0.000 C 
BRANCH  18  19
ATOM     19  C   UNL     1      -1.205  10.956  18.224  0.00  0.00    +0.000 A 
ATOM     20  C   UNL     1      -2.142  11.817  18.819  0.00  0.00    +0.000 A 
ATOM     21  C   UNL     1      -3.507  11.649  18.589  0.00  0.00    +0.000 A 
ATOM     22  C   UNL     1      -3.948  10.627  17.754  0.00  0.00    +0.000 A 
ATOM     23  C   UNL     1      -3.027   9.779  17.141  0.00  0.00    +0.000 A 
ATOM     24  C   UNL     1      -1.660   9.946  17.368  0.00  0.00    +0.000 A 
ENDBRANCH  18  19
ENDBRANCH  17  18
ENDBRANCH   4  17
TORSDOF 4
ENDMDL
MODEL 3
REMARK VINA RESULT:      -7.8      0.956      1.425
REMARK  Name = 
REMARK  4 active torsions:
REMARK  status: ('A' for Active; 'I' for Inactive)
REMARK    1  A    between atoms: C_7  and  C_8
REMARK    2  A    between atoms: C_11  and  O_12
REMARK    3  A    between atoms: O_12  and  C_13
REMARK    4  A    between atoms: C_13  and  C_14
REMARK                            x       y       z     vdW  Elec       q    Type
REMARK                         _______ _______ _______ _____ _____    ______ ____
ROOT
ATOM      1  C   UNL     1       2.587   6.902  19.234  0.00  0.00    +0.000 A 
ATOM      2  C   UNL     1       2.407   7.488  17.981  0.00  0.00    +0.000 A 
ATOM      3  C   UNL     1       1.682   8.673  17.857  0.00  0.00    +0.000 A 
ATOM      4  C   UNL     1       1.106   9.280  18.979  0.00  0.00    +0.000 A 
ATOM      5  C   UNL     1       1.317   8.703  20.239  0.00  0.00    +0.000 A 
ATOM      6 BR   UNL     1       0.616   9.488  21.822  0.00  0.00    +0.000 Br
ATOM      7  C   UNL     1       2.048   7.516  20.367  0.00  0.00    +0.000 A 
ENDROOT
BRANCH   1  14
ATOM      8  O   UNL     1       7.570   5.358  16.623  0.00  0.00    +0.000 OA
ATOM      9  C   UNL     1       6.606   5.211  17.356  0.00  0.00    +0.000 C 
ATOM     10  N   UNL     1       6.347   4.116  18.115  0.00  0.00    +0.000 N 
ATOM     11  C   UNL     1       5.224   4.123  18.885  0.00  0.00    +0.000 C 
ATOM     12  O   UNL     1       4.882   3.216  19.627  0.00  0.00    +0.000 OA
ATOM     13  C   UNL     1       4.491   5.400  18.694  0.00  0.00    +0.000 C 
ATOM     14  C   UNL     1       3.347   5.658  19.338  0.00  0.00    +0.000 C 
ATOM     15  S   UNL     1       5.345   6.405  17.584  0.00  0.00    +0.000 S 
ATOM     16  H   UNL     1       6.974   3.329  18.116  0.00  0.00    +0.000 HD
ENDBRANCH   1  14
BRANCH   4  17
ATOM     17  O   UNL     1       0.346  10.424  18.912  0.00  0.00    +0.000 OA
BRANCH  17  18
ATOM     18  C   UNL     1      -1.024  10.264  19.288  0.00  0.00    +0.000 C 
BRANCH  18  19
ATOM     19  C   UNL     1      -1.973  10.523  18.143  0.00  0.00    +0.000 A 
ATOM     20  C   UNL     1      -1.787   9.818  16.942  0.00  0.00    +0.000 A 
ATOM     21  C   UNL     1      -2.667   9.989  15.874  0.00  0.00    +0.000 A 
ATOM     22  C   UNL     1      -3.748  10.858  15.999  0.00  0.00    +0.000 A 
ATOM     23  C   UNL     1      -3.955  11.548  17.193  0.00  0.00    +0.000 A 
ATOM     24  C   UNL     1      -3.076  11.377  18.264  0.00  0.00    +0.000 A 
ENDBRANCH  18  19
ENDBRANCH  17  18
ENDBRANCH   4  17
TORSDOF 4
ENDMDL
MODEL 4
REMARK VINA RESULT:      -7.8      0.965      1.041
REMARK  Name = 
REMARK  4 active torsions:
REMARK  status: ('A' for Active; 'I' for Inactive)
REMARK    1  A    between atoms: C_7  and  C_8
REMARK    2  A    between atoms: C_11  and  O_12
REMARK    3  A    between atoms: O_12  and  C_13
REMARK    4  A    between atoms: C_13  and  C_14
REMARK                            x       y       z     vdW  Elec       q    Type
REMARK                         _______ _______ _______ _____ _____    ______ ____
ROOT
ATOM      1  C   UNL     1       2.568   6.914  19.226  0.00  0.00    +0.000 A 
ATOM      2  C   UNL     1       2.383   7.490  17.969  0.00  0.00    +0.000 A 
ATOM      3  C   UNL     1       1.663   8.678  17.839  0.00  0.00    +0.000 A 
ATOM      4  C   UNL     1       1.098   9.298  18.960  0.00  0.00    +0.000 A 
ATOM      5  C   UNL     1       1.315   8.731  20.224  0.00  0.00    +0.000 A 
ATOM      6 BR   UNL     1       0.629   9.534  21.804  0.00  0.00    +0.000 Br
ATOM      7  C   UNL     1       2.041   7.541  20.358  0.00  0.00    +0.000 A 
ENDROOT
BRANCH   1  14
ATOM      8  O   UNL     1       7.575   5.356  16.670  0.00  0.00    +0.000 OA
ATOM      9  C   UNL     1       6.602   5.211  17.391  0.00  0.00    +0.000 C 
ATOM     10  N   UNL     1       6.330   4.116  18.144  0.00  0.00    +0.000 N 
ATOM     11  C   UNL     1       5.198   4.125  18.902  0.00  0.00    +0.000 C 
ATOM     12  O   UNL     1       4.844   3.219  19.637  0.00  0.00    +0.000 OA
ATOM     13  C   UNL     1       4.472   5.405  18.705  0.00  0.00    +0.000 C 
ATOM     14  C   UNL     1       3.322   5.667  19.336  0.00  0.00    +0.000 C 
ATOM     15  S   UNL     1       5.343   6.410  17.607  0.00  0.00    +0.000 S 
ATOM     16  H   UNL     1       6.953   3.326  18.151  0.00  0.00    +0.000 HD
ENDBRANCH   1  14
BRANCH   4  17
ATOM     17  O   UNL     1       0.345  10.445  18.888  0.00  0.00    +0.000 OA
BRANCH  17  18
ATOM     18  C   UNL     1      -1.020  10.300  19.288  0.00  0.00    +0.000 C 
BRANCH  18  19
ATOM     19  C   UNL     1      -1.982  10.457  18.135  0.00  0.00    +0.000 A 
ATOM     20  C   UNL     1      -3.068  11.335  18.282  0.00  0.00    +0.000 A 
ATOM     21  C   UNL     1      -3.956  11.550  17.228  0.00  0.00    +0.000 A 
ATOM     22  C   UNL     1      -3.760  10.898  16.014  0.00  0.00    +0.000 A 
ATOM     23  C   UNL     1      -2.673  10.039  15.850  0.00  0.00    +0.000 A 
ATOM     24  C   UNL     1      -1.783   9.824  16.903  0.00  0.00    +0.000 A 
ENDBRANCH  18  19
ENDBRANCH  17  18
ENDBRANCH   4  17
TORSDOF 4
ENDMDL
MODEL 5
REMARK VINA RESULT:      -7.8      1.829      2.550
REMARK  Name = 
REMARK  4 active torsions:
REMARK  status: ('A' for Active; 'I' for Inactive)
REMARK    1  A    between atoms: C_7  and  C_8
REMARK    2  A    between atoms: C_11  and  O_12
REMARK    3  A    between atoms: O_12  and  C_13
REMARK    4  A    between atoms: C_13  and  C_14
REMARK                            x       y       z     vdW  Elec       q    Type
REMARK                         _______ _______ _______ _____ _____    ______ ____
ROOT
ATOM      1  C   UNL     1       2.642   7.433  19.154  0.00  0.00    +0.000 A 
ATOM      2  C   UNL     1       2.448   8.104  17.947  0.00  0.00    +0.000 A 
ATOM      3  C   UNL     1       1.552   9.170  17.871  0.00  0.00    +0.000 A 
ATOM      4  C   UNL     1       0.818   9.569  18.994  0.00  0.00    +0.000 A 
ATOM      5  C   UNL     1       1.041   8.912  20.212  0.00  0.00    +0.000 A 
ATOM      6 BR   UNL     1       0.127   9.422  21.799  0.00  0.00    +0.000 Br
ATOM      7  C   UNL     1       1.943   7.844  20.293  0.00  0.00    +0.000 A 
ENDROOT
BRANCH   1  14
ATOM      8  O   UNL     1       1.980   1.922  17.358  0.00  0.00    +0.000 OA
ATOM      9  C   UNL     1       2.573   2.869  17.848  0.00  0.00    +0.000 C 
ATOM     10  N   UNL     1       3.850   2.853  18.307  0.00  0.00    +0.000 N 
ATOM     11  C   UNL     1       4.361   4.008  18.818  0.00  0.00    +0.000 C 
ATOM     12  O   UNL     1       5.496   4.139  19.246  0.00  0.00    +0.000 OA
ATOM     13  C   UNL     1       3.334   5.079  18.763  0.00  0.00    +0.000 C 
ATOM     14  C   UNL     1       3.583   6.316  19.208  0.00  0.00    +0.000 C 
ATOM     15  S   UNL     1       1.886   4.467  18.056  0.00  0.00    +0.000 S 
ATOM     16  H   UNL     1       4.406   2.016  18.260  0.00  0.00    +0.000 HD
ENDBRANCH   1  14
BRANCH   4  17
ATOM     17  O   UNL     1      -0.109  10.584  18.969  0.00  0.00    +0.000 OA
BRANCH  17  18
ATOM     18  C   UNL     1      -1.468  10.166  19.116  0.00  0.00    +0.000 C 
BRANCH  18  19
ATOM     19  C   UNL     1      -2.301  10.460  17.892  0.00  0.00    +0.000 A 
ATOM     20  C   UNL     1      -1.997   9.790  16.695  0.00  0.00    +0.000 A 
ATOM     21  C   UNL     1      -2.768   9.993  15.551  0.00  0.00    +0.000 A 
ATOM     22  C   UNL     1      -3.858  10.858  15.595  0.00  0.00    +0.000 A 
ATOM     23  C   UNL     1      -4.182  11.513  16.783  0.00  0.00    +0.000 A 
ATOM     24  C   UNL     1      -3.412  11.310  17.929  0.00  0.00    +0.000 A 
ENDBRANCH  18  19
ENDBRANCH  17  18
ENDBRANCH   4  17
TORSDOF 4
ENDMDL
MODEL 6
REMARK VINA RESULT:      -7.8      2.014      2.671
REMARK  Name = 
REMARK  4 active torsions:
REMARK  status: ('A' for Active; 'I' for Inactive)
REMARK    1  A    between atoms: C_7  and  C_8
REMARK    2  A    between atoms: C_11  and  O_12
REMARK    3  A    between atoms: O_12  and  C_13
REMARK    4  A    between atoms: C_13  and  C_14
REMARK                            x       y       z     vdW  Elec       q    Type
REMARK                         _______ _______ _______ _____ _____    ______ ____
ROOT
ATOM      1  C   UNL     1       2.651   7.332  19.132  0.00  0.00    +0.000 A 
ATOM      2  C   UNL     1       2.429   7.974  17.914  0.00  0.00    +0.000 A 
ATOM      3  C   UNL     1       1.551   9.055  17.839  0.00  0.00    +0.000 A 
ATOM      4  C   UNL     1       0.865   9.499  18.976  0.00  0.00    +0.000 A 
ATOM      5  C   UNL     1       1.117   8.870  20.203  0.00  0.00    +0.000 A 
ATOM      6 BR   UNL     1       0.269   9.441  21.806  0.00  0.00    +0.000 Br
ATOM      7  C   UNL     1       2.001   7.787  20.282  0.00  0.00    +0.000 A 
ENDROOT
BRANCH   1  14
ATOM      8  O   UNL     1       1.510   1.611  19.161  0.00  0.00    +0.000 OA
ATOM      9  C   UNL     1       2.218   2.604  19.172  0.00  0.00    +0.000 C 
ATOM     10  N   UNL     1       3.575   2.610  19.197  0.00  0.00    +0.000 N 
ATOM     11  C   UNL     1       4.210   3.815  19.198  0.00  0.00    +0.000 C 
ATOM     12  O   UNL     1       5.420   3.965  19.200  0.00  0.00    +0.000 OA
ATOM     13  C   UNL     1       3.208   4.911  19.184  0.00  0.00    +0.000 C 
ATOM     14  C   UNL     1       3.572   6.198  19.184  0.00  0.00    +0.000 C 
ATOM     15  S   UNL     1       1.616   4.249  19.151  0.00  0.00    +0.000 S 
ATOM     16  H   UNL     1       4.095   1.748  19.203  0.00  0.00    +0.000 HD
ENDBRANCH   1  14
BRANCH   4  17
ATOM     17  O   UNL     1      -0.043  10.531  18.955  0.00  0.00    +0.000 OA
BRANCH  17  18
ATOM     18  C   UNL     1      -1.403  10.146  19.170  0.00  0.00    +0.000 C 
BRANCH  18  19
ATOM     19  C   UNL     1      -2.268  10.369  17.953  0.00  0.00    +0.000 A 
ATOM     20  C   UNL     1      -3.364  11.241  18.059  0.00  0.00    +0.000 A 
ATOM     21  C   UNL     1      -4.163  11.516  16.950  0.00  0.00    +0.000 A 
ATOM     22  C   UNL     1      -3.869  10.931  15.721  0.00  0.00    +0.000 A 
ATOM     23  C   UNL     1      -2.771  10.079  15.599  0.00  0.00    +0.000 A 
ATOM     24  C   UNL     1      -1.969   9.805  16.708  0.00  0.00    +0.000 A 
ENDBRANCH  18  19
ENDBRANCH  17  18
ENDBRANCH   4  17
TORSDOF 4
ENDMDL
MODEL 7
REMARK VINA RESULT:      -7.7      3.498      8.356
REMARK  Name = 
REMARK  4 active torsions:
REMARK  status: ('A' for Active; 'I' for Inactive)
REMARK    1  A    between atoms: C_7  and  C_8
REMARK    2  A    between atoms: C_11  and  O_12
REMARK    3  A    between atoms: O_12  and  C_13
REMARK    4  A    between atoms: C_13  and  C_14
REMARK                            x       y       z     vdW  Elec       q    Type
REMARK                         _______ _______ _______ _____ _____    ______ ____
ROOT
ATOM      1  C   UNL     1       1.527   9.082  19.170  0.00  0.00    +0.000 A 
ATOM      2  C   UNL     1       2.162   9.011  17.930  0.00  0.00    +0.000 A 
ATOM      3  C   UNL     1       2.768   7.824  17.518  0.00  0.00    +0.000 A 
ATOM      4  C   UNL     1       2.770   6.695  18.346  0.00  0.00    +0.000 A 
ATOM      5  C   UNL     1       2.102   6.764  19.578  0.00  0.00    +0.000 A 
ATOM      6 BR   UNL     1       2.009   5.265  20.743  0.00  0.00    +0.000 Br
ATOM      7  C   UNL     1       1.489   7.953  19.993  0.00  0.00    +0.000 A 
ENDROOT
BRANCH   1  14
ATOM      8  O   UNL     1      -3.386  11.591  17.274  0.00  0.00    +0.000 OA
ATOM      9  C   UNL     1      -2.380  11.490  17.956  0.00  0.00    +0.000 C 
ATOM     10  N   UNL     1      -1.977  12.368  18.909  0.00  0.00    +0.000 N 
ATOM     11  C   UNL     1      -0.827  12.096  19.586  0.00  0.00    +0.000 C 
ATOM     12  O   UNL     1      -0.362  12.787  20.477  0.00  0.00    +0.000 OA
ATOM     13  C   UNL     1      -0.236  10.829  19.084  0.00  0.00    +0.000 C 
ATOM     14  C   UNL     1       0.903  10.337  19.582  0.00  0.00    +0.000 C 
ATOM     15  S   UNL     1      -1.237  10.167  17.846  0.00  0.00    +0.000 S 
ATOM     16  H   UNL     1      -2.520  13.190  19.117  0.00  0.00    +0.000 HD
ENDBRANCH   1  14
BRANCH   4  17
ATOM     17  O   UNL     1       3.386   5.514  18.012  0.00  0.00    +0.000 OA
BRANCH  17  18
ATOM     18  C   UNL     1       4.420   5.626  17.031  0.00  0.00    +0.000 C 
BRANCH  18  19
ATOM     19  C   UNL     1       5.755   5.988  17.634  0.00  0.00    +0.000 A 
ATOM     20  C   UNL     1       6.434   7.114  17.139  0.00  0.00    +0.000 A 
ATOM     21  C   UNL     1       7.647   7.515  17.697  0.00  0.00    +0.000 A 
ATOM     22  C   UNL     1       8.189   6.801  18.762  0.00  0.00    +0.000 A 
ATOM     23  C   UNL     1       7.515   5.694  19.276  0.00  0.00    +0.000 A 
ATOM     24  C   UNL     1       6.299   5.292  18.719  0.00  0.00    +0.000 A 
ENDBRANCH  18  19
ENDBRANCH  17  18
ENDBRANCH   4  17
TORSDOF 4
ENDMDL
MODEL 8
REMARK VINA RESULT:      -7.7      3.796      8.204
REMARK  Name = 
REMARK  4 active torsions:
REMARK  status: ('A' for Active; 'I' for Inactive)
REMARK    1  A    between atoms: C_7  and  C_8
REMARK    2  A    between atoms: C_11  and  O_12
REMARK    3  A    between atoms: O_12  and  C_13
REMARK    4  A    between atoms: C_13  and  C_14
REMARK                            x       y       z     vdW  Elec       q    Type
REMARK                         _______ _______ _______ _____ _____    ______ ____
ROOT
ATOM      1  C   UNL     1       1.715   7.154  20.418  0.00  0.00    +0.000 A 
ATOM      2  C   UNL     1       2.330   7.680  19.282  0.00  0.00    +0.000 A 
ATOM      3  C   UNL     1       2.760   6.834  18.260  0.00  0.00    +0.000 A 
ATOM      4  C   UNL     1       2.602   5.447  18.365  0.00  0.00    +0.000 A 
ATOM      5  C   UNL     1       1.955   4.927  19.495  0.00  0.00    +0.000 A 
ATOM      6 BR   UNL     1       1.652   3.061  19.696  0.00  0.00    +0.000 Br
ATOM      7  C   UNL     1       1.518   5.774  20.521  0.00  0.00    +0.000 A 
ENDROOT
BRANCH   1  14
ATOM      8  O   UNL     1      -1.482  12.021  20.066  0.00  0.00    +0.000 OA
ATOM      9  C   UNL     1      -0.843  11.148  20.630  0.00  0.00    +0.000 C 
ATOM     10  N   UNL     1      -0.633  11.057  21.967  0.00  0.00    +0.000 N 
ATOM     11  C   UNL     1       0.099  10.007  22.431  0.00  0.00    +0.000 C 
ATOM     12  O   UNL     1       0.347   9.794  23.606  0.00  0.00    +0.000 OA
ATOM     13  C   UNL     1       0.537   9.159  21.293  0.00  0.00    +0.000 C 
ATOM     14  C   UNL     1       1.277   8.060  21.478  0.00  0.00    +0.000 C 
ATOM     15  S   UNL     1      -0.062   9.809  19.813  0.00  0.00    +0.000 S 
ATOM     16  H   UNL     1      -1.019  11.740  22.598  0.00  0.00    +0.000 HD
ENDBRANCH   1  14
BRANCH   4  17
ATOM     17  O   UNL     1       3.044   4.563  17.410  0.00  0.00    +0.000 OA
BRANCH  17  18
ATOM     18  C   UNL     1       4.262   3.886  17.728  0.00  0.00    +0.000 C 
BRANCH  18  19
ATOM     19  C   UNL     1       5.430   4.832  17.872  0.00  0.00    +0.000 A 
ATOM     20  C   UNL     1       6.088   4.904  19.110  0.00  0.00    +0.000 A 
ATOM     21  C   UNL     1       7.202   5.727  19.277  0.00  0.00    +0.000 A 
ATOM     22  C   UNL     1       7.675   6.477  18.204  0.00  0.00    +0.000 A 
ATOM     23  C   UNL     1       7.043   6.398  16.963  0.00  0.00    +0.000 A 
ATOM     24  C   UNL     1       5.929   5.574  16.795  0.00  0.00    +0.000 A 
ENDBRANCH  18  19
ENDBRANCH  17  18
ENDBRANCH   4  17
TORSDOF 4
ENDMDL
MODEL 9
REMARK VINA RESULT:      -7.7      1.605      2.586
REMARK  Name = 
REMARK  4 active torsions:
REMARK  status: ('A' for Active; 'I' for Inactive)
REMARK    1  A    between atoms: C_7  and  C_8
REMARK    2  A    between atoms: C_11  and  O_12
REMARK    3  A    between atoms: O_12  and  C_13
REMARK    4  A    between atoms: C_13  and  C_14
REMARK                            x       y       z     vdW  Elec       q    Type
REMARK                         _______ _______ _______ _____ _____    ______ ____
ROOT
ATOM      1  C   UNL     1       2.672   7.360  18.518  0.00  0.00    +0.000 A 
ATOM      2  C   UNL     1       2.384   8.347  17.575  0.00  0.00    +0.000 A 
ATOM      3  C   UNL     1       1.616   9.456  17.930  0.00  0.00    +0.000 A 
ATOM      4  C   UNL     1       1.103   9.586  19.226  0.00  0.00    +0.000 A 
ATOM      5  C   UNL     1       1.422   8.606  20.178  0.00  0.00    +0.000 A 
ATOM      6 BR   UNL     1       0.812   8.730  21.974  0.00  0.00    +0.000 Br
ATOM      7  C   UNL     1       2.197   7.495  19.826  0.00  0.00    +0.000 A 
ENDROOT
BRANCH   1  14
ATOM      8  O   UNL     1       1.375   1.676  18.729  0.00  0.00    +0.000 OA
ATOM      9  C   UNL     1       2.070   2.651  18.493  0.00  0.00    +0.000 C 
ATOM     10  N   UNL     1       3.312   2.626  17.948  0.00  0.00    +0.000 N 
ATOM     11  C   UNL     1       3.946   3.814  17.745  0.00  0.00    +0.000 C 
ATOM     12  O   UNL     1       5.053   3.937  17.248  0.00  0.00    +0.000 OA
ATOM     13  C   UNL     1       3.083   4.930  18.208  0.00  0.00    +0.000 C 
ATOM     14  C   UNL     1       3.475   6.206  18.122  0.00  0.00    +0.000 C 
ATOM     15  S   UNL     1       1.593   4.306  18.811  0.00  0.00    +0.000 S 
ATOM     16  H   UNL     1       3.746   1.755  17.692  0.00  0.00    +0.000 HD
ENDBRANCH   1  14
BRANCH   4  17
ATOM     17  O   UNL     1       0.306  10.633  19.621  0.00  0.00    +0.000 OA
BRANCH  17  18
ATOM     18  C   UNL     1      -0.161  11.472  18.562  0.00  0.00    +0.000 C 
BRANCH  18  19
ATOM     19  C   UNL     1      -1.613  11.231  18.227  0.00  0.00    +0.000 A 
ATOM     20  C   UNL     1      -1.932  10.214  17.313  0.00  0.00    +0.000 A 
ATOM     21  C   UNL     1      -3.262   9.923  17.009  0.00  0.00    +0.000 A 
ATOM     22  C   UNL     1      -4.285  10.638  17.625  0.00  0.00    +0.000 A 
ATOM     23  C   UNL     1      -3.982  11.636  18.550  0.00  0.00    +0.000 A 
ATOM     24  C   UNL     1      -2.651  11.928  18.857  0.00  0.00    +0.000 A 
ENDBRANCH  18  19
ENDBRANCH  17  18
ENDBRANCH   4  17
TORSDOF 4
ENDMDL
