MODEL 1
REMARK VINA RESULT:      -7.1      0.000      0.000
REMARK  Name = 
REMARK  8 active torsions:
REMARK  status: ('A' for Active; 'I' for Inactive)
REMARK    1  A    between atoms: C_1  and  N_2
REMARK    2  A    between atoms: C_3  and  C_5
REMARK    3  A    between atoms: C_5  and  C_6
REMARK    4  A    between atoms: C_6  and  N_7
REMARK    5  A    between atoms: N_7  and  C_8
REMARK    6  A    between atoms: C_9  and  C_11
REMARK    7  A    between atoms: C_14  and  C_15
REMARK    8  A    between atoms: C_19  and  C_20
REMARK                            x       y       z     vdW  Elec       q    Type
REMARK                         _______ _______ _______ _____ _____    ______ ____
ROOT
ATOM      1  C   UNL     1       7.440   6.679  17.562  0.00  0.00    +0.000 A 
ATOM      2  C   UNL     1       8.120   6.506  18.746  0.00  0.00    +0.000 A 
ATOM      3  O   UNL     1       8.643   7.705  19.128  0.00  0.00    +0.000 OA
ATOM      4  C   UNL     1       8.229   8.576  18.157  0.00  0.00    +0.000 A 
ATOM      5  N   UNL     1       7.502   8.018  17.210  0.00  0.00    +0.000 NA
ENDROOT
BRANCH   4   6
ATOM      6  C   UNL     1       8.656   9.965  18.278  0.00  0.00    +0.000 A 
ATOM      7  C   UNL     1       8.117  10.975  17.483  0.00  0.00    +0.000 A 
ATOM      8  C   UNL     1       8.562  12.271  17.675  0.00  0.00    +0.000 A 
ATOM      9  N   UNL     1       9.490  12.622  18.592  0.00  0.00    +0.000 NA
ATOM     10  C   UNL     1      10.011  11.642  19.357  0.00  0.00    +0.000 A 
ATOM     11  C   UNL     1      11.044  12.031  20.372  0.00  0.00    +0.000 C 
ATOM     12  C   UNL     1       9.622  10.310  19.230  0.00  0.00    +0.000 A 
ENDBRANCH   4   6
BRANCH   1  15
ATOM     13  N   UNL     1       5.362   5.488  16.945  0.00  0.00    +0.000 N 
ATOM     14  C   UNL     1       4.600   6.321  17.867  0.00  0.00    +0.000 C 
ATOM     15  C   UNL     1       6.761   5.612  16.818  0.00  0.00    +0.000 C 
ATOM     16  O   UNL     1       7.415   4.880  16.075  0.00  0.00    +0.000 OA
BRANCH  13  17
ATOM     17  C   UNL     1       4.714   4.312  16.334  0.00  0.00    +0.000 C 
BRANCH  17  18
ATOM     18  C   UNL     1       3.450   3.855  17.059  0.00  0.00    +0.000 C 
BRANCH  18  21
ATOM     19  C   UNL     1       4.435   2.221  20.308  0.00  0.00    +0.000 C 
ATOM     20  N   UNL     1       4.108   3.150  19.259  0.00  0.00    +0.000 N 
ATOM     21  C   UNL     1       3.704   2.712  18.013  0.00  0.00    +0.000 C 
ATOM     22  O   UNL     1       3.593   1.530  17.714  0.00  0.00    +0.000 OA
ATOM     23  H   UNL     1       4.203   4.142  19.438  0.00  0.00    +0.000 HD
ENDBRANCH  18  21
ENDBRANCH  17  18
ENDBRANCH  13  17
ENDBRANCH   1  15
TORSDOF 5
ENDMDL
MODEL 2
REMARK VINA RESULT:      -7.0      4.594      6.731
REMARK  Name = 
REMARK  8 active torsions:
REMARK  status: ('A' for Active; 'I' for Inactive)
REMARK    1  A    between atoms: C_1  and  N_2
REMARK    2  A    between atoms: C_3  and  C_5
REMARK    3  A    between atoms: C_5  and  C_6
REMARK    4  A    between atoms: C_6  and  N_7
REMARK    5  A    between atoms: N_7  and  C_8
REMARK    6  A    between atoms: C_9  and  C_11
REMARK    7  A    between atoms: C_14  and  C_15
REMARK    8  A    between atoms: C_19  and  C_20
REMARK                            x       y       z     vdW  Elec       q    Type
REMARK                         _______ _______ _______ _____ _____    ______ ____
ROOT
ATOM      1  C   UNL     1       3.341   5.204  18.536  0.00  0.00    +0.000 A 
ATOM      2  C   UNL     1       3.110   4.777  19.824  0.00  0.00    +0.000 A 
ATOM      3  O   UNL     1       2.441   5.755  20.495  0.00  0.00    +0.000 OA
ATOM      4  C   UNL     1       2.267   6.743  19.563  0.00  0.00    +0.000 A 
ATOM      5  N   UNL     1       2.774   6.460  18.380  0.00  0.00    +0.000 NA
ENDROOT
BRANCH   4   6
ATOM      6  C   UNL     1       1.585   7.958  19.994  0.00  0.00    +0.000 A 
ATOM      7  C   UNL     1       1.364   9.027  19.129  0.00  0.00    +0.000 A 
ATOM      8  C   UNL     1       0.692  10.136  19.612  0.00  0.00    +0.000 A 
ATOM      9  N   UNL     1       0.230  10.247  20.876  0.00  0.00    +0.000 NA
ATOM     10  C   UNL     1       0.449   9.212  21.712  0.00  0.00    +0.000 A 
ATOM     11  C   UNL     1      -0.060   9.337  23.118  0.00  0.00    +0.000 C 
ATOM     12  C   UNL     1       1.118   8.057  21.310  0.00  0.00    +0.000 A 
ENDBRANCH   4   6
BRANCH   1  15
ATOM     13  N   UNL     1       5.446   4.659  17.358  0.00  0.00    +0.000 N 
ATOM     14  C   UNL     1       6.147   5.688  18.116  0.00  0.00    +0.000 C 
ATOM     15  C   UNL     1       4.062   4.440  17.512  0.00  0.00    +0.000 C 
ATOM     16  O   UNL     1       3.457   3.603  16.841  0.00  0.00    +0.000 OA
BRANCH  13  17
ATOM     17  C   UNL     1       6.125   4.018  16.216  0.00  0.00    +0.000 C 
BRANCH  17  18
ATOM     18  C   UNL     1       7.039   4.958  15.432  0.00  0.00    +0.000 C 
BRANCH  18  21
ATOM     19  C   UNL     1       6.096   3.156  12.261  0.00  0.00    +0.000 C 
ATOM     20  N   UNL     1       6.232   3.600  13.623  0.00  0.00    +0.000 N 
ATOM     21  C   UNL     1       7.009   4.696  13.946  0.00  0.00    +0.000 C 
ATOM     22  O   UNL     1       7.620   5.360  13.119  0.00  0.00    +0.000 OA
ATOM     23  H   UNL     1       5.769   3.077  14.355  0.00  0.00    +0.000 HD
ENDBRANCH  18  21
ENDBRANCH  17  18
ENDBRANCH  13  17
ENDBRANCH   1  15
TORSDOF 5
ENDMDL
MODEL 3
REMARK VINA RESULT:      -6.9      4.625      6.473
REMARK  Name = 
REMARK  8 active torsions:
REMARK  status: ('A' for Active; 'I' for Inactive)
REMARK    1  A    between atoms: C_1  and  N_2
REMARK    2  A    between atoms: C_3  and  C_5
REMARK    3  A    between atoms: C_5  and  C_6
REMARK    4  A    between atoms: C_6  and  N_7
REMARK    5  A    between atoms: N_7  and  C_8
REMARK    6  A    between atoms: C_9  and  C_11
REMARK    7  A    between atoms: C_14  and  C_15
REMARK    8  A    between atoms: C_19  and  C_20
REMARK                            x       y       z     vdW  Elec       q    Type
REMARK                         _______ _______ _______ _____ _____    ______ ____
ROOT
ATOM      1  C   UNL     1       5.623   4.598  17.881  0.00  0.00    +0.000 A 
ATOM      2  C   UNL     1       6.953   4.950  17.946  0.00  0.00    +0.000 A 
ATOM      3  O   UNL     1       7.469   4.937  16.685  0.00  0.00    +0.000 OA
ATOM      4  C   UNL     1       6.407   4.597  15.890  0.00  0.00    +0.000 A 
ATOM      5  N   UNL     1       5.285   4.396  16.551  0.00  0.00    +0.000 NA
ENDROOT
BRANCH   4   6
ATOM      6  C   UNL     1       6.654   4.479  14.458  0.00  0.00    +0.000 A 
ATOM      7  C   UNL     1       7.594   5.271  13.802  0.00  0.00    +0.000 A 
ATOM      8  C   UNL     1       7.782   5.082  12.444  0.00  0.00    +0.000 A 
ATOM      9  N   UNL     1       7.109   4.170  11.709  0.00  0.00    +0.000 NA
ATOM     10  C   UNL     1       6.197   3.408  12.347  0.00  0.00    +0.000 A 
ATOM     11  C   UNL     1       5.447   2.398  11.530  0.00  0.00    +0.000 C 
ATOM     12  C   UNL     1       5.943   3.532  13.711  0.00  0.00    +0.000 A 
ENDBRANCH   4   6
BRANCH   1  15
ATOM     13  N   UNL     1       3.738   5.455  19.231  0.00  0.00    +0.000 N 
ATOM     14  C   UNL     1       3.650   6.634  18.377  0.00  0.00    +0.000 C 
ATOM     15  C   UNL     1       4.728   4.471  19.037  0.00  0.00    +0.000 C 
ATOM     16  O   UNL     1       4.835   3.498  19.783  0.00  0.00    +0.000 OA
BRANCH  13  17
ATOM     17  C   UNL     1       2.961   5.416  20.484  0.00  0.00    +0.000 C 
BRANCH  17  18
ATOM     18  C   UNL     1       1.508   4.982  20.299  0.00  0.00    +0.000 C 
BRANCH  18  21
ATOM     19  C   UNL     1       1.436   1.554  18.737  0.00  0.00    +0.000 C 
ATOM     20  N   UNL     1       1.571   2.962  19.000  0.00  0.00    +0.000 N 
ATOM     21  C   UNL     1       1.347   3.481  20.261  0.00  0.00    +0.000 C 
ATOM     22  O   UNL     1       1.029   2.799  21.227  0.00  0.00    +0.000 OA
ATOM     23  H   UNL     1       1.809   3.581  18.236  0.00  0.00    +0.000 HD
ENDBRANCH  18  21
ENDBRANCH  17  18
ENDBRANCH  13  17
ENDBRANCH   1  15
TORSDOF 5
ENDMDL
MODEL 4
REMARK VINA RESULT:      -6.9      4.662      6.710
REMARK  Name = 
REMARK  8 active torsions:
REMARK  status: ('A' for Active; 'I' for Inactive)
REMARK    1  A    between atoms: C_1  and  N_2
REMARK    2  A    between atoms: C_3  and  C_5
REMARK    3  A    between atoms: C_5  and  C_6
REMARK    4  A    between atoms: C_6  and  N_7
REMARK    5  A    between atoms: N_7  and  C_8
REMARK    6  A    between atoms: C_9  and  C_11
REMARK    7  A    between atoms: C_14  and  C_15
REMARK    8  A    between atoms: C_19  and  C_20
REMARK                            x       y       z     vdW  Elec       q    Type
REMARK                         _______ _______ _______ _____ _____    ______ ____
ROOT
ATOM      1  C   UNL     1       2.884   5.336  18.782  0.00  0.00    +0.000 A 
ATOM      2  C   UNL     1       2.551   4.902  20.045  0.00  0.00    +0.000 A 
ATOM      3  O   UNL     1       2.009   5.944  20.735  0.00  0.00    +0.000 OA
ATOM      4  C   UNL     1       2.012   6.979  19.839  0.00  0.00    +0.000 A 
ATOM      5  N   UNL     1       2.512   6.666  18.660  0.00  0.00    +0.000 NA
ENDROOT
BRANCH   4   6
ATOM      6  C   UNL     1       1.500   8.265  20.299  0.00  0.00    +0.000 A 
ATOM      7  C   UNL     1       1.306   8.542  21.650  0.00  0.00    +0.000 A 
ATOM      8  C   UNL     1       0.836   9.794  22.004  0.00  0.00    +0.000 A 
ATOM      9  N   UNL     1       0.556  10.773  21.117  0.00  0.00    +0.000 NA
ATOM     10  C   UNL     1       0.742  10.500  19.809  0.00  0.00    +0.000 A 
ATOM     11  C   UNL     1       0.427  11.586  18.824  0.00  0.00    +0.000 C 
ATOM     12  C   UNL     1       1.210   9.266  19.364  0.00  0.00    +0.000 A 
ENDBRANCH   4   6
BRANCH   1  15
ATOM     13  N   UNL     1       4.900   4.675  17.511  0.00  0.00    +0.000 N 
ATOM     14  C   UNL     1       5.677   5.705  18.190  0.00  0.00    +0.000 C 
ATOM     15  C   UNL     1       3.520   4.510  17.749  0.00  0.00    +0.000 C 
ATOM     16  O   UNL     1       2.851   3.672  17.144  0.00  0.00    +0.000 OA
BRANCH  13  17
ATOM     17  C   UNL     1       5.491   3.970  16.358  0.00  0.00    +0.000 C 
BRANCH  17  18
ATOM     18  C   UNL     1       6.875   4.482  15.963  0.00  0.00    +0.000 C 
BRANCH  18  21
ATOM     19  C   UNL     1       6.441   3.542  12.340  0.00  0.00    +0.000 C 
ATOM     20  N   UNL     1       6.382   3.620  13.776  0.00  0.00    +0.000 N 
ATOM     21  C   UNL     1       7.044   4.615  14.468  0.00  0.00    +0.000 C 
ATOM     22  O   UNL     1       7.710   5.488  13.927  0.00  0.00    +0.000 OA
ATOM     23  H   UNL     1       5.865   2.912  14.282  0.00  0.00    +0.000 HD
ENDBRANCH  18  21
ENDBRANCH  17  18
ENDBRANCH  13  17
ENDBRANCH   1  15
TORSDOF 5
ENDMDL
MODEL 5
REMARK VINA RESULT:      -6.9      1.229      1.345
REMARK  Name = 
REMARK  8 active torsions:
REMARK  status: ('A' for Active; 'I' for Inactive)
REMARK    1  A    between atoms: C_1  and  N_2
REMARK    2  A    between atoms: C_3  and  C_5
REMARK    3  A    between atoms: C_5  and  C_6
REMARK    4  A    between atoms: C_6  and  N_7
REMARK    5  A    between atoms: N_7  and  C_8
REMARK    6  A    between atoms: C_9  and  C_11
REMARK    7  A    between atoms: C_14  and  C_15
REMARK    8  A    between atoms: C_19  and  C_20
REMARK                            x       y       z     vdW  Elec       q    Type
REMARK                         _______ _______ _______ _____ _____    ______ ____
ROOT
ATOM      1  C   UNL     1       7.188   6.965  17.407  0.00  0.00    +0.000 A 
ATOM      2  C   UNL     1       7.992   6.652  18.480  0.00  0.00    +0.000 A 
ATOM      3  O   UNL     1       8.619   7.786  18.901  0.00  0.00    +0.000 OA
ATOM      4  C   UNL     1       8.142   8.763  18.069  0.00  0.00    +0.000 A 
ATOM      5  N   UNL     1       7.281   8.328  17.170  0.00  0.00    +0.000 NA
ENDROOT
BRANCH   4   6
ATOM      6  C   UNL     1       8.654  10.115  18.260  0.00  0.00    +0.000 A 
ATOM      7  C   UNL     1       8.184  11.195  17.516  0.00  0.00    +0.000 A 
ATOM      8  C   UNL     1       8.708  12.449  17.773  0.00  0.00    +0.000 A 
ATOM      9  N   UNL     1       9.650  12.695  18.709  0.00  0.00    +0.000 NA
ATOM     10  C   UNL     1      10.105  11.647  19.425  0.00  0.00    +0.000 A 
ATOM     11  C   UNL     1      11.154  11.920  20.462  0.00  0.00    +0.000 C 
ATOM     12  C   UNL     1       9.634  10.350  19.231  0.00  0.00    +0.000 A 
ENDBRANCH   4   6
BRANCH   1  15
ATOM     13  N   UNL     1       5.284   5.390  17.314  0.00  0.00    +0.000 N 
ATOM     14  C   UNL     1       5.021   5.610  18.731  0.00  0.00    +0.000 C 
ATOM     15  C   UNL     1       6.371   6.004  16.658  0.00  0.00    +0.000 C 
ATOM     16  O   UNL     1       6.625   5.785  15.473  0.00  0.00    +0.000 OA
BRANCH  13  17
ATOM     17  C   UNL     1       4.579   4.301  16.612  0.00  0.00    +0.000 C 
BRANCH  17  18
ATOM     18  C   UNL     1       4.041   3.213  17.538  0.00  0.00    +0.000 C 
BRANCH  18  21
ATOM     19  C   UNL     1       0.661   2.222  18.877  0.00  0.00    +0.000 C 
ATOM     20  N   UNL     1       2.056   2.294  18.532  0.00  0.00    +0.000 N 
ATOM     21  C   UNL     1       2.565   3.364  17.821  0.00  0.00    +0.000 C 
ATOM     22  O   UNL     1       1.886   4.311  17.444  0.00  0.00    +0.000 OA
ATOM     23  H   UNL     1       2.664   1.529  18.795  0.00  0.00    +0.000 HD
ENDBRANCH  18  21
ENDBRANCH  17  18
ENDBRANCH  13  17
ENDBRANCH   1  15
TORSDOF 5
ENDMDL
MODEL 6
REMARK VINA RESULT:      -6.9      5.504      7.276
REMARK  Name = 
REMARK  8 active torsions:
REMARK  status: ('A' for Active; 'I' for Inactive)
REMARK    1  A    between atoms: C_1  and  N_2
REMARK    2  A    between atoms: C_3  and  C_5
REMARK    3  A    between atoms: C_5  and  C_6
REMARK    4  A    between atoms: C_6  and  N_7
REMARK    5  A    between atoms: N_7  and  C_8
REMARK    6  A    between atoms: C_9  and  C_11
REMARK    7  A    between atoms: C_14  and  C_15
REMARK    8  A    between atoms: C_19  and  C_20
REMARK                            x       y       z     vdW  Elec       q    Type
REMARK                         _______ _______ _______ _____ _____    ______ ____
ROOT
ATOM      1  C   UNL     1       2.396   6.788  19.873  0.00  0.00    +0.000 A 
ATOM      2  C   UNL     1       2.289   7.662  18.815  0.00  0.00    +0.000 A 
ATOM      3  O   UNL     1       1.518   8.718  19.198  0.00  0.00    +0.000 OA
ATOM      4  C   UNL     1       1.205   8.450  20.503  0.00  0.00    +0.000 A 
ATOM      5  N   UNL     1       1.711   7.320  20.955  0.00  0.00    +0.000 NA
ENDROOT
BRANCH   4   6
ATOM      6  C   UNL     1       0.353   9.408  21.198  0.00  0.00    +0.000 A 
ATOM      7  C   UNL     1       0.032   9.269  22.547  0.00  0.00    +0.000 A 
ATOM      8  C   UNL     1      -0.766  10.233  23.137  0.00  0.00    +0.000 A 
ATOM      9  N   UNL     1      -1.255  11.310  22.484  0.00  0.00    +0.000 NA
ATOM     10  C   UNL     1      -0.945  11.440  21.178  0.00  0.00    +0.000 A 
ATOM     11  C   UNL     1      -1.491  12.633  20.452  0.00  0.00    +0.000 C 
ATOM     12  C   UNL     1      -0.149  10.515  20.505  0.00  0.00    +0.000 A 
ENDBRANCH   4   6
BRANCH   1  15
ATOM     13  N   UNL     1       2.397   4.319  20.016  0.00  0.00    +0.000 N 
ATOM     14  C   UNL     1       0.972   4.327  20.320  0.00  0.00    +0.000 C 
ATOM     15  C   UNL     1       3.125   5.515  19.843  0.00  0.00    +0.000 C 
ATOM     16  O   UNL     1       4.337   5.514  19.631  0.00  0.00    +0.000 OA
BRANCH  13  17
ATOM     17  C   UNL     1       3.157   3.063  20.158  0.00  0.00    +0.000 C 
BRANCH  17  18
ATOM     18  C   UNL     1       3.038   2.128  18.957  0.00  0.00    +0.000 C 
BRANCH  18  21
ATOM     19  C   UNL     1       4.997   3.928  16.290  0.00  0.00    +0.000 C 
ATOM     20  N   UNL     1       4.577   3.210  17.463  0.00  0.00    +0.000 N 
ATOM     21  C   UNL     1       3.259   2.835  17.641  0.00  0.00    +0.000 C 
ATOM     22  O   UNL     1       2.372   3.075  16.833  0.00  0.00    +0.000 OA
ATOM     23  H   UNL     1       5.261   3.002  18.180  0.00  0.00    +0.000 HD
ENDBRANCH  18  21
ENDBRANCH  17  18
ENDBRANCH  13  17
ENDBRANCH   1  15
TORSDOF 5
ENDMDL
MODEL 7
REMARK VINA RESULT:      -6.9      4.717      6.611
REMARK  Name = 
REMARK  8 active torsions:
REMARK  status: ('A' for Active; 'I' for Inactive)
REMARK    1  A    between atoms: C_1  and  N_2
REMARK    2  A    between atoms: C_3  and  C_5
REMARK    3  A    between atoms: C_5  and  C_6
REMARK    4  A    between atoms: C_6  and  N_7
REMARK    5  A    between atoms: N_7  and  C_8
REMARK    6  A    between atoms: C_9  and  C_11
REMARK    7  A    between atoms: C_14  and  C_15
REMARK    8  A    between atoms: C_19  and  C_20
REMARK                            x       y       z     vdW  Elec       q    Type
REMARK                         _______ _______ _______ _____ _____    ______ ____
ROOT
ATOM      1  C   UNL     1       6.016   4.569  17.843  0.00  0.00    +0.000 A 
ATOM      2  C   UNL     1       7.392   4.554  17.835  0.00  0.00    +0.000 A 
ATOM      3  O   UNL     1       7.820   4.498  16.542  0.00  0.00    +0.000 OA
ATOM      4  C   UNL     1       6.666   4.508  15.805  0.00  0.00    +0.000 A 
ATOM      5  N   UNL     1       5.567   4.560  16.531  0.00  0.00    +0.000 NA
ENDROOT
BRANCH   4   6
ATOM      6  C   UNL     1       6.797   4.435  14.355  0.00  0.00    +0.000 A 
ATOM      7  C   UNL     1       7.654   5.275  13.647  0.00  0.00    +0.000 A 
ATOM      8  C   UNL     1       7.735   5.127  12.274  0.00  0.00    +0.000 A 
ATOM      9  N   UNL     1       7.034   4.211  11.571  0.00  0.00    +0.000 NA
ATOM     10  C   UNL     1       6.203   3.401  12.259  0.00  0.00    +0.000 A 
ATOM     11  C   UNL     1       5.421   2.387  11.479  0.00  0.00    +0.000 C 
ATOM     12  C   UNL     1       6.059   3.482  13.643  0.00  0.00    +0.000 A 
ENDBRANCH   4   6
BRANCH   1  15
ATOM     13  N   UNL     1       4.277   3.537  19.267  0.00  0.00    +0.000 N 
ATOM     14  C   UNL     1       4.083   2.481  18.281  0.00  0.00    +0.000 C 
ATOM     15  C   UNL     1       5.181   4.597  19.049  0.00  0.00    +0.000 C 
ATOM     16  O   UNL     1       5.314   5.516  19.858  0.00  0.00    +0.000 OA
BRANCH  13  17
ATOM     17  C   UNL     1       3.323   3.661  20.385  0.00  0.00    +0.000 C 
BRANCH  17  18
ATOM     18  C   UNL     1       1.931   4.127  19.964  0.00  0.00    +0.000 C 
BRANCH  18  21
ATOM     19  C   UNL     1       2.352   7.677  18.775  0.00  0.00    +0.000 C 
ATOM     20  N   UNL     1       2.293   6.464  19.548  0.00  0.00    +0.000 N 
ATOM     21  C   UNL     1       1.971   5.256  18.962  0.00  0.00    +0.000 C 
ATOM     22  O   UNL     1       1.722   5.126  17.771  0.00  0.00    +0.000 OA
ATOM     23  H   UNL     1       2.467   6.512  20.544  0.00  0.00    +0.000 HD
ENDBRANCH  18  21
ENDBRANCH  17  18
ENDBRANCH  13  17
ENDBRANCH   1  15
TORSDOF 5
ENDMDL
MODEL 8
REMARK VINA RESULT:      -6.8      4.607      6.655
REMARK  Name = 
REMARK  8 active torsions:
REMARK  status: ('A' for Active; 'I' for Inactive)
REMARK    1  A    between atoms: C_1  and  N_2
REMARK    2  A    between atoms: C_3  and  C_5
REMARK    3  A    between atoms: C_5  and  C_6
REMARK    4  A    between atoms: C_6  and  N_7
REMARK    5  A    between atoms: N_7  and  C_8
REMARK    6  A    between atoms: C_9  and  C_11
REMARK    7  A    between atoms: C_14  and  C_15
REMARK    8  A    between atoms: C_19  and  C_20
REMARK                            x       y       z     vdW  Elec       q    Type
REMARK                         _______ _______ _______ _____ _____    ______ ____
ROOT
ATOM      1  C   UNL     1       2.659   6.094  18.565  0.00  0.00    +0.000 A 
ATOM      2  C   UNL     1       2.505   5.973  19.928  0.00  0.00    +0.000 A 
ATOM      3  O   UNL     1       1.998   7.140  20.414  0.00  0.00    +0.000 OA
ATOM      4  C   UNL     1       1.837   7.925  19.304  0.00  0.00    +0.000 A 
ATOM      5  N   UNL     1       2.206   7.346  18.180  0.00  0.00    +0.000 NA
ENDROOT
BRANCH   4   6
ATOM      6  C   UNL     1       1.319   9.273  19.507  0.00  0.00    +0.000 A 
ATOM      7  C   UNL     1       1.410  10.255  18.523  0.00  0.00    +0.000 A 
ATOM      8  C   UNL     1       0.876  11.504  18.788  0.00  0.00    +0.000 A 
ATOM      9  N   UNL     1       0.263  11.832  19.946  0.00  0.00    +0.000 NA
ATOM     10  C   UNL     1       0.179  10.880  20.897  0.00  0.00    +0.000 A 
ATOM     11  C   UNL     1      -0.497  11.246  22.185  0.00  0.00    +0.000 C 
ATOM     12  C   UNL     1       0.692   9.597  20.716  0.00  0.00    +0.000 A 
ENDBRANCH   4   6
BRANCH   1  15
ATOM     13  N   UNL     1       4.532   5.194  17.224  0.00  0.00    +0.000 N 
ATOM     14  C   UNL     1       5.325   6.381  17.519  0.00  0.00    +0.000 C 
ATOM     15  C   UNL     1       3.207   5.056  17.684  0.00  0.00    +0.000 C 
ATOM     16  O   UNL     1       2.518   4.076  17.400  0.00  0.00    +0.000 OA
BRANCH  13  17
ATOM     17  C   UNL     1       5.013   4.242  16.206  0.00  0.00    +0.000 C 
BRANCH  17  18
ATOM     18  C   UNL     1       6.521   4.299  15.967  0.00  0.00    +0.000 C 
BRANCH  18  21
ATOM     19  C   UNL     1       6.522   3.565  12.271  0.00  0.00    +0.000 C 
ATOM     20  N   UNL     1       6.287   3.567  13.691  0.00  0.00    +0.000 N 
ATOM     21  C   UNL     1       6.875   4.508  14.514  0.00  0.00    +0.000 C 
ATOM     22  O   UNL     1       7.617   5.393  14.108  0.00  0.00    +0.000 OA
ATOM     23  H   UNL     1       5.700   2.845  14.090  0.00  0.00    +0.000 HD
ENDBRANCH  18  21
ENDBRANCH  17  18
ENDBRANCH  13  17
ENDBRANCH   1  15
TORSDOF 5
ENDMDL
MODEL 9
REMARK VINA RESULT:      -6.8      4.406      6.392
REMARK  Name = 
REMARK  8 active torsions:
REMARK  status: ('A' for Active; 'I' for Inactive)
REMARK    1  A    between atoms: C_1  and  N_2
REMARK    2  A    between atoms: C_3  and  C_5
REMARK    3  A    between atoms: C_5  and  C_6
REMARK    4  A    between atoms: C_6  and  N_7
REMARK    5  A    between atoms: N_7  and  C_8
REMARK    6  A    between atoms: C_9  and  C_11
REMARK    7  A    between atoms: C_14  and  C_15
REMARK    8  A    between atoms: C_19  and  C_20
REMARK                            x       y       z     vdW  Elec       q    Type
REMARK                         _______ _______ _______ _____ _____    ______ ____
ROOT
ATOM      1  C   UNL     1       4.924   5.503  17.676  0.00  0.00    +0.000 A 
ATOM      2  C   UNL     1       5.351   6.750  17.278  0.00  0.00    +0.000 A 
ATOM      3  O   UNL     1       5.889   6.649  16.031  0.00  0.00    +0.000 OA
ATOM      4  C   UNL     1       5.739   5.328  15.706  0.00  0.00    +0.000 A 
ATOM      5  N   UNL     1       5.162   4.607  16.646  0.00  0.00    +0.000 NA
ENDROOT
BRANCH   4   6
ATOM      6  C   UNL     1       6.248   4.895  14.410  0.00  0.00    +0.000 A 
ATOM      7  C   UNL     1       7.429   5.402  13.873  0.00  0.00    +0.000 A 
ATOM      8  C   UNL     1       7.854   4.924  12.646  0.00  0.00    +0.000 A 
ATOM      9  N   UNL     1       7.193   3.986  11.932  0.00  0.00    +0.000 NA
ATOM     10  C   UNL     1       6.048   3.499  12.454  0.00  0.00    +0.000 A 
ATOM     11  C   UNL     1       5.313   2.462  11.659  0.00  0.00    +0.000 C 
ATOM     12  C   UNL     1       5.547   3.926  13.682  0.00  0.00    +0.000 A 
ENDBRANCH   4   6
BRANCH   1  15
ATOM     13  N   UNL     1       2.914   5.309  19.103  0.00  0.00    +0.000 N 
ATOM     14  C   UNL     1       2.083   5.814  18.016  0.00  0.00    +0.000 C 
ATOM     15  C   UNL     1       4.313   5.197  18.975  0.00  0.00    +0.000 C 
ATOM     16  O   UNL     1       5.024   4.815  19.905  0.00  0.00    +0.000 OA
BRANCH  13  17
ATOM     17  C   UNL     1       2.330   5.170  20.450  0.00  0.00    +0.000 C 
BRANCH  17  18
ATOM     18  C   UNL     1       1.514   3.893  20.643  0.00  0.00    +0.000 C 
BRANCH  18  21
ATOM     19  C   UNL     1       3.514   1.377  18.676  0.00  0.00    +0.000 C 
ATOM     20  N   UNL     1       3.050   2.347  19.633  0.00  0.00    +0.000 N 
ATOM     21  C   UNL     1       1.772   2.867  19.566  0.00  0.00    +0.000 C 
ATOM     22  O   UNL     1       0.955   2.547  18.712  0.00  0.00    +0.000 OA
ATOM     23  H   UNL     1       3.688   2.670  20.349  0.00  0.00    +0.000 HD
ENDBRANCH  18  21
ENDBRANCH  17  18
ENDBRANCH  13  17
ENDBRANCH   1  15
TORSDOF 5
ENDMDL
