MODEL 1
REMARK VINA RESULT:      -9.0      0.000      0.000
REMARK  Name = 
REMARK  4 active torsions:
REMARK  status: ('A' for Active; 'I' for Inactive)
REMARK    1  A    between atoms: C_2  and  C_3
REMARK    2  A    between atoms: C_7  and  C_8
REMARK    3  A    between atoms: C_21  and  O_22
REMARK    4  A    between atoms: O_22  and  C_23
REMARK                            x       y       z     vdW  Elec       q    Type
REMARK                         _______ _______ _______ _____ _____    ______ ____
ROOT
ATOM      1  O   UNL     1       4.614   2.764  18.427  0.00  0.00    +0.000 OA
ATOM      2  C   UNL     1       4.462   3.859  17.888  0.00  0.00    +0.000 C 
ATOM      3  N   UNL     1       3.512   4.785  18.317  0.00  0.00    +0.000 N 
ATOM      4  C   UNL     1       2.576   4.420  19.404  0.00  0.00    +0.000 C 
ATOM      5  C   UNL     1       2.463   5.521  20.493  0.00  0.00    +0.000 C 
ATOM      6  N   UNL     1       2.240   6.805  19.837  0.00  0.00    +0.000 N 
ATOM      7  C   UNL     1       1.399   7.766  20.313  0.00  0.00    +0.000 A 
ATOM      8  N   UNL     1       0.853   7.658  21.531  0.00  0.00    +0.000 NA
ATOM      9  C   UNL     1       0.047   8.662  21.934  0.00  0.00    +0.000 A 
ATOM     10  C   UNL     1      -0.251   9.762  21.170  0.00  0.00    +0.000 A 
ATOM     11  C   UNL     1       0.352   9.783  19.942  0.00  0.00    +0.000 A 
ATOM     12  N   UNL     1       1.149   8.802  19.501  0.00  0.00    +0.000 NA
ATOM     13  C   UNL     1       3.250   7.197  18.867  0.00  0.00    +0.000 C 
ATOM     14  C   UNL     1       3.314   6.139  17.772  0.00  0.00    +0.000 C 
ENDROOT
BRANCH   2  15
ATOM     15  C   UNL     1       5.396   4.216  16.783  0.00  0.00    +0.000 A 
ATOM     16  C   UNL     1       6.356   5.204  17.028  0.00  0.00    +0.000 A 
ATOM     17  C   UNL     1       7.175   5.657  15.993  0.00  0.00    +0.000 A 
ATOM     18  C   UNL     1       7.020   5.145  14.703  0.00  0.00    +0.000 A 
ATOM     19  C   UNL     1       6.085   4.131  14.448  0.00  0.00    +0.000 A 
ATOM     20  C   UNL     1       5.324   3.627  15.515  0.00  0.00    +0.000 A 
BRANCH  19  21
ATOM     21  C   UNL     1       5.826   3.632  13.047  0.00  0.00    +0.000 C 
ATOM     22  F   UNL     1       5.986   2.288  12.904  0.00  0.00    +0.000 F 
ATOM     23  F   UNL     1       4.569   3.914  12.613  0.00  0.00    +0.000 F 
ATOM     24  F   UNL     1       6.670   4.205  12.143  0.00  0.00    +0.000 F 
ENDBRANCH  19  21
ENDBRANCH   2  15
BRANCH  11  25
ATOM     25  O   UNL     1       0.097  10.871  19.114  0.00  0.00    +0.000 OA
BRANCH  25  26
ATOM     26  C   UNL     1      -1.134  10.932  18.492  0.00  0.00    +0.000 A 
ATOM     27  C   UNL     1      -2.151  11.624  19.153  0.00  0.00    +0.000 A 
ATOM     28  C   UNL     1      -3.404  11.754  18.553  0.00  0.00    +0.000 A 
ATOM     29 CL   UNL     1      -4.659  12.607  19.369  0.00  0.00    +0.000 Cl
ATOM     30  C   UNL     1      -3.654  11.206  17.296  0.00  0.00    +0.000 A 
ATOM     31  C   UNL     1      -2.631  10.533  16.635  0.00  0.00    +0.000 A 
ATOM     32 CL   UNL     1      -2.925   9.839  15.088  0.00  0.00    +0.000 Cl
ATOM     33  C   UNL     1      -1.370  10.411  17.215  0.00  0.00    +0.000 A 
ENDBRANCH  25  26
ENDBRANCH  11  25
TORSDOF 4
ENDMDL
MODEL 2
REMARK VINA RESULT:      -8.6      2.568      3.178
REMARK  Name = 
REMARK  4 active torsions:
REMARK  status: ('A' for Active; 'I' for Inactive)
REMARK    1  A    between atoms: C_2  and  C_3
REMARK    2  A    between atoms: C_7  and  C_8
REMARK    3  A    between atoms: C_21  and  O_22
REMARK    4  A    between atoms: O_22  and  C_23
REMARK                            x       y       z     vdW  Elec       q    Type
REMARK                         _______ _______ _______ _____ _____    ______ ____
ROOT
ATOM      1  O   UNL     1       4.704   2.846  18.292  0.00  0.00    +0.000 OA
ATOM      2  C   UNL     1       4.589   3.898  17.665  0.00  0.00    +0.000 C 
ATOM      3  N   UNL     1       3.673   4.888  18.016  0.00  0.00    +0.000 N 
ATOM      4  C   UNL     1       2.728   4.646  19.130  0.00  0.00    +0.000 C 
ATOM      5  C   UNL     1       2.656   5.836  20.125  0.00  0.00    +0.000 C 
ATOM      6  N   UNL     1       2.476   7.069  19.366  0.00  0.00    +0.000 N 
ATOM      7  C   UNL     1       1.671   8.095  19.761  0.00  0.00    +0.000 A 
ATOM      8  N   UNL     1       1.125   8.106  20.984  0.00  0.00    +0.000 NA
ATOM      9  C   UNL     1       0.355   9.167  21.304  0.00  0.00    +0.000 A 
ATOM     10  C   UNL     1       0.094  10.211  20.452  0.00  0.00    +0.000 A 
ATOM     11  C   UNL     1       0.694  10.110  19.227  0.00  0.00    +0.000 A 
ATOM     12  N   UNL     1       1.455   9.069  18.867  0.00  0.00    +0.000 NA
ATOM     13  C   UNL     1       3.497   7.344  18.367  0.00  0.00    +0.000 C 
ATOM     14  C   UNL     1       3.521   6.199  17.362  0.00  0.00    +0.000 C 
ENDROOT
BRANCH   2  15
ATOM     15  C   UNL     1       5.532   4.129  16.535  0.00  0.00    +0.000 A 
ATOM     16  C   UNL     1       6.640   4.953  16.763  0.00  0.00    +0.000 A 
ATOM     17  C   UNL     1       7.486   5.296  15.707  0.00  0.00    +0.000 A 
ATOM     18  C   UNL     1       7.213   4.842  14.416  0.00  0.00    +0.000 A 
ATOM     19  C   UNL     1       6.126   3.988  14.177  0.00  0.00    +0.000 A 
ATOM     20  C   UNL     1       5.330   3.585  15.261  0.00  0.00    +0.000 A 
BRANCH  19  21
ATOM     21  C   UNL     1       5.749   3.565  12.777  0.00  0.00    +0.000 C 
ATOM     22  F   UNL     1       5.946   2.241  12.532  0.00  0.00    +0.000 F 
ATOM     23  F   UNL     1       4.445   3.816  12.486  0.00  0.00    +0.000 F 
ATOM     24  F   UNL     1       6.476   4.231  11.835  0.00  0.00    +0.000 F 
ENDBRANCH  19  21
ENDBRANCH   2  15
BRANCH  11  25
ATOM     25  O   UNL     1       0.475  11.134  18.312  0.00  0.00    +0.000 OA
BRANCH  25  26
ATOM     26  C   UNL     1       0.936  12.396  18.635  0.00  0.00    +0.000 A 
ATOM     27  C   UNL     1       2.265  12.689  18.322  0.00  0.00    +0.000 A 
ATOM     28  C   UNL     1       2.774  13.961  18.588  0.00  0.00    +0.000 A 
ATOM     29 CL   UNL     1       4.413  14.324  18.203  0.00  0.00    +0.000 Cl
ATOM     30  C   UNL     1       1.971  14.947  19.158  0.00  0.00    +0.000 A 
ATOM     31  C   UNL     1       0.643  14.653  19.452  0.00  0.00    +0.000 A 
ATOM     32 CL   UNL     1      -0.361  15.853  20.168  0.00  0.00    +0.000 Cl
ATOM     33  C   UNL     1       0.116  13.392  19.175  0.00  0.00    +0.000 A 
ENDBRANCH  25  26
ENDBRANCH  11  25
TORSDOF 4
ENDMDL
MODEL 3
REMARK VINA RESULT:      -8.6      2.784      3.190
REMARK  Name = 
REMARK  4 active torsions:
REMARK  status: ('A' for Active; 'I' for Inactive)
REMARK    1  A    between atoms: C_2  and  C_3
REMARK    2  A    between atoms: C_7  and  C_8
REMARK    3  A    between atoms: C_21  and  O_22
REMARK    4  A    between atoms: O_22  and  C_23
REMARK                            x       y       z     vdW  Elec       q    Type
REMARK                         _______ _______ _______ _____ _____    ______ ____
ROOT
ATOM      1  O   UNL     1       4.403   2.624  17.831  0.00  0.00    +0.000 OA
ATOM      2  C   UNL     1       4.387   3.741  17.319  0.00  0.00    +0.000 C 
ATOM      3  N   UNL     1       3.535   4.756  17.751  0.00  0.00    +0.000 N 
ATOM      4  C   UNL     1       2.537   4.472  18.806  0.00  0.00    +0.000 C 
ATOM      5  C   UNL     1       2.518   5.552  19.921  0.00  0.00    +0.000 C 
ATOM      6  N   UNL     1       2.456   6.868  19.296  0.00  0.00    +0.000 N 
ATOM      7  C   UNL     1       1.715   7.905  19.778  0.00  0.00    +0.000 A 
ATOM      8  N   UNL     1       1.130   7.829  20.980  0.00  0.00    +0.000 NA
ATOM      9  C   UNL     1       0.430   8.907  21.392  0.00  0.00    +0.000 A 
ATOM     10  C   UNL     1       0.275  10.051  20.652  0.00  0.00    +0.000 A 
ATOM     11  C   UNL     1       0.909  10.035  19.439  0.00  0.00    +0.000 A 
ATOM     12  N   UNL     1       1.603   8.982  18.989  0.00  0.00    +0.000 NA
ATOM     13  C   UNL     1       3.528   7.168  18.360  0.00  0.00    +0.000 C 
ATOM     14  C   UNL     1       3.502   6.137  17.238  0.00  0.00    +0.000 C 
ENDROOT
BRANCH   2  15
ATOM     15  C   UNL     1       5.383   4.018  16.246  0.00  0.00    +0.000 A 
ATOM     16  C   UNL     1       6.448   4.876  16.544  0.00  0.00    +0.000 A 
ATOM     17  C   UNL     1       7.340   5.259  15.541  0.00  0.00    +0.000 A 
ATOM     18  C   UNL     1       7.155   4.812  14.232  0.00  0.00    +0.000 A 
ATOM     19  C   UNL     1       6.113   3.926  13.923  0.00  0.00    +0.000 A 
ATOM     20  C   UNL     1       5.271   3.483  14.957  0.00  0.00    +0.000 A 
BRANCH  19  21
ATOM     21  C   UNL     1       5.829   3.507  12.501  0.00  0.00    +0.000 C 
ATOM     22  F   UNL     1       5.880   2.161  12.303  0.00  0.00    +0.000 F 
ATOM     23  F   UNL     1       4.604   3.908  12.069  0.00  0.00    +0.000 F 
ATOM     24  F   UNL     1       6.726   4.045  11.627  0.00  0.00    +0.000 F 
ENDBRANCH  19  21
ENDBRANCH   2  15
BRANCH  11  25
ATOM     25  O   UNL     1       0.798  11.164  18.635  0.00  0.00    +0.000 OA
BRANCH  25  26
ATOM     26  C   UNL     1       1.476  12.302  19.026  0.00  0.00    +0.000 A 
ATOM     27  C   UNL     1       1.029  12.948  20.180  0.00  0.00    +0.000 A 
ATOM     28  C   UNL     1       1.701  14.079  20.646  0.00  0.00    +0.000 A 
ATOM     29 CL   UNL     1       1.150  14.876  22.070  0.00  0.00    +0.000 Cl
ATOM     30  C   UNL     1       2.818  14.572  19.975  0.00  0.00    +0.000 A 
ATOM     31  C   UNL     1       3.269  13.914  18.834  0.00  0.00    +0.000 A 
ATOM     32 CL   UNL     1       4.640  14.515  17.986  0.00  0.00    +0.000 Cl
ATOM     33  C   UNL     1       2.618  12.773  18.368  0.00  0.00    +0.000 A 
ENDBRANCH  25  26
ENDBRANCH  11  25
TORSDOF 4
ENDMDL
MODEL 4
REMARK VINA RESULT:      -8.6      2.658      3.254
REMARK  Name = 
REMARK  4 active torsions:
REMARK  status: ('A' for Active; 'I' for Inactive)
REMARK    1  A    between atoms: C_2  and  C_3
REMARK    2  A    between atoms: C_7  and  C_8
REMARK    3  A    between atoms: C_21  and  O_22
REMARK    4  A    between atoms: O_22  and  C_23
REMARK                            x       y       z     vdW  Elec       q    Type
REMARK                         _______ _______ _______ _____ _____    ______ ____
ROOT
ATOM      1  O   UNL     1       3.947   2.923  19.401  0.00  0.00    +0.000 OA
ATOM      2  C   UNL     1       4.039   3.972  18.766  0.00  0.00    +0.000 C 
ATOM      3  N   UNL     1       3.144   5.028  18.921  0.00  0.00    +0.000 N 
ATOM      4  C   UNL     1       1.973   4.868  19.813  0.00  0.00    +0.000 C 
ATOM      5  C   UNL     1       1.780   6.073  20.772  0.00  0.00    +0.000 C 
ATOM      6  N   UNL     1       1.850   7.305  19.995  0.00  0.00    +0.000 N 
ATOM      7  C   UNL     1       1.055   8.390  20.216  0.00  0.00    +0.000 A 
ATOM      8  N   UNL     1       0.270   8.455  21.298  0.00  0.00    +0.000 NA
ATOM      9  C   UNL     1      -0.472   9.572  21.452  0.00  0.00    +0.000 A 
ATOM     10  C   UNL     1      -0.476  10.620  20.567  0.00  0.00    +0.000 A 
ATOM     11  C   UNL     1       0.357  10.461  19.493  0.00  0.00    +0.000 A 
ATOM     12  N   UNL     1       1.100   9.365  19.298  0.00  0.00    +0.000 NA
ATOM     13  C   UNL     1       3.073   7.496  19.231  0.00  0.00    +0.000 C 
ATOM     14  C   UNL     1       3.224   6.338  18.252  0.00  0.00    +0.000 C 
ENDROOT
BRANCH   2  15
ATOM     15  C   UNL     1       5.211   4.123  17.858  0.00  0.00    +0.000 A 
ATOM     16  C   UNL     1       6.414   4.580  18.407  0.00  0.00    +0.000 A 
ATOM     17  C   UNL     1       7.504   4.850  17.580  0.00  0.00    +0.000 A 
ATOM     18  C   UNL     1       7.389   4.692  16.197  0.00  0.00    +0.000 A 
ATOM     19  C   UNL     1       6.202   4.203  15.633  0.00  0.00    +0.000 A 
ATOM     20  C   UNL     1       5.139   3.858  16.485  0.00  0.00    +0.000 A 
BRANCH  19  21
ATOM     21  C   UNL     1       6.015   4.119  14.137  0.00  0.00    +0.000 C 
ATOM     22  F   UNL     1       6.784   4.997  13.438  0.00  0.00    +0.000 F 
ATOM     23  F   UNL     1       6.299   2.885  13.641  0.00  0.00    +0.000 F 
ATOM     24  F   UNL     1       4.727   4.379  13.774  0.00  0.00    +0.000 F 
ENDBRANCH  19  21
ENDBRANCH   2  15
BRANCH  11  25
ATOM     25  O   UNL     1       0.406  11.487  18.555  0.00  0.00    +0.000 OA
BRANCH  25  26
ATOM     26  C   UNL     1       0.861  12.722  18.974  0.00  0.00    +0.000 A 
ATOM     27  C   UNL     1       0.087  13.835  18.638  0.00  0.00    +0.000 A 
ATOM     28  C   UNL     1       0.475  15.104  19.070  0.00  0.00    +0.000 A 
ATOM     29 CL   UNL     1      -0.479  16.477  18.656  0.00  0.00    +0.000 Cl
ATOM     30  C   UNL     1       1.625  15.276  19.838  0.00  0.00    +0.000 A 
ATOM     31  C   UNL     1       2.382  14.161  20.184  0.00  0.00    +0.000 A 
ATOM     32 CL   UNL     1       3.812  14.356  21.122  0.00  0.00    +0.000 Cl
ATOM     33  C   UNL     1       1.996  12.885  19.775  0.00  0.00    +0.000 A 
ENDBRANCH  25  26
ENDBRANCH  11  25
TORSDOF 4
ENDMDL
MODEL 5
REMARK VINA RESULT:      -8.6      2.637      3.264
REMARK  Name = 
REMARK  4 active torsions:
REMARK  status: ('A' for Active; 'I' for Inactive)
REMARK    1  A    between atoms: C_2  and  C_3
REMARK    2  A    between atoms: C_7  and  C_8
REMARK    3  A    between atoms: C_21  and  O_22
REMARK    4  A    between atoms: O_22  and  C_23
REMARK                            x       y       z     vdW  Elec       q    Type
REMARK                         _______ _______ _______ _____ _____    ______ ____
ROOT
ATOM      1  O   UNL     1       3.964   2.893  19.377  0.00  0.00    +0.000 OA
ATOM      2  C   UNL     1       4.053   3.941  18.740  0.00  0.00    +0.000 C 
ATOM      3  N   UNL     1       3.158   4.996  18.897  0.00  0.00    +0.000 N 
ATOM      4  C   UNL     1       1.990   4.837  19.793  0.00  0.00    +0.000 C 
ATOM      5  C   UNL     1       1.800   6.043  20.752  0.00  0.00    +0.000 C 
ATOM      6  N   UNL     1       1.867   7.274  19.973  0.00  0.00    +0.000 N 
ATOM      7  C   UNL     1       1.071   8.358  20.195  0.00  0.00    +0.000 A 
ATOM      8  N   UNL     1       0.290   8.425  21.280  0.00  0.00    +0.000 NA
ATOM      9  C   UNL     1      -0.452   9.541  21.436  0.00  0.00    +0.000 A 
ATOM     10  C   UNL     1      -0.460  10.588  20.549  0.00  0.00    +0.000 A 
ATOM     11  C   UNL     1       0.369  10.428  19.472  0.00  0.00    +0.000 A 
ATOM     12  N   UNL     1       1.112   9.332  19.276  0.00  0.00    +0.000 NA
ATOM     13  C   UNL     1       3.086   7.464  19.204  0.00  0.00    +0.000 C 
ATOM     14  C   UNL     1       3.234   6.306  18.225  0.00  0.00    +0.000 C 
ENDROOT
BRANCH   2  15
ATOM     15  C   UNL     1       5.222   4.091  17.827  0.00  0.00    +0.000 A 
ATOM     16  C   UNL     1       6.429   4.538  18.374  0.00  0.00    +0.000 A 
ATOM     17  C   UNL     1       7.517   4.807  17.543  0.00  0.00    +0.000 A 
ATOM     18  C   UNL     1       7.395   4.660  16.160  0.00  0.00    +0.000 A 
ATOM     19  C   UNL     1       6.202   4.181  15.599  0.00  0.00    +0.000 A 
ATOM     20  C   UNL     1       5.142   3.836  16.453  0.00  0.00    +0.000 A 
BRANCH  19  21
ATOM     21  C   UNL     1       6.008   4.108  14.103  0.00  0.00    +0.000 C 
ATOM     22  F   UNL     1       4.732   4.357  13.702  0.00  0.00    +0.000 F 
ATOM     23  F   UNL     1       6.798   4.985  13.427  0.00  0.00    +0.000 F 
ATOM     24  F   UNL     1       6.318   2.874  13.614  0.00  0.00    +0.000 F 
ENDBRANCH  19  21
ENDBRANCH   2  15
BRANCH  11  25
ATOM     25  O   UNL     1       0.414  11.453  18.533  0.00  0.00    +0.000 OA
BRANCH  25  26
ATOM     26  C   UNL     1       0.755  12.717  18.973  0.00  0.00    +0.000 A 
ATOM     27  C   UNL     1       1.945  12.843  19.692  0.00  0.00    +0.000 A 
ATOM     28  C   UNL     1       2.362  14.102  20.127  0.00  0.00    +0.000 A 
ATOM     29 CL   UNL     1       3.829  14.259  21.014  0.00  0.00    +0.000 Cl
ATOM     30  C   UNL     1       1.606  15.239  19.849  0.00  0.00    +0.000 A 
ATOM     31  C   UNL     1       0.429  15.108  19.117  0.00  0.00    +0.000 A 
ATOM     32 CL   UNL     1      -0.524  16.500  18.774  0.00  0.00    +0.000 Cl
ATOM     33  C   UNL     1       0.011  13.859  18.661  0.00  0.00    +0.000 A 
ENDBRANCH  25  26
ENDBRANCH  11  25
TORSDOF 4
ENDMDL
MODEL 6
REMARK VINA RESULT:      -8.4      2.126      3.310
REMARK  Name = 
REMARK  4 active torsions:
REMARK  status: ('A' for Active; 'I' for Inactive)
REMARK    1  A    between atoms: C_2  and  C_3
REMARK    2  A    between atoms: C_7  and  C_8
REMARK    3  A    between atoms: C_21  and  O_22
REMARK    4  A    between atoms: O_22  and  C_23
REMARK                            x       y       z     vdW  Elec       q    Type
REMARK                         _______ _______ _______ _____ _____    ______ ____
ROOT
ATOM      1  O   UNL     1       3.306   4.490  20.667  0.00  0.00    +0.000 OA
ATOM      2  C   UNL     1       3.029   5.208  19.707  0.00  0.00    +0.000 C 
ATOM      3  N   UNL     1       2.159   6.292  19.803  0.00  0.00    +0.000 N 
ATOM      4  C   UNL     1       1.457   6.555  21.080  0.00  0.00    +0.000 C 
ATOM      5  C   UNL     1       1.530   8.044  21.510  0.00  0.00    +0.000 C 
ATOM      6  N   UNL     1       1.158   8.878  20.372  0.00  0.00    +0.000 N 
ATOM      7  C   UNL     1       0.402  10.008  20.472  0.00  0.00    +0.000 A 
ATOM      8  N   UNL     1       0.103  10.529  21.668  0.00  0.00    +0.000 NA
ATOM      9  C   UNL     1      -0.633  11.660  21.679  0.00  0.00    +0.000 A 
ATOM     10  C   UNL     1      -1.096  12.286  20.550  0.00  0.00    +0.000 A 
ATOM     11  C   UNL     1      -0.740  11.680  19.376  0.00  0.00    +0.000 A 
ATOM     12  N   UNL     1      -0.021  10.552  19.323  0.00  0.00    +0.000 NA
ATOM     13  C   UNL     1       1.954   8.690  19.170  0.00  0.00    +0.000 C 
ATOM     14  C   UNL     1       1.831   7.238  18.723  0.00  0.00    +0.000 C 
ENDROOT
BRANCH   2  15
ATOM     15  C   UNL     1       3.727   4.931  18.420  0.00  0.00    +0.000 A 
ATOM     16  C   UNL     1       3.096   4.085  17.500  0.00  0.00    +0.000 A 
ATOM     17  C   UNL     1       3.759   3.701  16.334  0.00  0.00    +0.000 A 
ATOM     18  C   UNL     1       5.064   4.135  16.095  0.00  0.00    +0.000 A 
ATOM     19  C   UNL     1       5.698   5.009  16.990  0.00  0.00    +0.000 A 
ATOM     20  C   UNL     1       4.991   5.453  18.119  0.00  0.00    +0.000 A 
BRANCH  19  21
ATOM     21  C   UNL     1       7.142   5.413  16.809  0.00  0.00    +0.000 C 
ATOM     22  F   UNL     1       7.428   6.657  17.281  0.00  0.00    +0.000 F 
ATOM     23  F   UNL     1       8.006   4.564  17.426  0.00  0.00    +0.000 F 
ATOM     24  F   UNL     1       7.502   5.422  15.495  0.00  0.00    +0.000 F 
ENDBRANCH  19  21
ENDBRANCH   2  15
BRANCH  11  25
ATOM     25  O   UNL     1      -1.172  12.262  18.190  0.00  0.00    +0.000 OA
BRANCH  25  26
ATOM     26  C   UNL     1      -2.292  11.729  17.581  0.00  0.00    +0.000 A 
ATOM     27  C   UNL     1      -2.133  11.206  16.296  0.00  0.00    +0.000 A 
ATOM     28  C   UNL     1      -3.221  10.618  15.648  0.00  0.00    +0.000 A 
ATOM     29 CL   UNL     1      -3.025   9.972  14.064  0.00  0.00    +0.000 Cl
ATOM     30  C   UNL     1      -4.466  10.541  16.270  0.00  0.00    +0.000 A 
ATOM     31  C   UNL     1      -4.613  11.050  17.557  0.00  0.00    +0.000 A 
ATOM     32 CL   UNL     1      -6.146  10.975  18.335  0.00  0.00    +0.000 Cl
ATOM     33  C   UNL     1      -3.531  11.623  18.223  0.00  0.00    +0.000 A 
ENDBRANCH  25  26
ENDBRANCH  11  25
TORSDOF 4
ENDMDL
MODEL 7
REMARK VINA RESULT:      -8.4      1.283      2.178
REMARK  Name = 
REMARK  4 active torsions:
REMARK  status: ('A' for Active; 'I' for Inactive)
REMARK    1  A    between atoms: C_2  and  C_3
REMARK    2  A    between atoms: C_7  and  C_8
REMARK    3  A    between atoms: C_21  and  O_22
REMARK    4  A    between atoms: O_22  and  C_23
REMARK                            x       y       z     vdW  Elec       q    Type
REMARK                         _______ _______ _______ _____ _____    ______ ____
ROOT
ATOM      1  O   UNL     1       4.185   2.391  17.732  0.00  0.00    +0.000 OA
ATOM      2  C   UNL     1       4.231   3.553  17.332  0.00  0.00    +0.000 C 
ATOM      3  N   UNL     1       3.419   4.561  17.848  0.00  0.00    +0.000 N 
ATOM      4  C   UNL     1       2.387   4.225  18.854  0.00  0.00    +0.000 C 
ATOM      5  C   UNL     1       2.396   5.190  20.069  0.00  0.00    +0.000 C 
ATOM      6  N   UNL     1       2.408   6.563  19.575  0.00  0.00    +0.000 N 
ATOM      7  C   UNL     1       1.707   7.583  20.145  0.00  0.00    +0.000 A 
ATOM      8  N   UNL     1       1.094   7.419  21.324  0.00  0.00    +0.000 NA
ATOM      9  C   UNL     1       0.437   8.484  21.829  0.00  0.00    +0.000 A 
ATOM     10  C   UNL     1       0.351   9.701  21.202  0.00  0.00    +0.000 A 
ATOM     11  C   UNL     1       1.008   9.772  20.004  0.00  0.00    +0.000 A 
ATOM     12  N   UNL     1       1.661   8.736  19.464  0.00  0.00    +0.000 NA
ATOM     13  C   UNL     1       3.512   6.900  18.691  0.00  0.00    +0.000 C 
ATOM     14  C   UNL     1       3.462   5.985  17.473  0.00  0.00    +0.000 C 
ENDROOT
BRANCH   2  15
ATOM     15  C   UNL     1       5.262   3.885  16.307  0.00  0.00    +0.000 A 
ATOM     16  C   UNL     1       6.320   4.717  16.686  0.00  0.00    +0.000 A 
ATOM     17  C   UNL     1       7.244   5.152  15.735  0.00  0.00    +0.000 A 
ATOM     18  C   UNL     1       7.098   4.781  14.397  0.00  0.00    +0.000 A 
ATOM     19  C   UNL     1       6.062   3.920  14.007  0.00  0.00    +0.000 A 
ATOM     20  C   UNL     1       5.187   3.424  14.987  0.00  0.00    +0.000 A 
BRANCH  19  21
ATOM     21  C   UNL     1       5.820   3.584  12.555  0.00  0.00    +0.000 C 
ATOM     22  F   UNL     1       4.571   3.899  12.118  0.00  0.00    +0.000 F 
ATOM     23  F   UNL     1       6.686   4.216  11.718  0.00  0.00    +0.000 F 
ATOM     24  F   UNL     1       5.974   2.251  12.312  0.00  0.00    +0.000 F 
ENDBRANCH  19  21
ENDBRANCH   2  15
BRANCH  11  25
ATOM     25  O   UNL     1       0.966  10.978  19.313  0.00  0.00    +0.000 OA
BRANCH  25  26
ATOM     26  C   UNL     1      -0.132  11.794  19.506  0.00  0.00    +0.000 A 
ATOM     27  C   UNL     1      -1.352  11.356  18.986  0.00  0.00    +0.000 A 
ATOM     28  C   UNL     1      -2.503  12.119  19.186  0.00  0.00    +0.000 A 
ATOM     29 CL   UNL     1      -4.008  11.580  18.545  0.00  0.00    +0.000 Cl
ATOM     30  C   UNL     1      -2.453  13.313  19.902  0.00  0.00    +0.000 A 
ATOM     31  C   UNL     1      -1.237  13.735  20.432  0.00  0.00    +0.000 A 
ATOM     32 CL   UNL     1      -1.154  15.213  21.309  0.00  0.00    +0.000 Cl
ATOM     33  C   UNL     1      -0.083  12.974  20.256  0.00  0.00    +0.000 A 
ENDBRANCH  25  26
ENDBRANCH  11  25
TORSDOF 4
ENDMDL
MODEL 8
REMARK VINA RESULT:      -8.4      1.540      2.220
REMARK  Name = 
REMARK  4 active torsions:
REMARK  status: ('A' for Active; 'I' for Inactive)
REMARK    1  A    between atoms: C_2  and  C_3
REMARK    2  A    between atoms: C_7  and  C_8
REMARK    3  A    between atoms: C_21  and  O_22
REMARK    4  A    between atoms: O_22  and  C_23
REMARK                            x       y       z     vdW  Elec       q    Type
REMARK                         _______ _______ _______ _____ _____    ______ ____
ROOT
ATOM      1  O   UNL     1       4.204   2.433  17.802  0.00  0.00    +0.000 OA
ATOM      2  C   UNL     1       4.243   3.588  17.381  0.00  0.00    +0.000 C 
ATOM      3  N   UNL     1       3.423   4.600  17.877  0.00  0.00    +0.000 N 
ATOM      4  C   UNL     1       2.392   4.275  18.888  0.00  0.00    +0.000 C 
ATOM      5  C   UNL     1       2.393   5.263  20.085  0.00  0.00    +0.000 C 
ATOM      6  N   UNL     1       2.397   6.626  19.566  0.00  0.00    +0.000 N 
ATOM      7  C   UNL     1       1.687   7.651  20.116  0.00  0.00    +0.000 A 
ATOM      8  N   UNL     1       1.074   7.505  21.297  0.00  0.00    +0.000 NA
ATOM      9  C   UNL     1       0.409   8.574  21.782  0.00  0.00    +0.000 A 
ATOM     10  C   UNL     1       0.316   9.779  21.132  0.00  0.00    +0.000 A 
ATOM     11  C   UNL     1       0.973   9.832  19.933  0.00  0.00    +0.000 A 
ATOM     12  N   UNL     1       1.635   8.791  19.414  0.00  0.00    +0.000 NA
ATOM     13  C   UNL     1       3.499   6.955  18.676  0.00  0.00    +0.000 C 
ATOM     14  C   UNL     1       3.456   6.017  17.476  0.00  0.00    +0.000 C 
ENDROOT
BRANCH   2  15
ATOM     15  C   UNL     1       5.272   3.907  16.351  0.00  0.00    +0.000 A 
ATOM     16  C   UNL     1       6.336   4.738  16.721  0.00  0.00    +0.000 A 
ATOM     17  C   UNL     1       7.259   5.161  15.765  0.00  0.00    +0.000 A 
ATOM     18  C   UNL     1       7.108   4.782  14.430  0.00  0.00    +0.000 A 
ATOM     19  C   UNL     1       6.066   3.923  14.048  0.00  0.00    +0.000 A 
ATOM     20  C   UNL     1       5.192   3.439  15.034  0.00  0.00    +0.000 A 
BRANCH  19  21
ATOM     21  C   UNL     1       5.819   3.579  12.599  0.00  0.00    +0.000 C 
ATOM     22  F   UNL     1       4.563   3.875  12.170  0.00  0.00    +0.000 F 
ATOM     23  F   UNL     1       6.671   4.219  11.754  0.00  0.00    +0.000 F 
ATOM     24  F   UNL     1       5.990   2.247  12.360  0.00  0.00    +0.000 F 
ENDBRANCH  19  21
ENDBRANCH   2  15
BRANCH  11  25
ATOM     25  O   UNL     1       0.925  11.025  19.221  0.00  0.00    +0.000 OA
BRANCH  25  26
ATOM     26  C   UNL     1      -0.005  11.971  19.609  0.00  0.00    +0.000 A 
ATOM     27  C   UNL     1       0.483  13.200  20.057  0.00  0.00    +0.000 A 
ATOM     28  C   UNL     1      -0.411  14.208  20.423  0.00  0.00    +0.000 A 
ATOM     29 CL   UNL     1       0.190  15.724  20.976  0.00  0.00    +0.000 Cl
ATOM     30  C   UNL     1      -1.787  14.005  20.343  0.00  0.00    +0.000 A 
ATOM     31  C   UNL     1      -2.266  12.783  19.879  0.00  0.00    +0.000 A 
ATOM     32 CL   UNL     1      -3.963  12.511  19.785  0.00  0.00    +0.000 Cl
ATOM     33  C   UNL     1      -1.385  11.775  19.493  0.00  0.00    +0.000 A 
ENDBRANCH  25  26
ENDBRANCH  11  25
TORSDOF 4
ENDMDL
MODEL 9
REMARK VINA RESULT:      -8.4      1.960      2.670
REMARK  Name = 
REMARK  4 active torsions:
REMARK  status: ('A' for Active; 'I' for Inactive)
REMARK    1  A    between atoms: C_2  and  C_3
REMARK    2  A    between atoms: C_7  and  C_8
REMARK    3  A    between atoms: C_21  and  O_22
REMARK    4  A    between atoms: O_22  and  C_23
REMARK                            x       y       z     vdW  Elec       q    Type
REMARK                         _______ _______ _______ _____ _____    ______ ____
ROOT
ATOM      1  O   UNL     1       3.333   3.891  20.360  0.00  0.00    +0.000 OA
ATOM      2  C   UNL     1       3.117   4.683  19.444  0.00  0.00    +0.000 C 
ATOM      3  N   UNL     1       2.259   5.772  19.576  0.00  0.00    +0.000 N 
ATOM      4  C   UNL     1       1.495   5.953  20.832  0.00  0.00    +0.000 C 
ATOM      5  C   UNL     1       1.567   7.405  21.375  0.00  0.00    +0.000 C 
ATOM      6  N   UNL     1       1.266   8.327  20.285  0.00  0.00    +0.000 N 
ATOM      7  C   UNL     1       0.523   9.460  20.429  0.00  0.00    +0.000 A 
ATOM      8  N   UNL     1       0.169   9.897  21.645  0.00  0.00    +0.000 NA
ATOM      9  C   UNL     1      -0.550  11.038  21.703  0.00  0.00    +0.000 A 
ATOM     10  C   UNL     1      -0.945  11.753  20.601  0.00  0.00    +0.000 A 
ATOM     11  C   UNL     1      -0.537  11.229  19.405  0.00  0.00    +0.000 A 
ATOM     12  N   UNL     1       0.168  10.095  19.304  0.00  0.00    +0.000 NA
ATOM     13  C   UNL     1       2.121   8.213  19.113  0.00  0.00    +0.000 C 
ATOM     14  C   UNL     1       2.000   6.801  18.554  0.00  0.00    +0.000 C 
ENDROOT
BRANCH   2  15
ATOM     15  C   UNL     1       3.876   4.488  18.177  0.00  0.00    +0.000 A 
ATOM     16  C   UNL     1       3.281   3.726  17.165  0.00  0.00    +0.000 A 
ATOM     17  C   UNL     1       3.997   3.417  16.008  0.00  0.00    +0.000 A 
ATOM     18  C   UNL     1       5.320   3.841  15.870  0.00  0.00    +0.000 A 
ATOM     19  C   UNL     1       5.920   4.633  16.860  0.00  0.00    +0.000 A 
ATOM     20  C   UNL     1       5.162   5.006  17.981  0.00  0.00    +0.000 A 
BRANCH  19  21
ATOM     21  C   UNL     1       7.378   5.020  16.784  0.00  0.00    +0.000 C 
ATOM     22  F   UNL     1       7.628   6.299  17.172  0.00  0.00    +0.000 F 
ATOM     23  F   UNL     1       8.173   4.227  17.551  0.00  0.00    +0.000 F 
ATOM     24  F   UNL     1       7.862   4.915  15.514  0.00  0.00    +0.000 F 
ENDBRANCH  19  21
ENDBRANCH   2  15
BRANCH  11  25
ATOM     25  O   UNL     1      -0.898  11.904  18.244  0.00  0.00    +0.000 OA
BRANCH  25  26
ATOM     26  C   UNL     1      -2.113  11.589  17.667  0.00  0.00    +0.000 A 
ATOM     27  C   UNL     1      -3.263  11.848  18.416  0.00  0.00    +0.000 A 
ATOM     28  C   UNL     1      -4.520  11.589  17.868  0.00  0.00    +0.000 A 
ATOM     29 CL   UNL     1      -5.938  11.907  18.791  0.00  0.00    +0.000 Cl
ATOM     30  C   UNL     1      -4.644  11.077  16.578  0.00  0.00    +0.000 A 
ATOM     31  C   UNL     1      -3.494  10.838  15.830  0.00  0.00    +0.000 A 
ATOM     32 CL   UNL     1      -3.628  10.195  14.240  0.00  0.00    +0.000 Cl
ATOM     33  C   UNL     1      -2.234  11.109  16.358  0.00  0.00    +0.000 A 
ENDBRANCH  25  26
ENDBRANCH  11  25
TORSDOF 4
ENDMDL
