MODEL 1
REMARK VINA RESULT:      -7.1      0.000      0.000
REMARK  Name = 
REMARK  7 active torsions:
REMARK  status: ('A' for Active; 'I' for Inactive)
REMARK    1  A    between atoms: C_1  and  O_2
REMARK    2  A    between atoms: O_2  and  C_3
REMARK    3  A    between atoms: C_3  and  C_5
REMARK    4  A    between atoms: C_8  and  C_9
REMARK    5  A    between atoms: C_9  and  O_11
REMARK    6  A    between atoms: O_11  and  C_12
REMARK    7  A    between atoms: C_17  and  C_18
REMARK                            x       y       z     vdW  Elec       q    Type
REMARK                         _______ _______ _______ _____ _____    ______ ____
ROOT
ATOM      1  C   UNL     1       4.774   5.607  17.263  0.00  0.00    +0.000 A 
ATOM      2  C   UNL     1       5.029   4.273  17.619  0.00  0.00    +0.000 A 
ATOM      3  C   UNL     1       4.330   3.687  18.663  0.00  0.00    +0.000 A 
ATOM      4  C   UNL     1       3.370   4.432  19.360  0.00  0.00    +0.000 A 
ATOM      5  C   UNL     1       3.090   5.761  19.007  0.00  0.00    +0.000 A 
ATOM      6  N   UNL     1       2.143   6.465  19.665  0.00  0.00    +0.000 NA
ATOM      7  C   UNL     1       1.907   7.739  19.317  0.00  0.00    +0.000 A 
ATOM      8  C   UNL     1       0.965   8.478  20.019  0.00  0.00    +0.000 A 
ATOM      9  C   UNL     1       0.681   9.806  19.685  0.00  0.00    +0.000 A 
ATOM     10  C   UNL     1      -0.343  10.589  20.450  0.00  0.00    +0.000 C 
ATOM     11  C   UNL     1       1.371  10.391  18.623  0.00  0.00    +0.000 A 
ATOM     12  C   UNL     1       2.324   9.649  17.920  0.00  0.00    +0.000 A 
ATOM     13  C   UNL     1       2.600   8.330  18.255  0.00  0.00    +0.000 A 
ATOM     14  N   UNL     1       3.519   7.632  17.571  0.00  0.00    +0.000 NA
ATOM     15  C   UNL     1       3.798   6.360  17.936  0.00  0.00    +0.000 A 
ENDROOT
BRANCH   1  16
ATOM     16  C   UNL     1       5.589   6.251  16.189  0.00  0.00    +0.000 C 
ATOM     17  O   UNL     1       5.152   6.740  15.162  0.00  0.00    +0.000 OA
BRANCH  16  19
ATOM     18  C   UNL     1       7.262   7.346  17.390  0.00  0.00    +0.000 C 
ATOM     19  O   UNL     1       6.900   6.247  16.549  0.00  0.00    +0.000 OA
ENDBRANCH  16  19
ENDBRANCH   1  16
BRANCH   4  20
ATOM     20  C   UNL     1       2.664   3.821  20.526  0.00  0.00    +0.000 C 
ATOM     21  O   UNL     1       2.614   4.289  21.650  0.00  0.00    +0.000 OA
BRANCH  20  22
ATOM     22  O   UNL     1       2.097   2.642  20.151  0.00  0.00    +0.000 OA
ATOM     23  C   UNL     1       0.852   2.808  19.467  0.00  0.00    +0.000 C 
ENDBRANCH  20  22
ENDBRANCH   4  20
TORSDOF 4
ENDMDL
MODEL 2
REMARK VINA RESULT:      -7.1      1.042      1.158
REMARK  Name = 
REMARK  7 active torsions:
REMARK  status: ('A' for Active; 'I' for Inactive)
REMARK    1  A    between atoms: C_1  and  O_2
REMARK    2  A    between atoms: O_2  and  C_3
REMARK    3  A    between atoms: C_3  and  C_5
REMARK    4  A    between atoms: C_8  and  C_9
REMARK    5  A    between atoms: C_9  and  O_11
REMARK    6  A    between atoms: O_11  and  C_12
REMARK    7  A    between atoms: C_17  and  C_18
REMARK                            x       y       z     vdW  Elec       q    Type
REMARK                         _______ _______ _______ _____ _____    ______ ____
ROOT
ATOM      1  C   UNL     1       4.695   5.391  16.910  0.00  0.00    +0.000 A 
ATOM      2  C   UNL     1       5.026   4.028  16.844  0.00  0.00    +0.000 A 
ATOM      3  C   UNL     1       4.458   3.131  17.737  0.00  0.00    +0.000 A 
ATOM      4  C   UNL     1       3.554   3.592  18.702  0.00  0.00    +0.000 A 
ATOM      5  C   UNL     1       3.199   4.948  18.772  0.00  0.00    +0.000 A 
ATOM      6  N   UNL     1       2.306   5.382  19.688  0.00  0.00    +0.000 NA
ATOM      7  C   UNL     1       1.997   6.685  19.742  0.00  0.00    +0.000 A 
ATOM      8  C   UNL     1       1.112   7.140  20.710  0.00  0.00    +0.000 A 
ATOM      9  C   UNL     1       0.754   8.490  20.798  0.00  0.00    +0.000 A 
ATOM     10  C   UNL     1      -0.207   8.963  21.845  0.00  0.00    +0.000 C 
ATOM     11  C   UNL     1       1.312   9.390  19.889  0.00  0.00    +0.000 A 
ATOM     12  C   UNL     1       2.207   8.933  18.918  0.00  0.00    +0.000 A 
ATOM     13  C   UNL     1       2.556   7.591  18.835  0.00  0.00    +0.000 A 
ATOM     14  N   UNL     1       3.419   7.170  17.899  0.00  0.00    +0.000 NA
ATOM     15  C   UNL     1       3.773   5.865  17.856  0.00  0.00    +0.000 A 
ENDROOT
BRANCH   1  16
ATOM     16  C   UNL     1       5.374   6.357  15.995  0.00  0.00    +0.000 C 
ATOM     17  O   UNL     1       4.820   7.062  15.169  0.00  0.00    +0.000 OA
BRANCH  16  19
ATOM     18  C   UNL     1       7.073   7.212  17.345  0.00  0.00    +0.000 C 
ATOM     19  O   UNL     1       6.709   6.366  16.251  0.00  0.00    +0.000 OA
ENDBRANCH  16  19
ENDBRANCH   1  16
BRANCH   4  20
ATOM     20  C   UNL     1       2.993   2.637  19.704  0.00  0.00    +0.000 C 
ATOM     21  O   UNL     1       3.255   2.622  20.895  0.00  0.00    +0.000 OA
BRANCH  20  22
ATOM     22  O   UNL     1       2.155   1.762  19.084  0.00  0.00    +0.000 OA
ATOM     23  C   UNL     1       0.834   2.280  18.905  0.00  0.00    +0.000 C 
ENDBRANCH  20  22
ENDBRANCH   4  20
TORSDOF 4
ENDMDL
MODEL 3
REMARK VINA RESULT:      -7.1      3.933      6.143
REMARK  Name = 
REMARK  7 active torsions:
REMARK  status: ('A' for Active; 'I' for Inactive)
REMARK    1  A    between atoms: C_1  and  O_2
REMARK    2  A    between atoms: O_2  and  C_3
REMARK    3  A    between atoms: C_3  and  C_5
REMARK    4  A    between atoms: C_8  and  C_9
REMARK    5  A    between atoms: C_9  and  O_11
REMARK    6  A    between atoms: O_11  and  C_12
REMARK    7  A    between atoms: C_17  and  C_18
REMARK                            x       y       z     vdW  Elec       q    Type
REMARK                         _______ _______ _______ _____ _____    ______ ____
ROOT
ATOM      1  C   UNL     1       6.646   5.929  18.137  0.00  0.00    +0.000 A 
ATOM      2  C   UNL     1       5.873   5.606  19.263  0.00  0.00    +0.000 A 
ATOM      3  C   UNL     1       4.888   4.634  19.174  0.00  0.00    +0.000 A 
ATOM      4  C   UNL     1       4.670   3.977  17.956  0.00  0.00    +0.000 A 
ATOM      5  C   UNL     1       5.444   4.275  16.825  0.00  0.00    +0.000 A 
ATOM      6  N   UNL     1       5.247   3.619  15.660  0.00  0.00    +0.000 NA
ATOM      7  C   UNL     1       5.991   3.936  14.590  0.00  0.00    +0.000 A 
ATOM      8  C   UNL     1       5.762   3.294  13.381  0.00  0.00    +0.000 A 
ATOM      9  C   UNL     1       6.519   3.586  12.242  0.00  0.00    +0.000 A 
ATOM     10  C   UNL     1       6.263   2.879  10.946  0.00  0.00    +0.000 C 
ATOM     11  C   UNL     1       7.522   4.552  12.336  0.00  0.00    +0.000 A 
ATOM     12  C   UNL     1       7.750   5.203  13.551  0.00  0.00    +0.000 A 
ATOM     13  C   UNL     1       6.995   4.906  14.679  0.00  0.00    +0.000 A 
ATOM     14  N   UNL     1       7.224   5.543  15.838  0.00  0.00    +0.000 NA
ATOM     15  C   UNL     1       6.456   5.264  16.915  0.00  0.00    +0.000 A 
ENDROOT
BRANCH   1  16
ATOM     16  C   UNL     1       7.649   7.034  18.225  0.00  0.00    +0.000 C 
ATOM     17  O   UNL     1       8.628   7.047  18.951  0.00  0.00    +0.000 OA
BRANCH  16  19
ATOM     18  C   UNL     1       7.936   9.272  17.636  0.00  0.00    +0.000 C 
ATOM     19  O   UNL     1       7.328   8.012  17.338  0.00  0.00    +0.000 OA
ENDBRANCH  16  19
ENDBRANCH   1  16
BRANCH   4  20
ATOM     20  C   UNL     1       3.567   2.976  17.844  0.00  0.00    +0.000 C 
ATOM     21  O   UNL     1       3.634   1.806  18.179  0.00  0.00    +0.000 OA
BRANCH  20  22
ATOM     22  O   UNL     1       2.472   3.562  17.287  0.00  0.00    +0.000 OA
ATOM     23  C   UNL     1       1.402   3.752  18.217  0.00  0.00    +0.000 C 
ENDBRANCH  20  22
ENDBRANCH   4  20
TORSDOF 4
ENDMDL
MODEL 4
REMARK VINA RESULT:      -6.9      0.794      1.136
REMARK  Name = 
REMARK  7 active torsions:
REMARK  status: ('A' for Active; 'I' for Inactive)
REMARK    1  A    between atoms: C_1  and  O_2
REMARK    2  A    between atoms: O_2  and  C_3
REMARK    3  A    between atoms: C_3  and  C_5
REMARK    4  A    between atoms: C_8  and  C_9
REMARK    5  A    between atoms: C_9  and  O_11
REMARK    6  A    between atoms: O_11  and  C_12
REMARK    7  A    between atoms: C_17  and  C_18
REMARK                            x       y       z     vdW  Elec       q    Type
REMARK                         _______ _______ _______ _____ _____    ______ ____
ROOT
ATOM      1  C   UNL     1       4.564   5.124  17.181  0.00  0.00    +0.000 A 
ATOM      2  C   UNL     1       4.760   3.788  17.567  0.00  0.00    +0.000 A 
ATOM      3  C   UNL     1       4.082   3.276  18.662  0.00  0.00    +0.000 A 
ATOM      4  C   UNL     1       3.203   4.096  19.381  0.00  0.00    +0.000 A 
ATOM      5  C   UNL     1       2.983   5.429  19.000  0.00  0.00    +0.000 A 
ATOM      6  N   UNL     1       2.113   6.207  19.680  0.00  0.00    +0.000 NA
ATOM      7  C   UNL     1       1.934   7.482  19.303  0.00  0.00    +0.000 A 
ATOM      8  C   UNL     1       1.073   8.296  20.026  0.00  0.00    +0.000 A 
ATOM      9  C   UNL     1       0.850   9.628  19.664  0.00  0.00    +0.000 A 
ATOM     10  C   UNL     1      -0.087  10.493  20.452  0.00  0.00    +0.000 C 
ATOM     11  C   UNL     1       1.518  10.140  18.551  0.00  0.00    +0.000 A 
ATOM     12  C   UNL     1       2.389   9.323  17.826  0.00  0.00    +0.000 A 
ATOM     13  C   UNL     1       2.605   7.999  18.190  0.00  0.00    +0.000 A 
ATOM     14  N   UNL     1       3.447   7.228  17.485  0.00  0.00    +0.000 NA
ATOM     15  C   UNL     1       3.669   5.953  17.876  0.00  0.00    +0.000 A 
ENDROOT
BRANCH   1  16
ATOM     16  C   UNL     1       5.360   5.686  16.048  0.00  0.00    +0.000 C 
ATOM     17  O   UNL     1       6.068   6.677  16.100  0.00  0.00    +0.000 OA
BRANCH  16  19
ATOM     18  C   UNL     1       6.452   4.482  14.375  0.00  0.00    +0.000 C 
ATOM     19  O   UNL     1       5.210   4.897  14.951  0.00  0.00    +0.000 OA
ENDBRANCH  16  19
ENDBRANCH   1  16
BRANCH   4  20
ATOM     20  C   UNL     1       2.523   3.563  20.599  0.00  0.00    +0.000 C 
ATOM     21  O   UNL     1       2.582   4.049  21.715  0.00  0.00    +0.000 OA
BRANCH  20  22
ATOM     22  O   UNL     1       1.837   2.431  20.282  0.00  0.00    +0.000 OA
ATOM     23  C   UNL     1       0.708   2.674  19.438  0.00  0.00    +0.000 C 
ENDBRANCH  20  22
ENDBRANCH   4  20
TORSDOF 4
ENDMDL
MODEL 5
REMARK VINA RESULT:      -6.9      0.446      4.539
REMARK  Name = 
REMARK  7 active torsions:
REMARK  status: ('A' for Active; 'I' for Inactive)
REMARK    1  A    between atoms: C_1  and  O_2
REMARK    2  A    between atoms: O_2  and  C_3
REMARK    3  A    between atoms: C_3  and  C_5
REMARK    4  A    between atoms: C_8  and  C_9
REMARK    5  A    between atoms: C_9  and  O_11
REMARK    6  A    between atoms: O_11  and  C_12
REMARK    7  A    between atoms: C_17  and  C_18
REMARK                            x       y       z     vdW  Elec       q    Type
REMARK                         _______ _______ _______ _____ _____    ______ ____
ROOT
ATOM      1  C   UNL     1       3.504   4.226  19.275  0.00  0.00    +0.000 A 
ATOM      2  C   UNL     1       4.508   3.578  18.539  0.00  0.00    +0.000 A 
ATOM      3  C   UNL     1       5.189   4.261  17.543  0.00  0.00    +0.000 A 
ATOM      4  C   UNL     1       4.870   5.598  17.276  0.00  0.00    +0.000 A 
ATOM      5  C   UNL     1       3.881   6.267  18.013  0.00  0.00    +0.000 A 
ATOM      6  N   UNL     1       3.597   7.565  17.769  0.00  0.00    +0.000 NA
ATOM      7  C   UNL     1       2.635   8.174  18.479  0.00  0.00    +0.000 A 
ATOM      8  C   UNL     1       2.311   9.495  18.201  0.00  0.00    +0.000 A 
ATOM      9  C   UNL     1       1.322  10.172  18.921  0.00  0.00    +0.000 A 
ATOM     10  C   UNL     1       0.989  11.601  18.613  0.00  0.00    +0.000 C 
ATOM     11  C   UNL     1       0.649   9.491  19.936  0.00  0.00    +0.000 A 
ATOM     12  C   UNL     1       0.970   8.160  20.211  0.00  0.00    +0.000 A 
ATOM     13  C   UNL     1       1.955   7.493  19.494  0.00  0.00    +0.000 A 
ATOM     14  N   UNL     1       2.250   6.214  19.769  0.00  0.00    +0.000 NA
ATOM     15  C   UNL     1       3.188   5.572  19.036  0.00  0.00    +0.000 A 
ENDROOT
BRANCH   1  16
ATOM     16  C   UNL     1       2.724   3.456  20.291  0.00  0.00    +0.000 C 
ATOM     17  O   UNL     1       2.589   3.760  21.464  0.00  0.00    +0.000 OA
BRANCH  16  19
ATOM     18  C   UNL     1       0.911   2.681  19.045  0.00  0.00    +0.000 C 
ATOM     19  O   UNL     1       2.146   2.377  19.699  0.00  0.00    +0.000 OA
ENDBRANCH  16  19
ENDBRANCH   1  16
BRANCH   4  20
ATOM     20  C   UNL     1       5.559   6.314  16.160  0.00  0.00    +0.000 C 
ATOM     21  O   UNL     1       5.014   6.786  15.177  0.00  0.00    +0.000 OA
BRANCH  20  22
ATOM     22  O   UNL     1       6.899   6.342  16.392  0.00  0.00    +0.000 OA
ATOM     23  C   UNL     1       7.284   7.337  17.345  0.00  0.00    +0.000 C 
ENDBRANCH  20  22
ENDBRANCH   4  20
TORSDOF 4
ENDMDL
MODEL 6
REMARK VINA RESULT:      -6.9      1.319      1.549
REMARK  Name = 
REMARK  7 active torsions:
REMARK  status: ('A' for Active; 'I' for Inactive)
REMARK    1  A    between atoms: C_1  and  O_2
REMARK    2  A    between atoms: O_2  and  C_3
REMARK    3  A    between atoms: C_3  and  C_5
REMARK    4  A    between atoms: C_8  and  C_9
REMARK    5  A    between atoms: C_9  and  O_11
REMARK    6  A    between atoms: O_11  and  C_12
REMARK    7  A    between atoms: C_17  and  C_18
REMARK                            x       y       z     vdW  Elec       q    Type
REMARK                         _______ _______ _______ _____ _____    ______ ____
ROOT
ATOM      1  C   UNL     1       4.600   4.891  16.815  0.00  0.00    +0.000 A 
ATOM      2  C   UNL     1       4.942   3.541  16.994  0.00  0.00    +0.000 A 
ATOM      3  C   UNL     1       4.494   2.853  18.112  0.00  0.00    +0.000 A 
ATOM      4  C   UNL     1       3.701   3.512  19.060  0.00  0.00    +0.000 A 
ATOM      5  C   UNL     1       3.337   4.856  18.890  0.00  0.00    +0.000 A 
ATOM      6  N   UNL     1       2.549   5.479  19.794  0.00  0.00    +0.000 NA
ATOM      7  C   UNL     1       2.230   6.769  19.614  0.00  0.00    +0.000 A 
ATOM      8  C   UNL     1       1.456   7.422  20.563  0.00  0.00    +0.000 A 
ATOM      9  C   UNL     1       1.092   8.764  20.412  0.00  0.00    +0.000 A 
ATOM     10  C   UNL     1       0.251   9.453  21.444  0.00  0.00    +0.000 C 
ATOM     11  C   UNL     1       1.527   9.451  19.278  0.00  0.00    +0.000 A 
ATOM     12  C   UNL     1       2.310   8.796  18.325  0.00  0.00    +0.000 A 
ATOM     13  C   UNL     1       2.667   7.462  18.481  0.00  0.00    +0.000 A 
ATOM     14  N   UNL     1       3.422   6.848  17.557  0.00  0.00    +0.000 NA
ATOM     15  C   UNL     1       3.787   5.559  17.744  0.00  0.00    +0.000 A 
ENDROOT
BRANCH   1  16
ATOM     16  C   UNL     1       5.154   5.641  15.647  0.00  0.00    +0.000 C 
ATOM     17  O   UNL     1       5.380   6.839  15.615  0.00  0.00    +0.000 OA
BRANCH  16  19
ATOM     18  C   UNL     1       6.784   4.762  14.229  0.00  0.00    +0.000 C 
ATOM     19  O   UNL     1       5.411   4.776  14.631  0.00  0.00    +0.000 OA
ENDBRANCH  16  19
ENDBRANCH   1  16
BRANCH   4  20
ATOM     20  C   UNL     1       3.274   2.790  20.296  0.00  0.00    +0.000 C 
ATOM     21  O   UNL     1       4.012   2.424  21.195  0.00  0.00    +0.000 OA
BRANCH  20  22
ATOM     22  O   UNL     1       1.930   2.578  20.260  0.00  0.00    +0.000 OA
ATOM     23  C   UNL     1       1.314   2.663  21.548  0.00  0.00    +0.000 C 
ENDBRANCH  20  22
ENDBRANCH   4  20
TORSDOF 4
ENDMDL
MODEL 7
REMARK VINA RESULT:      -6.8      2.233      5.247
REMARK  Name = 
REMARK  7 active torsions:
REMARK  status: ('A' for Active; 'I' for Inactive)
REMARK    1  A    between atoms: C_1  and  O_2
REMARK    2  A    between atoms: O_2  and  C_3
REMARK    3  A    between atoms: C_3  and  C_5
REMARK    4  A    between atoms: C_8  and  C_9
REMARK    5  A    between atoms: C_9  and  O_11
REMARK    6  A    between atoms: O_11  and  C_12
REMARK    7  A    between atoms: C_17  and  C_18
REMARK                            x       y       z     vdW  Elec       q    Type
REMARK                         _______ _______ _______ _____ _____    ______ ____
ROOT
ATOM      1  C   UNL     1       2.077   6.800  19.846  0.00  0.00    +0.000 A 
ATOM      2  C   UNL     1       1.460   6.093  20.890  0.00  0.00    +0.000 A 
ATOM      3  C   UNL     1       1.612   4.718  20.983  0.00  0.00    +0.000 A 
ATOM      4  C   UNL     1       2.384   4.039  20.031  0.00  0.00    +0.000 A 
ATOM      5  C   UNL     1       3.021   4.731  18.990  0.00  0.00    +0.000 A 
ATOM      6  N   UNL     1       3.786   4.075  18.090  0.00  0.00    +0.000 NA
ATOM      7  C   UNL     1       4.370   4.760  17.096  0.00  0.00    +0.000 A 
ATOM      8  C   UNL     1       5.122   4.081  16.146  0.00  0.00    +0.000 A 
ATOM      9  C   UNL     1       5.756   4.756  15.098  0.00  0.00    +0.000 A 
ATOM     10  C   UNL     1       6.569   4.010  14.084  0.00  0.00    +0.000 C 
ATOM     11  C   UNL     1       5.618   6.142  15.014  0.00  0.00    +0.000 A 
ATOM     12  C   UNL     1       4.858   6.824  15.967  0.00  0.00    +0.000 A 
ATOM     13  C   UNL     1       4.232   6.148  17.007  0.00  0.00    +0.000 A 
ATOM     14  N   UNL     1       3.502   6.818  17.912  0.00  0.00    +0.000 NA
ATOM     15  C   UNL     1       2.872   6.138  18.897  0.00  0.00    +0.000 A 
ENDROOT
BRANCH   1  16
ATOM     16  C   UNL     1       1.840   8.269  19.712  0.00  0.00    +0.000 C 
ATOM     17  O   UNL     1       1.844   8.897  18.667  0.00  0.00    +0.000 OA
BRANCH  16  19
ATOM     18  C   UNL     1       0.502   9.745  20.924  0.00  0.00    +0.000 C 
ATOM     19  O   UNL     1       1.576   8.800  20.935  0.00  0.00    +0.000 OA
ENDBRANCH  16  19
ENDBRANCH   1  16
BRANCH   4  20
ATOM     20  C   UNL     1       2.494   2.551  20.094  0.00  0.00    +0.000 C 
ATOM     21  O   UNL     1       1.858   1.763  19.415  0.00  0.00    +0.000 OA
BRANCH  20  22
ATOM     22  O   UNL     1       3.401   2.198  21.045  0.00  0.00    +0.000 OA
ATOM     23  C   UNL     1       4.661   1.798  20.499  0.00  0.00    +0.000 C 
ENDBRANCH  20  22
ENDBRANCH   4  20
TORSDOF 4
ENDMDL
MODEL 8
REMARK VINA RESULT:      -6.7      0.932      4.527
REMARK  Name = 
REMARK  7 active torsions:
REMARK  status: ('A' for Active; 'I' for Inactive)
REMARK    1  A    between atoms: C_1  and  O_2
REMARK    2  A    between atoms: O_2  and  C_3
REMARK    3  A    between atoms: C_3  and  C_5
REMARK    4  A    between atoms: C_8  and  C_9
REMARK    5  A    between atoms: C_9  and  O_11
REMARK    6  A    between atoms: O_11  and  C_12
REMARK    7  A    between atoms: C_17  and  C_18
REMARK                            x       y       z     vdW  Elec       q    Type
REMARK                         _______ _______ _______ _____ _____    ______ ____
ROOT
ATOM      1  C   UNL     1       3.315   3.951  19.392  0.00  0.00    +0.000 A 
ATOM      2  C   UNL     1       4.205   3.197  18.610  0.00  0.00    +0.000 A 
ATOM      3  C   UNL     1       4.833   3.778  17.519  0.00  0.00    +0.000 A 
ATOM      4  C   UNL     1       4.577   5.118  17.202  0.00  0.00    +0.000 A 
ATOM      5  C   UNL     1       3.704   5.891  17.983  0.00  0.00    +0.000 A 
ATOM      6  N   UNL     1       3.481   7.191  17.689  0.00  0.00    +0.000 NA
ATOM      7  C   UNL     1       2.629   7.901  18.443  0.00  0.00    +0.000 A 
ATOM      8  C   UNL     1       2.365   9.225  18.117  0.00  0.00    +0.000 A 
ATOM      9  C   UNL     1       1.491  10.005  18.880  0.00  0.00    +0.000 A 
ATOM     10  C   UNL     1       1.222  11.434  18.518  0.00  0.00    +0.000 C 
ATOM     11  C   UNL     1       0.872   9.427  19.988  0.00  0.00    +0.000 A 
ATOM     12  C   UNL     1       1.132   8.093  20.313  0.00  0.00    +0.000 A 
ATOM     13  C   UNL     1       2.003   7.324  19.552  0.00  0.00    +0.000 A 
ATOM     14  N   UNL     1       2.240   6.043  19.876  0.00  0.00    +0.000 NA
ATOM     15  C   UNL     1       3.065   5.301  19.102  0.00  0.00    +0.000 A 
ENDROOT
BRANCH   1  16
ATOM     16  C   UNL     1       2.584   3.291  20.516  0.00  0.00    +0.000 C 
ATOM     17  O   UNL     1       2.589   3.657  21.679  0.00  0.00    +0.000 OA
BRANCH  16  19
ATOM     18  C   UNL     1       0.695   2.621  19.325  0.00  0.00    +0.000 C 
ATOM     19  O   UNL     1       1.873   2.236  20.039  0.00  0.00    +0.000 OA
ENDBRANCH  16  19
ENDBRANCH   1  16
BRANCH   4  20
ATOM     20  C   UNL     1       5.204   5.724  15.990  0.00  0.00    +0.000 C 
ATOM     21  O   UNL     1       5.616   6.868  15.901  0.00  0.00    +0.000 OA
BRANCH  20  22
ATOM     22  O   UNL     1       5.229   4.810  14.982  0.00  0.00    +0.000 OA
ATOM     23  C   UNL     1       6.530   4.634  14.415  0.00  0.00    +0.000 C 
ENDBRANCH  20  22
ENDBRANCH   4  20
TORSDOF 4
ENDMDL
MODEL 9
REMARK VINA RESULT:      -6.7      2.184      5.151
REMARK  Name = 
REMARK  7 active torsions:
REMARK  status: ('A' for Active; 'I' for Inactive)
REMARK    1  A    between atoms: C_1  and  O_2
REMARK    2  A    between atoms: O_2  and  C_3
REMARK    3  A    between atoms: C_3  and  C_5
REMARK    4  A    between atoms: C_8  and  C_9
REMARK    5  A    between atoms: C_9  and  O_11
REMARK    6  A    between atoms: O_11  and  C_12
REMARK    7  A    between atoms: C_17  and  C_18
REMARK                            x       y       z     vdW  Elec       q    Type
REMARK                         _______ _______ _______ _____ _____    ______ ____
ROOT
ATOM      1  C   UNL     1       2.150   6.932  19.813  0.00  0.00    +0.000 A 
ATOM      2  C   UNL     1       1.595   6.264  20.916  0.00  0.00    +0.000 A 
ATOM      3  C   UNL     1       1.829   4.910  21.097  0.00  0.00    +0.000 A 
ATOM      4  C   UNL     1       2.620   4.212  20.175  0.00  0.00    +0.000 A 
ATOM      5  C   UNL     1       3.196   4.867  19.076  0.00  0.00    +0.000 A 
ATOM      6  N   UNL     1       3.980   4.195  18.205  0.00  0.00    +0.000 NA
ATOM      7  C   UNL     1       4.505   4.843  17.155  0.00  0.00    +0.000 A 
ATOM      8  C   UNL     1       5.276   4.145  16.235  0.00  0.00    +0.000 A 
ATOM      9  C   UNL     1       5.850   4.781  15.130  0.00  0.00    +0.000 A 
ATOM     10  C   UNL     1       6.686   4.015  14.150  0.00  0.00    +0.000 C 
ATOM     11  C   UNL     1       5.631   6.148  14.957  0.00  0.00    +0.000 A 
ATOM     12  C   UNL     1       4.850   6.850  15.879  0.00  0.00    +0.000 A 
ATOM     13  C   UNL     1       4.284   6.212  16.975  0.00  0.00    +0.000 A 
ATOM     14  N   UNL     1       3.534   6.900  17.850  0.00  0.00    +0.000 NA
ATOM     15  C   UNL     1       2.964   6.253  18.893  0.00  0.00    +0.000 A 
ENDROOT
BRANCH   1  16
ATOM     16  C   UNL     1       1.826   8.373  19.586  0.00  0.00    +0.000 C 
ATOM     17  O   UNL     1       1.857   8.948  18.511  0.00  0.00    +0.000 OA
BRANCH  16  19
ATOM     18  C   UNL     1       0.340   9.840  20.624  0.00  0.00    +0.000 C 
ATOM     19  O   UNL     1       1.446   8.944  20.760  0.00  0.00    +0.000 OA
ENDBRANCH  16  19
ENDBRANCH   1  16
BRANCH   4  20
ATOM     20  C   UNL     1       2.817   2.741  20.336  0.00  0.00    +0.000 C 
ATOM     21  O   UNL     1       3.880   2.188  20.566  0.00  0.00    +0.000 OA
BRANCH  20  22
ATOM     22  O   UNL     1       1.631   2.098  20.163  0.00  0.00    +0.000 OA
ATOM     23  C   UNL     1       1.166   2.129  18.810  0.00  0.00    +0.000 C 
ENDBRANCH  20  22
ENDBRANCH   4  20
TORSDOF 4
ENDMDL
