MODEL 1
REMARK VINA RESULT:      -7.3      0.000      0.000
REMARK  Name = 
REMARK  6 active torsions:
REMARK  status: ('A' for Active; 'I' for Inactive)
REMARK    1  A    between atoms: C_1  and  O_2
REMARK    2  A    between atoms: O_2  and  C_3
REMARK    3  A    between atoms: C_7  and  C_8
REMARK    4  A    between atoms: C_8  and  O_9
REMARK    5  A    between atoms: C_14  and  O_15
REMARK    6  A    between atoms: O_15  and  C_16
REMARK                            x       y       z     vdW  Elec       q    Type
REMARK                         _______ _______ _______ _____ _____    ______ ____
ROOT
ATOM      1  C   UNL     1       1.105   7.841  20.544  0.00  0.00    +0.000 A 
ATOM      2  C   UNL     1       1.531   6.516  20.751  0.00  0.00    +0.000 A 
ATOM      3  C   UNL     1       2.495   5.901  19.927  0.00  0.00    +0.000 A 
ATOM      4  C   UNL     1       2.953   4.599  20.183  0.00  0.00    +0.000 A 
ATOM      5  C   UNL     1       3.975   3.994  19.422  0.00  0.00    +0.000 A 
ATOM      6  C   UNL     1       4.566   4.732  18.371  0.00  0.00    +0.000 A 
ATOM      7  C   UNL     1       4.018   5.989  18.027  0.00  0.00    +0.000 A 
ATOM      8  C   UNL     1       3.022   6.605  18.837  0.00  0.00    +0.000 A 
ATOM      9  C   UNL     1       2.549   7.917  18.617  0.00  0.00    +0.000 A 
ATOM     10  C   UNL     1       1.610   8.544  19.448  0.00  0.00    +0.000 A 
ATOM     11  C   UNL     1       4.522   6.728  16.809  0.00  0.00    +0.000 C 
ATOM     12  C   UNL     1       5.533   5.981  15.959  0.00  0.00    +0.000 C 
ATOM     13  C   UNL     1       4.992   5.005  14.920  0.00  0.00    +0.000 C 
ATOM     14  C   UNL     1       6.228   4.164  14.587  0.00  0.00    +0.000 C 
ATOM     15  C   UNL     1       7.238   4.480  15.697  0.00  0.00    +0.000 C 
ATOM     16  N   UNL     1       6.475   5.174  16.749  0.00  0.00    +0.000 NA
ATOM     17  C   UNL     1       5.766   4.189  17.606  0.00  0.00    +0.000 C 
ENDROOT
BRANCH   1  19
ATOM     18  C   UNL     1       0.721   9.207  22.446  0.00  0.00    +0.000 C 
ATOM     19  O   UNL     1       0.190   8.448  21.363  0.00  0.00    +0.000 OA
ENDBRANCH   1  19
BRANCH  10  20
ATOM     20  O   UNL     1       1.350   9.822  19.032  0.00  0.00    +0.000 OA
ATOM     21  C   UNL     1       2.060  10.350  17.927  0.00  0.00    +0.000 C 
ENDBRANCH  10  20
BRANCH   5  22
ATOM     22  C   UNL     1       4.422   2.615  19.862  0.00  0.00    +0.000 C 
BRANCH  22  23
ATOM     23  O   UNL     1       4.090   1.597  18.931  0.00  0.00    +0.000 OA
ATOM     24  H   UNL     1       4.899   1.405  18.425  0.00  0.00    +0.000 HD
ENDBRANCH  22  23
ENDBRANCH   5  22
TORSDOF 4
ENDMDL
MODEL 2
REMARK VINA RESULT:      -7.2      1.168      1.202
REMARK  Name = 
REMARK  6 active torsions:
REMARK  status: ('A' for Active; 'I' for Inactive)
REMARK    1  A    between atoms: C_1  and  O_2
REMARK    2  A    between atoms: O_2  and  C_3
REMARK    3  A    between atoms: C_7  and  C_8
REMARK    4  A    between atoms: C_8  and  O_9
REMARK    5  A    between atoms: C_14  and  O_15
REMARK    6  A    between atoms: O_15  and  C_16
REMARK                            x       y       z     vdW  Elec       q    Type
REMARK                         _______ _______ _______ _____ _____    ______ ____
ROOT
ATOM      1  C   UNL     1       0.570   8.294  20.850  0.00  0.00    +0.000 A 
ATOM      2  C   UNL     1       0.865   6.949  21.135  0.00  0.00    +0.000 A 
ATOM      3  C   UNL     1       1.859   6.235  20.437  0.00  0.00    +0.000 A 
ATOM      4  C   UNL     1       2.182   4.910  20.773  0.00  0.00    +0.000 A 
ATOM      5  C   UNL     1       3.229   4.204  20.144  0.00  0.00    +0.000 A 
ATOM      6  C   UNL     1       3.985   4.860  19.145  0.00  0.00    +0.000 A 
ATOM      7  C   UNL     1       3.579   6.143  18.712  0.00  0.00    +0.000 A 
ATOM      8  C   UNL     1       2.554   6.860  19.393  0.00  0.00    +0.000 A 
ATOM      9  C   UNL     1       2.213   8.197  19.091  0.00  0.00    +0.000 A 
ATOM     10  C   UNL     1       1.244   8.920  19.799  0.00  0.00    +0.000 A 
ATOM     11  C   UNL     1       4.267   6.801  17.539  0.00  0.00    +0.000 C 
ATOM     12  C   UNL     1       5.300   5.951  16.823  0.00  0.00    +0.000 C 
ATOM     13  C   UNL     1       4.797   4.985  15.755  0.00  0.00    +0.000 C 
ATOM     14  C   UNL     1       5.991   4.042  15.580  0.00  0.00    +0.000 C 
ATOM     15  C   UNL     1       6.899   4.316  16.786  0.00  0.00    +0.000 C 
ATOM     16  N   UNL     1       6.085   5.101  17.730  0.00  0.00    +0.000 NA
ATOM     17  C   UNL     1       5.213   4.202  18.529  0.00  0.00    +0.000 C 
ENDROOT
BRANCH   1  19
ATOM     18  C   UNL     1      -0.021   9.382  22.875  0.00  0.00    +0.000 C 
ATOM     19  O   UNL     1      -0.375   8.997  21.550  0.00  0.00    +0.000 OA
ENDBRANCH   1  19
BRANCH  10  20
ATOM     20  O   UNL     1       1.132  10.200  19.326  0.00  0.00    +0.000 OA
ATOM     21  C   UNL     1      -0.011  10.564  18.574  0.00  0.00    +0.000 C 
ENDBRANCH  10  20
BRANCH   5  22
ATOM     22  C   UNL     1       3.514   2.811  20.663  0.00  0.00    +0.000 C 
BRANCH  22  23
ATOM     23  O   UNL     1       2.859   2.526  21.889  0.00  0.00    +0.000 OA
ATOM     24  H   UNL     1       2.911   3.333  22.430  0.00  0.00    +0.000 HD
ENDBRANCH  22  23
ENDBRANCH   5  22
TORSDOF 4
ENDMDL
MODEL 3
REMARK VINA RESULT:      -7.2      3.979      7.115
REMARK  Name = 
REMARK  6 active torsions:
REMARK  status: ('A' for Active; 'I' for Inactive)
REMARK    1  A    between atoms: C_1  and  O_2
REMARK    2  A    between atoms: O_2  and  C_3
REMARK    3  A    between atoms: C_7  and  C_8
REMARK    4  A    between atoms: C_8  and  O_9
REMARK    5  A    between atoms: C_14  and  O_15
REMARK    6  A    between atoms: O_15  and  C_16
REMARK                            x       y       z     vdW  Elec       q    Type
REMARK                         _______ _______ _______ _____ _____    ______ ____
ROOT
ATOM      1  C   UNL     1       7.062   4.631  13.459  0.00  0.00    +0.000 A 
ATOM      2  C   UNL     1       7.468   5.121  14.713  0.00  0.00    +0.000 A 
ATOM      3  C   UNL     1       6.707   4.914  15.881  0.00  0.00    +0.000 A 
ATOM      4  C   UNL     1       7.154   5.359  17.135  0.00  0.00    +0.000 A 
ATOM      5  C   UNL     1       6.451   5.091  18.328  0.00  0.00    +0.000 A 
ATOM      6  C   UNL     1       5.257   4.338  18.256  0.00  0.00    +0.000 A 
ATOM      7  C   UNL     1       4.734   4.004  16.985  0.00  0.00    +0.000 A 
ATOM      8  C   UNL     1       5.484   4.237  15.797  0.00  0.00    +0.000 A 
ATOM      9  C   UNL     1       5.070   3.792  14.522  0.00  0.00    +0.000 A 
ATOM     10  C   UNL     1       5.835   3.972  13.362  0.00  0.00    +0.000 A 
ATOM     11  C   UNL     1       3.381   3.341  16.872  0.00  0.00    +0.000 C 
ATOM     12  C   UNL     1       2.615   3.187  18.172  0.00  0.00    +0.000 C 
ATOM     13  C   UNL     1       1.791   4.379  18.647  0.00  0.00    +0.000 C 
ATOM     14  C   UNL     1       1.536   4.033  20.117  0.00  0.00    +0.000 C 
ATOM     15  C   UNL     1       2.515   2.898  20.438  0.00  0.00    +0.000 C 
ATOM     16  N   UNL     1       3.475   2.868  19.321  0.00  0.00    +0.000 NA
ATOM     17  C   UNL     1       4.527   3.898  19.519  0.00  0.00    +0.000 C 
ENDROOT
BRANCH   1  19
ATOM     18  C   UNL     1       7.869   6.130  11.805  0.00  0.00    +0.000 C 
ATOM     19  O   UNL     1       7.818   4.807  12.329  0.00  0.00    +0.000 OA
ENDBRANCH   1  19
BRANCH  10  20
ATOM     20  O   UNL     1       5.222   3.418  12.270  0.00  0.00    +0.000 OA
ATOM     21  C   UNL     1       5.756   2.237  11.699  0.00  0.00    +0.000 C 
ENDBRANCH  10  20
BRANCH   5  22
ATOM     22  C   UNL     1       7.093   5.565  19.615  0.00  0.00    +0.000 C 
BRANCH  22  23
ATOM     23  O   UNL     1       8.470   5.233  19.708  0.00  0.00    +0.000 OA
ATOM     24  H   UNL     1       8.625   4.501  19.086  0.00  0.00    +0.000 HD
ENDBRANCH  22  23
ENDBRANCH   5  22
TORSDOF 4
ENDMDL
MODEL 4
REMARK VINA RESULT:      -6.8      2.855      6.886
REMARK  Name = 
REMARK  6 active torsions:
REMARK  status: ('A' for Active; 'I' for Inactive)
REMARK    1  A    between atoms: C_1  and  O_2
REMARK    2  A    between atoms: O_2  and  C_3
REMARK    3  A    between atoms: C_7  and  C_8
REMARK    4  A    between atoms: C_8  and  O_9
REMARK    5  A    between atoms: C_14  and  O_15
REMARK    6  A    between atoms: O_15  and  C_16
REMARK                            x       y       z     vdW  Elec       q    Type
REMARK                         _______ _______ _______ _____ _____    ______ ____
ROOT
ATOM      1  C   UNL     1       3.094   5.361  19.056  0.00  0.00    +0.000 A 
ATOM      2  C   UNL     1       2.366   5.834  20.163  0.00  0.00    +0.000 A 
ATOM      3  C   UNL     1       1.845   7.143  20.213  0.00  0.00    +0.000 A 
ATOM      4  C   UNL     1       1.071   7.581  21.300  0.00  0.00    +0.000 A 
ATOM      5  C   UNL     1       0.470   8.857  21.335  0.00  0.00    +0.000 A 
ATOM      6  C   UNL     1       0.648   9.720  20.230  0.00  0.00    +0.000 A 
ATOM      7  C   UNL     1       1.534   9.336  19.197  0.00  0.00    +0.000 A 
ATOM      8  C   UNL     1       2.089   8.025  19.154  0.00  0.00    +0.000 A 
ATOM      9  C   UNL     1       2.860   7.548  18.071  0.00  0.00    +0.000 A 
ATOM     10  C   UNL     1       3.358   6.240  18.003  0.00  0.00    +0.000 A 
ATOM     11  C   UNL     1       1.868  10.303  18.085  0.00  0.00    +0.000 C 
ATOM     12  C   UNL     1       1.294  11.699  18.235  0.00  0.00    +0.000 C 
ATOM     13  C   UNL     1       2.075  12.692  19.089  0.00  0.00    +0.000 C 
ATOM     14  C   UNL     1       1.033  13.782  19.358  0.00  0.00    +0.000 C 
ATOM     15  C   UNL     1      -0.311  13.159  18.960  0.00  0.00    +0.000 C 
ATOM     16  N   UNL     1      -0.057  11.715  18.817  0.00  0.00    +0.000 NA
ATOM     17  C   UNL     1      -0.087  11.052  20.146  0.00  0.00    +0.000 C 
ENDROOT
BRANCH   1  19
ATOM     18  C   UNL     1       4.940   3.901  19.357  0.00  0.00    +0.000 C 
ATOM     19  O   UNL     1       3.574   4.080  18.994  0.00  0.00    +0.000 OA
ENDBRANCH   1  19
BRANCH  10  20
ATOM     20  O   UNL     1       4.042   6.027  16.836  0.00  0.00    +0.000 OA
ATOM     21  C   UNL     1       5.310   6.631  16.654  0.00  0.00    +0.000 C 
ENDBRANCH  10  20
BRANCH   5  22
ATOM     22  C   UNL     1      -0.402   9.163  22.535  0.00  0.00    +0.000 C 
BRANCH  22  23
ATOM     23  O   UNL     1       0.314   9.747  23.612  0.00  0.00    +0.000 OA
ATOM     24  H   UNL     1       0.836   9.034  24.021  0.00  0.00    +0.000 HD
ENDBRANCH  22  23
ENDBRANCH   5  22
TORSDOF 4
ENDMDL
MODEL 5
REMARK VINA RESULT:      -6.6      0.939      1.112
REMARK  Name = 
REMARK  6 active torsions:
REMARK  status: ('A' for Active; 'I' for Inactive)
REMARK    1  A    between atoms: C_1  and  O_2
REMARK    2  A    between atoms: O_2  and  C_3
REMARK    3  A    between atoms: C_7  and  C_8
REMARK    4  A    between atoms: C_8  and  O_9
REMARK    5  A    between atoms: C_14  and  O_15
REMARK    6  A    between atoms: O_15  and  C_16
REMARK                            x       y       z     vdW  Elec       q    Type
REMARK                         _______ _______ _______ _____ _____    ______ ____
ROOT
ATOM      1  C   UNL     1       1.117   9.165  19.636  0.00  0.00    +0.000 A 
ATOM      2  C   UNL     1       1.368   7.872  20.128  0.00  0.00    +0.000 A 
ATOM      3  C   UNL     1       2.302   7.008  19.522  0.00  0.00    +0.000 A 
ATOM      4  C   UNL     1       2.584   5.741  20.058  0.00  0.00    +0.000 A 
ATOM      5  C   UNL     1       3.574   4.894  19.518  0.00  0.00    +0.000 A 
ATOM      6  C   UNL     1       4.314   5.343  18.400  0.00  0.00    +0.000 A 
ATOM      7  C   UNL     1       3.943   6.556  17.777  0.00  0.00    +0.000 A 
ATOM      8  C   UNL     1       2.977   7.421  18.366  0.00  0.00    +0.000 A 
ATOM      9  C   UNL     1       2.679   8.706  17.861  0.00  0.00    +0.000 A 
ATOM     10  C   UNL     1       1.771   9.580  18.474  0.00  0.00    +0.000 A 
ATOM     11  C   UNL     1       4.608   6.982  16.488  0.00  0.00    +0.000 C 
ATOM     12  C   UNL     1       5.574   5.980  15.886  0.00  0.00    +0.000 C 
ATOM     13  C   UNL     1       4.988   4.878  15.009  0.00  0.00    +0.000 C 
ATOM     14  C   UNL     1       6.133   3.864  14.950  0.00  0.00    +0.000 C 
ATOM     15  C   UNL     1       7.101   4.286  16.062  0.00  0.00    +0.000 C 
ATOM     16  N   UNL     1       6.361   5.251  16.892  0.00  0.00    +0.000 NA
ATOM     17  C   UNL     1       5.487   4.536  17.858  0.00  0.00    +0.000 C 
ENDROOT
BRANCH   1  19
ATOM     18  C   UNL     1       0.261  10.044  21.668  0.00  0.00    +0.000 C 
ATOM     19  O   UNL     1       0.231  10.016  20.244  0.00  0.00    +0.000 OA
ENDBRANCH   1  19
BRANCH  10  20
ATOM     20  O   UNL     1       1.692  10.770  17.802  0.00  0.00    +0.000 OA
ATOM     21  C   UNL     1       2.398  11.894  18.295  0.00  0.00    +0.000 C 
ENDBRANCH  10  20
BRANCH   5  22
ATOM     22  C   UNL     1       3.824   3.591  20.248  0.00  0.00    +0.000 C 
BRANCH  22  23
ATOM     23  O   UNL     1       3.217   2.473  19.621  0.00  0.00    +0.000 OA
ATOM     24  H   UNL     1       2.546   2.824  19.009  0.00  0.00    +0.000 HD
ENDBRANCH  22  23
ENDBRANCH   5  22
TORSDOF 4
ENDMDL
MODEL 6
REMARK VINA RESULT:      -6.4      2.121      4.043
REMARK  Name = 
REMARK  6 active torsions:
REMARK  status: ('A' for Active; 'I' for Inactive)
REMARK    1  A    between atoms: C_1  and  O_2
REMARK    2  A    between atoms: O_2  and  C_3
REMARK    3  A    between atoms: C_7  and  C_8
REMARK    4  A    between atoms: C_8  and  O_9
REMARK    5  A    between atoms: C_14  and  O_15
REMARK    6  A    between atoms: O_15  and  C_16
REMARK                            x       y       z     vdW  Elec       q    Type
REMARK                         _______ _______ _______ _____ _____    ______ ____
ROOT
ATOM      1  C   UNL     1       1.081   9.502  19.894  0.00  0.00    +0.000 A 
ATOM      2  C   UNL     1       2.045   9.205  18.914  0.00  0.00    +0.000 A 
ATOM      3  C   UNL     1       2.532   7.897  18.713  0.00  0.00    +0.000 A 
ATOM      4  C   UNL     1       3.451   7.607  17.692  0.00  0.00    +0.000 A 
ATOM      5  C   UNL     1       3.888   6.294  17.419  0.00  0.00    +0.000 A 
ATOM      6  C   UNL     1       3.374   5.232  18.198  0.00  0.00    +0.000 A 
ATOM      7  C   UNL     1       2.554   5.535  19.310  0.00  0.00    +0.000 A 
ATOM      8  C   UNL     1       2.082   6.859  19.538  0.00  0.00    +0.000 A 
ATOM      9  C   UNL     1       1.148   7.183  20.546  0.00  0.00    +0.000 A 
ATOM     10  C   UNL     1       0.640   8.477  20.733  0.00  0.00    +0.000 A 
ATOM     11  C   UNL     1       2.121   4.437  20.254  0.00  0.00    +0.000 C 
ATOM     12  C   UNL     1       2.717   3.068  19.986  0.00  0.00    +0.000 C 
ATOM     13  C   UNL     1       4.097   2.777  20.568  0.00  0.00    +0.000 C 
ATOM     14  C   UNL     1       4.534   1.546  19.769  0.00  0.00    +0.000 C 
ATOM     15  C   UNL     1       3.560   1.468  18.586  0.00  0.00    +0.000 C 
ATOM     16  N   UNL     1       2.864   2.765  18.555  0.00  0.00    +0.000 NA
ATOM     17  C   UNL     1       3.699   3.782  17.864  0.00  0.00    +0.000 C 
ENDROOT
BRANCH   1  19
ATOM     18  C   UNL     1      -0.644  11.058  19.412  0.00  0.00    +0.000 C 
ATOM     19  O   UNL     1       0.586  10.768  20.068  0.00  0.00    +0.000 OA
ENDBRANCH   1  19
BRANCH  10  20
ATOM     20  O   UNL     1      -0.271   8.512  21.754  0.00  0.00    +0.000 OA
ATOM     21  C   UNL     1       0.016   9.270  22.915  0.00  0.00    +0.000 C 
ENDBRANCH  10  20
BRANCH   5  22
ATOM     22  C   UNL     1       4.819   6.121  16.237  0.00  0.00    +0.000 C 
BRANCH  22  23
ATOM     23  O   UNL     1       5.968   6.951  16.305  0.00  0.00    +0.000 OA
ATOM     24  H   UNL     1       5.861   7.635  15.622  0.00  0.00    +0.000 HD
ENDBRANCH  22  23
ENDBRANCH   5  22
TORSDOF 4
ENDMDL
MODEL 7
REMARK VINA RESULT:      -6.4      3.611      8.639
REMARK  Name = 
REMARK  6 active torsions:
REMARK  status: ('A' for Active; 'I' for Inactive)
REMARK    1  A    between atoms: C_1  and  O_2
REMARK    2  A    between atoms: O_2  and  C_3
REMARK    3  A    between atoms: C_7  and  C_8
REMARK    4  A    between atoms: C_8  and  O_9
REMARK    5  A    between atoms: C_14  and  O_15
REMARK    6  A    between atoms: O_15  and  C_16
REMARK                            x       y       z     vdW  Elec       q    Type
REMARK                         _______ _______ _______ _____ _____    ______ ____
ROOT
ATOM      1  C   UNL     1       2.351   7.129  18.819  0.00  0.00    +0.000 A 
ATOM      2  C   UNL     1       2.020   8.352  18.208  0.00  0.00    +0.000 A 
ATOM      3  C   UNL     1       1.373   9.389  18.909  0.00  0.00    +0.000 A 
ATOM      4  C   UNL     1       1.101  10.626  18.301  0.00  0.00    +0.000 A 
ATOM      5  C   UNL     1       0.530  11.706  19.006  0.00  0.00    +0.000 A 
ATOM      6  C   UNL     1       0.228  11.537  20.377  0.00  0.00    +0.000 A 
ATOM      7  C   UNL     1       0.375  10.256  20.957  0.00  0.00    +0.000 A 
ATOM      8  C   UNL     1       1.001   9.193  20.245  0.00  0.00    +0.000 A 
ATOM      9  C   UNL     1       1.301   7.943  20.829  0.00  0.00    +0.000 A 
ATOM     10  C   UNL     1       1.968   6.917  20.145  0.00  0.00    +0.000 A 
ATOM     11  C   UNL     1      -0.089  10.007  22.373  0.00  0.00    +0.000 C 
ATOM     12  C   UNL     1      -0.806  11.164  23.042  0.00  0.00    +0.000 C 
ATOM     13  C   UNL     1      -2.299  11.317  22.771  0.00  0.00    +0.000 C 
ATOM     14  C   UNL     1      -2.567  12.755  23.224  0.00  0.00    +0.000 C 
ATOM     15  C   UNL     1      -1.181  13.398  23.361  0.00  0.00    +0.000 C 
ATOM     16  N   UNL     1      -0.245  12.478  22.693  0.00  0.00    +0.000 NA
ATOM     17  C   UNL     1      -0.259  12.705  21.224  0.00  0.00    +0.000 C 
ENDROOT
BRANCH   1  19
ATOM     18  C   UNL     1       4.179   6.520  17.435  0.00  0.00    +0.000 C 
ATOM     19  O   UNL     1       3.008   6.133  18.146  0.00  0.00    +0.000 OA
ENDBRANCH   1  19
BRANCH  10  20
ATOM     20  O   UNL     1       2.162   5.826  20.949  0.00  0.00    +0.000 OA
ATOM     21  C   UNL     1       1.411   4.649  20.713  0.00  0.00    +0.000 C 
ENDBRANCH  10  20
BRANCH   5  22
ATOM     22  C   UNL     1       0.367  13.003  18.243  0.00  0.00    +0.000 C 
BRANCH  22  23
ATOM     23  O   UNL     1      -0.885  13.112  17.584  0.00  0.00    +0.000 OA
ATOM     24  H   UNL     1      -1.491  12.496  18.031  0.00  0.00    +0.000 HD
ENDBRANCH  22  23
ENDBRANCH   5  22
TORSDOF 4
ENDMDL
MODEL 8
REMARK VINA RESULT:      -6.3      3.674      7.231
REMARK  Name = 
REMARK  6 active torsions:
REMARK  status: ('A' for Active; 'I' for Inactive)
REMARK    1  A    between atoms: C_1  and  O_2
REMARK    2  A    between atoms: O_2  and  C_3
REMARK    3  A    between atoms: C_7  and  C_8
REMARK    4  A    between atoms: C_8  and  O_9
REMARK    5  A    between atoms: C_14  and  O_15
REMARK    6  A    between atoms: O_15  and  C_16
REMARK                            x       y       z     vdW  Elec       q    Type
REMARK                         _______ _______ _______ _____ _____    ______ ____
ROOT
ATOM      1  C   UNL     1       6.688   4.162  13.010  0.00  0.00    +0.000 A 
ATOM      2  C   UNL     1       7.267   4.791  14.127  0.00  0.00    +0.000 A 
ATOM      3  C   UNL     1       6.624   4.836  15.380  0.00  0.00    +0.000 A 
ATOM      4  C   UNL     1       7.241   5.417  16.499  0.00  0.00    +0.000 A 
ATOM      5  C   UNL     1       6.653   5.400  17.781  0.00  0.00    +0.000 A 
ATOM      6  C   UNL     1       5.400   4.765  17.943  0.00  0.00    +0.000 A 
ATOM      7  C   UNL     1       4.716   4.298  16.797  0.00  0.00    +0.000 A 
ATOM      8  C   UNL     1       5.348   4.277  15.521  0.00  0.00    +0.000 A 
ATOM      9  C   UNL     1       4.762   3.689  14.378  0.00  0.00    +0.000 A 
ATOM     10  C   UNL     1       5.407   3.618  13.136  0.00  0.00    +0.000 A 
ATOM     11  C   UNL     1       3.309   3.762  16.920  0.00  0.00    +0.000 C 
ATOM     12  C   UNL     1       2.679   3.878  18.295  0.00  0.00    +0.000 C 
ATOM     13  C   UNL     1       2.013   5.203  18.652  0.00  0.00    +0.000 C 
ATOM     14  C   UNL     1       1.892   5.107  20.176  0.00  0.00    +0.000 C 
ATOM     15  C   UNL     1       2.804   3.942  20.578  0.00  0.00    +0.000 C 
ATOM     16  N   UNL     1       3.630   3.652  19.393  0.00  0.00    +0.000 NA
ATOM     17  C   UNL     1       4.779   4.591  19.324  0.00  0.00    +0.000 C 
ENDROOT
BRANCH   1  19
ATOM     18  C   UNL     1       7.628   2.785  11.321  0.00  0.00    +0.000 C 
ATOM     19  O   UNL     1       7.327   4.092  11.800  0.00  0.00    +0.000 OA
ENDBRANCH   1  19
BRANCH  10  20
ATOM     20  O   UNL     1       4.635   2.971  12.209  0.00  0.00    +0.000 OA
ATOM     21  C   UNL     1       3.983   3.724  11.203  0.00  0.00    +0.000 C 
ENDBRANCH  10  20
BRANCH   5  22
ATOM     22  C   UNL     1       7.468   5.994  18.910  0.00  0.00    +0.000 C 
BRANCH  22  23
ATOM     23  O   UNL     1       8.407   5.084  19.461  0.00  0.00    +0.000 OA
ATOM     24  H   UNL     1       8.279   5.100  20.426  0.00  0.00    +0.000 HD
ENDBRANCH  22  23
ENDBRANCH   5  22
TORSDOF 4
ENDMDL
MODEL 9
REMARK VINA RESULT:      -6.3      2.403      4.630
REMARK  Name = 
REMARK  6 active torsions:
REMARK  status: ('A' for Active; 'I' for Inactive)
REMARK    1  A    between atoms: C_1  and  O_2
REMARK    2  A    between atoms: O_2  and  C_3
REMARK    3  A    between atoms: C_7  and  C_8
REMARK    4  A    between atoms: C_8  and  O_9
REMARK    5  A    between atoms: C_14  and  O_15
REMARK    6  A    between atoms: O_15  and  C_16
REMARK                            x       y       z     vdW  Elec       q    Type
REMARK                         _______ _______ _______ _____ _____    ______ ____
ROOT
ATOM      1  C   UNL     1       1.426  10.757  18.689  0.00  0.00    +0.000 A 
ATOM      2  C   UNL     1       2.390  10.003  17.996  0.00  0.00    +0.000 A 
ATOM      3  C   UNL     1       2.563   8.622  18.219  0.00  0.00    +0.000 A 
ATOM      4  C   UNL     1       3.490   7.871  17.478  0.00  0.00    +0.000 A 
ATOM      5  C   UNL     1       3.622   6.475  17.625  0.00  0.00    +0.000 A 
ATOM      6  C   UNL     1       2.783   5.808  18.546  0.00  0.00    +0.000 A 
ATOM      7  C   UNL     1       1.945   6.575  19.388  0.00  0.00    +0.000 A 
ATOM      8  C   UNL     1       1.787   7.976  19.189  0.00  0.00    +0.000 A 
ATOM      9  C   UNL     1       0.855   8.758  19.908  0.00  0.00    +0.000 A 
ATOM     10  C   UNL     1       0.660  10.126  19.672  0.00  0.00    +0.000 A 
ATOM     11  C   UNL     1       1.158   5.904  20.490  0.00  0.00    +0.000 C 
ATOM     12  C   UNL     1       1.428   4.425  20.683  0.00  0.00    +0.000 C 
ATOM     13  C   UNL     1       2.624   4.036  21.547  0.00  0.00    +0.000 C 
ATOM     14  C   UNL     1       2.833   2.566  21.172  0.00  0.00    +0.000 C 
ATOM     15  C   UNL     1       2.005   2.355  19.899  0.00  0.00    +0.000 C 
ATOM     16  N   UNL     1       1.653   3.703  19.421  0.00  0.00    +0.000 NA
ATOM     17  C   UNL     1       2.780   4.288  18.650  0.00  0.00    +0.000 C 
ENDROOT
BRANCH   1  19
ATOM     18  C   UNL     1       2.056  12.988  19.197  0.00  0.00    +0.000 C 
ATOM     19  O   UNL     1       1.237  12.093  18.450  0.00  0.00    +0.000 OA
ENDBRANCH   1  19
BRANCH  10  20
ATOM     20  O   UNL     1      -0.322  10.636  20.479  0.00  0.00    +0.000 OA
ATOM     21  C   UNL     1      -0.028  10.919  21.835  0.00  0.00    +0.000 C 
ENDBRANCH  10  20
BRANCH   5  22
ATOM     22  C   UNL     1       4.606   5.786  16.703  0.00  0.00    +0.000 C 
BRANCH  22  23
ATOM     23  O   UNL     1       5.186   6.662  15.750  0.00  0.00    +0.000 OA
ATOM     24  H   UNL     1       5.977   7.048  16.167  0.00  0.00    +0.000 HD
ENDBRANCH  22  23
ENDBRANCH   5  22
TORSDOF 4
ENDMDL
