MODEL 1
REMARK VINA RESULT:      -6.8      0.000      0.000
REMARK  Name = 
REMARK  5 active torsions:
REMARK  status: ('A' for Active; 'I' for Inactive)
REMARK    1  A    between atoms: C_1  and  C_2
REMARK    2  A    between atoms: C_4  and  C_5
REMARK    3  A    between atoms: N_8  and  C_9
REMARK    4  A    between atoms: C_9  and  C_10
REMARK    5  A    between atoms: C_9  and  C_11
REMARK                            x       y       z     vdW  Elec       q    Type
REMARK                         _______ _______ _______ _____ _____    ______ ____
ROOT
ATOM      1  C   UNL     1       5.614   6.029  18.126  0.00  0.00    +0.000 C 
ATOM      2  C   UNL     1       5.162   6.722  16.844  0.00  0.00    +0.000 C 
ATOM      3  C   UNL     1       5.436   5.927  15.565  0.00  0.00    +0.000 C 
ATOM      4  N   UNL     1       6.816   5.407  15.441  0.00  0.00    +0.000 NA
ATOM      5  C   UNL     1       7.266   4.741  16.675  0.00  0.00    +0.000 C 
ATOM      6  C   UNL     1       7.055   5.564  17.947  0.00  0.00    +0.000 C 
ENDROOT
BRANCH   1  10
ATOM      7  C   UNL     1       3.453   1.533  18.433  0.00  0.00    +0.000 C 
ATOM      8  C   UNL     1       3.607   2.984  18.752  0.00  0.00    +0.000 A 
ATOM      9  N   UNL     1       4.729   3.659  18.259  0.00  0.00    +0.000 NA
ATOM     10  C   UNL     1       4.682   4.929  18.604  0.00  0.00    +0.000 A 
ATOM     11  S   UNL     1       3.367   5.337  19.656  0.00  0.00    +0.000 S 
ATOM     12  C   UNL     1       2.741   3.774  19.464  0.00  0.00    +0.000 A 
ATOM     13 BR   UNL     1       1.074   3.232  20.121  0.00  0.00    +0.000 Br
ENDBRANCH   1  10
BRANCH   4  14
ATOM     14  C   UNL     1       6.925   4.488  14.266  0.00  0.00    +0.000 C 
ATOM     15  C   UNL     1       5.553   3.995  13.776  0.00  0.00    +0.000 C 
ATOM     16  C   UNL     1       7.639   5.125  13.059  0.00  0.00    +0.000 C 
ENDBRANCH   4  14
TORSDOF 2
ENDMDL
MODEL 2
REMARK VINA RESULT:      -6.7      3.253      5.848
REMARK  Name = 
REMARK  5 active torsions:
REMARK  status: ('A' for Active; 'I' for Inactive)
REMARK    1  A    between atoms: C_1  and  C_2
REMARK    2  A    between atoms: C_4  and  C_5
REMARK    3  A    between atoms: N_8  and  C_9
REMARK    4  A    between atoms: C_9  and  C_10
REMARK    5  A    between atoms: C_9  and  C_11
REMARK                            x       y       z     vdW  Elec       q    Type
REMARK                         _______ _______ _______ _____ _____    ______ ____
ROOT
ATOM      1  C   UNL     1       4.089   3.311  17.217  0.00  0.00    +0.000 C 
ATOM      2  C   UNL     1       2.753   4.010  16.986  0.00  0.00    +0.000 C 
ATOM      3  C   UNL     1       2.036   4.441  18.269  0.00  0.00    +0.000 C 
ATOM      4  N   UNL     1       1.925   3.389  19.303  0.00  0.00    +0.000 NA
ATOM      5  C   UNL     1       3.209   2.703  19.529  0.00  0.00    +0.000 C 
ATOM      6  C   UNL     1       3.893   2.210  18.253  0.00  0.00    +0.000 C 
ENDROOT
BRANCH   1  10
ATOM      7  C   UNL     1       7.734   5.502  19.843  0.00  0.00    +0.000 C 
ATOM      8  C   UNL     1       6.822   5.338  18.671  0.00  0.00    +0.000 A 
ATOM      9  N   UNL     1       5.993   4.212  18.624  0.00  0.00    +0.000 NA
ATOM     10  C   UNL     1       5.236   4.251  17.547  0.00  0.00    +0.000 A 
ATOM     11  S   UNL     1       5.589   5.562  16.471  0.00  0.00    +0.000 S 
ATOM     12  C   UNL     1       6.665   6.199  17.614  0.00  0.00    +0.000 A 
ATOM     13 BR   UNL     1       7.494   7.869  17.448  0.00  0.00    +0.000 Br
ENDBRANCH   1  10
BRANCH   4  14
ATOM     14  C   UNL     1       1.391   3.963  20.577  0.00  0.00    +0.000 C 
ATOM     15  C   UNL     1       1.876   3.193  21.817  0.00  0.00    +0.000 C 
ATOM     16  C   UNL     1       1.767   5.442  20.782  0.00  0.00    +0.000 C 
ENDBRANCH   4  14
TORSDOF 2
ENDMDL
MODEL 3
REMARK VINA RESULT:      -6.4      1.754      3.029
REMARK  Name = 
REMARK  5 active torsions:
REMARK  status: ('A' for Active; 'I' for Inactive)
REMARK    1  A    between atoms: C_1  and  C_2
REMARK    2  A    between atoms: C_4  and  C_5
REMARK    3  A    between atoms: N_8  and  C_9
REMARK    4  A    between atoms: C_9  and  C_10
REMARK    5  A    between atoms: C_9  and  C_11
REMARK                            x       y       z     vdW  Elec       q    Type
REMARK                         _______ _______ _______ _____ _____    ______ ____
ROOT
ATOM      1  C   UNL     1       3.976   4.931  16.900  0.00  0.00    +0.000 C 
ATOM      2  C   UNL     1       5.210   4.480  16.124  0.00  0.00    +0.000 C 
ATOM      3  C   UNL     1       6.526   5.079  16.628  0.00  0.00    +0.000 C 
ATOM      4  N   UNL     1       6.510   6.547  16.815  0.00  0.00    +0.000 NA
ATOM      5  C   UNL     1       5.319   6.994  17.556  0.00  0.00    +0.000 C 
ATOM      6  C   UNL     1       3.996   6.451  17.011  0.00  0.00    +0.000 C 
ENDROOT
BRANCH   1  10
ATOM      7  C   UNL     1       4.724   1.689  20.630  0.00  0.00    +0.000 C 
ATOM      8  C   UNL     1       3.995   2.775  19.907  0.00  0.00    +0.000 A 
ATOM      9  N   UNL     1       4.580   3.320  18.759  0.00  0.00    +0.000 NA
ATOM     10  C   UNL     1       3.787   4.231  18.235  0.00  0.00    +0.000 A 
ATOM     11  S   UNL     1       2.374   4.577  19.176  0.00  0.00    +0.000 S 
ATOM     12  C   UNL     1       2.767   3.300  20.218  0.00  0.00    +0.000 A 
ATOM     13 BR   UNL     1       1.644   2.688  21.585  0.00  0.00    +0.000 Br
ENDBRANCH   1  10
BRANCH   4  14
ATOM     14  C   UNL     1       7.765   7.002  17.490  0.00  0.00    +0.000 C 
ATOM     15  C   UNL     1       7.811   8.527  17.679  0.00  0.00    +0.000 C 
ATOM     16  C   UNL     1       7.976   6.362  18.875  0.00  0.00    +0.000 C 
ENDBRANCH   4  14
TORSDOF 2
ENDMDL
MODEL 4
REMARK VINA RESULT:      -6.4      0.648      1.090
REMARK  Name = 
REMARK  5 active torsions:
REMARK  status: ('A' for Active; 'I' for Inactive)
REMARK    1  A    between atoms: C_1  and  C_2
REMARK    2  A    between atoms: C_4  and  C_5
REMARK    3  A    between atoms: N_8  and  C_9
REMARK    4  A    between atoms: C_9  and  C_10
REMARK    5  A    between atoms: C_9  and  C_11
REMARK                            x       y       z     vdW  Elec       q    Type
REMARK                         _______ _______ _______ _____ _____    ______ ____
ROOT
ATOM      1  C   UNL     1       6.365   5.641  18.574  0.00  0.00    +0.000 C 
ATOM      2  C   UNL     1       5.996   6.797  17.649  0.00  0.00    +0.000 C 
ATOM      3  C   UNL     1       5.843   6.404  16.177  0.00  0.00    +0.000 C 
ATOM      4  N   UNL     1       6.961   5.607  15.627  0.00  0.00    +0.000 NA
ATOM      5  C   UNL     1       7.330   4.492  16.515  0.00  0.00    +0.000 C 
ATOM      6  C   UNL     1       7.552   4.895  17.974  0.00  0.00    +0.000 C 
ENDROOT
BRANCH   1  10
ATOM      7  C   UNL     1       3.588   1.498  18.884  0.00  0.00    +0.000 C 
ATOM      8  C   UNL     1       3.863   2.957  19.046  0.00  0.00    +0.000 A 
ATOM      9  N   UNL     1       5.152   3.426  18.775  0.00  0.00    +0.000 NA
ATOM     10  C   UNL     1       5.202   4.733  18.933  0.00  0.00    +0.000 A 
ATOM     11  S   UNL     1       3.745   5.434  19.556  0.00  0.00    +0.000 S 
ATOM     12  C   UNL     1       2.971   3.934  19.408  0.00  0.00    +0.000 A 
ATOM     13 BR   UNL     1       1.137   3.677  19.681  0.00  0.00    +0.000 Br
ENDBRANCH   1  10
BRANCH   4  14
ATOM     14  C   UNL     1       6.625   5.112  14.256  0.00  0.00    +0.000 C 
ATOM     15  C   UNL     1       7.822   5.189  13.293  0.00  0.00    +0.000 C 
ATOM     16  C   UNL     1       6.118   3.658  14.241  0.00  0.00    +0.000 C 
ENDBRANCH   4  14
TORSDOF 2
ENDMDL
MODEL 5
REMARK VINA RESULT:      -6.4      2.864      5.543
REMARK  Name = 
REMARK  5 active torsions:
REMARK  status: ('A' for Active; 'I' for Inactive)
REMARK    1  A    between atoms: C_1  and  C_2
REMARK    2  A    between atoms: C_4  and  C_5
REMARK    3  A    between atoms: N_8  and  C_9
REMARK    4  A    between atoms: C_9  and  C_10
REMARK    5  A    between atoms: C_9  and  C_11
REMARK                            x       y       z     vdW  Elec       q    Type
REMARK                         _______ _______ _______ _____ _____    ______ ____
ROOT
ATOM      1  C   UNL     1       6.701   5.663  17.318  0.00  0.00    +0.000 C 
ATOM      2  C   UNL     1       6.346   4.599  18.352  0.00  0.00    +0.000 C 
ATOM      3  C   UNL     1       4.866   4.203  18.368  0.00  0.00    +0.000 C 
ATOM      4  N   UNL     1       3.919   5.340  18.412  0.00  0.00    +0.000 NA
ATOM      5  C   UNL     1       4.258   6.376  17.422  0.00  0.00    +0.000 C 
ATOM      6  C   UNL     1       5.721   6.822  17.452  0.00  0.00    +0.000 C 
ENDROOT
BRANCH   1  10
ATOM      7  C   UNL     1       8.082   5.422  12.520  0.00  0.00    +0.000 C 
ATOM      8  C   UNL     1       7.320   4.994  13.732  0.00  0.00    +0.000 A 
ATOM      9  N   UNL     1       7.610   5.609  14.954  0.00  0.00    +0.000 NA
ATOM     10  C   UNL     1       6.822   5.137  15.898  0.00  0.00    +0.000 A 
ATOM     11  S   UNL     1       5.801   3.832  15.391  0.00  0.00    +0.000 S 
ATOM     12  C   UNL     1       6.313   4.064  13.793  0.00  0.00    +0.000 A 
ATOM     13 BR   UNL     1       5.568   3.178  12.322  0.00  0.00    +0.000 Br
ENDBRANCH   1  10
BRANCH   4  14
ATOM     14  C   UNL     1       2.516   4.858  18.226  0.00  0.00    +0.000 C 
ATOM     15  C   UNL     1       2.445   3.554  17.414  0.00  0.00    +0.000 C 
ATOM     16  C   UNL     1       1.777   4.610  19.555  0.00  0.00    +0.000 C 
ENDBRANCH   4  14
TORSDOF 2
ENDMDL
MODEL 6
REMARK VINA RESULT:      -6.4      2.756      5.455
REMARK  Name = 
REMARK  5 active torsions:
REMARK  status: ('A' for Active; 'I' for Inactive)
REMARK    1  A    between atoms: C_1  and  C_2
REMARK    2  A    between atoms: C_4  and  C_5
REMARK    3  A    between atoms: N_8  and  C_9
REMARK    4  A    between atoms: C_9  and  C_10
REMARK    5  A    between atoms: C_9  and  C_11
REMARK                            x       y       z     vdW  Elec       q    Type
REMARK                         _______ _______ _______ _____ _____    ______ ____
ROOT
ATOM      1  C   UNL     1       6.069   5.911  17.393  0.00  0.00    +0.000 C 
ATOM      2  C   UNL     1       6.257   4.948  18.561  0.00  0.00    +0.000 C 
ATOM      3  C   UNL     1       5.123   3.933  18.731  0.00  0.00    +0.000 C 
ATOM      4  N   UNL     1       3.762   4.513  18.722  0.00  0.00    +0.000 NA
ATOM      5  C   UNL     1       3.572   5.450  17.601  0.00  0.00    +0.000 C 
ATOM      6  C   UNL     1       4.669   6.509  17.473  0.00  0.00    +0.000 C 
ENDROOT
BRANCH   1  10
ATOM      7  C   UNL     1       8.201   5.387  12.904  0.00  0.00    +0.000 C 
ATOM      8  C   UNL     1       7.230   5.049  13.988  0.00  0.00    +0.000 A 
ATOM      9  N   UNL     1       7.348   5.707  15.216  0.00  0.00    +0.000 NA
ATOM     10  C   UNL     1       6.393   5.316  16.034  0.00  0.00    +0.000 A 
ATOM     11  S   UNL     1       5.402   4.035  15.416  0.00  0.00    +0.000 S 
ATOM     12  C   UNL     1       6.180   4.169  13.917  0.00  0.00    +0.000 A 
ATOM     13 BR   UNL     1       5.641   3.250  12.378  0.00  0.00    +0.000 Br
ENDBRANCH   1  10
BRANCH   4  14
ATOM     14  C   UNL     1       2.732   3.429  18.695  0.00  0.00    +0.000 C 
ATOM     15  C   UNL     1       1.446   3.858  17.969  0.00  0.00    +0.000 C 
ATOM     16  C   UNL     1       3.227   2.135  18.023  0.00  0.00    +0.000 C 
ENDBRANCH   4  14
TORSDOF 2
ENDMDL
MODEL 7
REMARK VINA RESULT:      -6.4      3.032      5.535
REMARK  Name = 
REMARK  5 active torsions:
REMARK  status: ('A' for Active; 'I' for Inactive)
REMARK    1  A    between atoms: C_1  and  C_2
REMARK    2  A    between atoms: C_4  and  C_5
REMARK    3  A    between atoms: N_8  and  C_9
REMARK    4  A    between atoms: C_9  and  C_10
REMARK    5  A    between atoms: C_9  and  C_11
REMARK                            x       y       z     vdW  Elec       q    Type
REMARK                         _______ _______ _______ _____ _____    ______ ____
ROOT
ATOM      1  C   UNL     1       7.132   5.356  17.195  0.00  0.00    +0.000 C 
ATOM      2  C   UNL     1       6.319   4.484  18.148  0.00  0.00    +0.000 C 
ATOM      3  C   UNL     1       4.815   4.768  18.137  0.00  0.00    +0.000 C 
ATOM      4  N   UNL     1       4.450   6.197  18.265  0.00  0.00    +0.000 NA
ATOM      5  C   UNL     1       5.234   7.048  17.354  0.00  0.00    +0.000 C 
ATOM      6  C   UNL     1       6.744   6.814  17.416  0.00  0.00    +0.000 C 
ENDROOT
BRANCH   1  10
ATOM      7  C   UNL     1       7.872   5.428  12.253  0.00  0.00    +0.000 C 
ATOM      8  C   UNL     1       7.267   4.925  13.523  0.00  0.00    +0.000 A 
ATOM      9  N   UNL     1       7.724   5.454  14.734  0.00  0.00    +0.000 NA
ATOM     10  C   UNL     1       7.058   4.926  15.740  0.00  0.00    +0.000 A 
ATOM     11  S   UNL     1       5.958   3.666  15.287  0.00  0.00    +0.000 S 
ATOM     12  C   UNL     1       6.262   4.001  13.654  0.00  0.00    +0.000 A 
ATOM     13 BR   UNL     1       5.317   3.222  12.238  0.00  0.00    +0.000 Br
ENDBRANCH   1  10
BRANCH   4  14
ATOM     14  C   UNL     1       2.983   6.384  18.045  0.00  0.00    +0.000 C 
ATOM     15  C   UNL     1       2.218   5.050  18.018  0.00  0.00    +0.000 C 
ATOM     16  C   UNL     1       2.316   7.272  19.112  0.00  0.00    +0.000 C 
ENDBRANCH   4  14
TORSDOF 2
ENDMDL
MODEL 8
REMARK VINA RESULT:      -6.3      1.105      1.222
REMARK  Name = 
REMARK  5 active torsions:
REMARK  status: ('A' for Active; 'I' for Inactive)
REMARK    1  A    between atoms: C_1  and  C_2
REMARK    2  A    between atoms: C_4  and  C_5
REMARK    3  A    between atoms: N_8  and  C_9
REMARK    4  A    between atoms: C_9  and  C_10
REMARK    5  A    between atoms: C_9  and  C_11
REMARK                            x       y       z     vdW  Elec       q    Type
REMARK                         _______ _______ _______ _____ _____    ______ ____
ROOT
ATOM      1  C   UNL     1       5.508   6.233  17.736  0.00  0.00    +0.000 C 
ATOM      2  C   UNL     1       5.160   6.876  16.397  0.00  0.00    +0.000 C 
ATOM      3  C   UNL     1       5.456   5.998  15.178  0.00  0.00    +0.000 C 
ATOM      4  N   UNL     1       6.809   5.400  15.156  0.00  0.00    +0.000 NA
ATOM      5  C   UNL     1       7.158   4.782  16.447  0.00  0.00    +0.000 C 
ATOM      6  C   UNL     1       6.928   5.685  17.660  0.00  0.00    +0.000 C 
ENDROOT
BRANCH   1  10
ATOM      7  C   UNL     1       1.215   3.694  18.062  0.00  0.00    +0.000 C 
ATOM      8  C   UNL     1       2.592   4.085  18.491  0.00  0.00    +0.000 A 
ATOM      9  N   UNL     1       3.326   4.947  17.671  0.00  0.00    +0.000 NA
ATOM     10  C   UNL     1       4.493   5.211  18.220  0.00  0.00    +0.000 A 
ATOM     11  S   UNL     1       4.819   4.322  19.672  0.00  0.00    +0.000 S 
ATOM     12  C   UNL     1       3.236   3.718  19.646  0.00  0.00    +0.000 A 
ATOM     13 BR   UNL     1       2.482   2.712  21.033  0.00  0.00    +0.000 Br
ENDBRANCH   1  10
BRANCH   4  14
ATOM     14  C   UNL     1       6.927   4.413  14.039  0.00  0.00    +0.000 C 
ATOM     15  C   UNL     1       5.563   3.852  13.604  0.00  0.00    +0.000 C 
ATOM     16  C   UNL     1       7.604   4.993  12.783  0.00  0.00    +0.000 C 
ENDBRANCH   4  14
TORSDOF 2
ENDMDL
MODEL 9
REMARK VINA RESULT:      -6.2      1.960      3.438
REMARK  Name = 
REMARK  5 active torsions:
REMARK  status: ('A' for Active; 'I' for Inactive)
REMARK    1  A    between atoms: C_1  and  C_2
REMARK    2  A    between atoms: C_4  and  C_5
REMARK    3  A    between atoms: N_8  and  C_9
REMARK    4  A    between atoms: C_9  and  C_10
REMARK    5  A    between atoms: C_9  and  C_11
REMARK                            x       y       z     vdW  Elec       q    Type
REMARK                         _______ _______ _______ _____ _____    ______ ____
ROOT
ATOM      1  C   UNL     1       4.622   4.712  16.278  0.00  0.00    +0.000 C 
ATOM      2  C   UNL     1       5.981   4.021  16.312  0.00  0.00    +0.000 C 
ATOM      3  C   UNL     1       7.047   4.762  17.124  0.00  0.00    +0.000 C 
ATOM      4  N   UNL     1       7.180   6.202  16.808  0.00  0.00    +0.000 NA
ATOM      5  C   UNL     1       5.872   6.878  16.767  0.00  0.00    +0.000 C 
ATOM      6  C   UNL     1       4.827   6.175  15.899  0.00  0.00    +0.000 C 
ENDROOT
BRANCH   1  10
ATOM      7  C   UNL     1       1.905   5.886  20.305  0.00  0.00    +0.000 C 
ATOM      8  C   UNL     1       2.648   4.961  19.397  0.00  0.00    +0.000 A 
ATOM      9  N   UNL     1       3.140   5.466  18.189  0.00  0.00    +0.000 NA
ATOM     10  C   UNL     1       3.796   4.527  17.539  0.00  0.00    +0.000 A 
ATOM     11  S   UNL     1       3.725   2.961  18.278  0.00  0.00    +0.000 S 
ATOM     12  C   UNL     1       2.948   3.641  19.622  0.00  0.00    +0.000 A 
ATOM     13 BR   UNL     1       2.584   2.703  21.200  0.00  0.00    +0.000 Br
ENDBRANCH   1  10
BRANCH   4  14
ATOM     14  C   UNL     1       8.097   6.868  17.784  0.00  0.00    +0.000 C 
ATOM     15  C   UNL     1       7.868   8.386  17.865  0.00  0.00    +0.000 C 
ATOM     16  C   UNL     1       7.975   6.310  19.214  0.00  0.00    +0.000 C 
ENDBRANCH   4  14
TORSDOF 2
ENDMDL
