MODEL 1
REMARK VINA RESULT:      -7.5      0.000      0.000
REMARK  Name = 
REMARK  9 active torsions:
REMARK  status: ('A' for Active; 'I' for Inactive)
REMARK    1  A    between atoms: C_4  and  C_5
REMARK    2  A    between atoms: C_5  and  N_6
REMARK    3  A    between atoms: C_7  and  S_8
REMARK    4  A    between atoms: N_9  and  C_10
REMARK    5  A    between atoms: C_10  and  C_11
REMARK    6  A    between atoms: C_11  and  C_12
REMARK    7  A    between atoms: C_12  and  O_13
REMARK    8  A    between atoms: N_15  and  C_16
REMARK    9  A    between atoms: C_19  and  N_20
REMARK                            x       y       z     vdW  Elec       q    Type
REMARK                         _______ _______ _______ _____ _____    ______ ____
ROOT
ATOM      1  O   UNL     1      -1.080  10.416  18.519  0.00  0.00    +0.000 OA
ATOM      2  C   UNL     1      -0.640  10.523  19.652  0.00  0.00    +0.000 C 
ATOM      3  O   UNL     1      -1.206  11.380  20.566  0.00  0.00    +0.000 OA
ATOM      4  C   UNL     1      -0.332  11.448  21.701  0.00  0.00    +0.000 C 
ATOM      5  C   UNL     1       0.445  10.151  21.647  0.00  0.00    +0.000 C 
ATOM      6  N   UNL     1       0.405   9.831  20.243  0.00  0.00    +0.000 N 
ENDROOT
BRANCH   6   7
ATOM      7  C   UNL     1       1.215   8.840  19.641  0.00  0.00    +0.000 A 
ATOM      8  C   UNL     1       1.691   8.982  18.331  0.00  0.00    +0.000 A 
ATOM      9  C   UNL     1       2.494   7.999  17.733  0.00  0.00    +0.000 A 
ATOM     10  C   UNL     1       2.785   6.820  18.429  0.00  0.00    +0.000 A 
ATOM     11  C   UNL     1       2.343   6.688  19.743  0.00  0.00    +0.000 A 
ATOM     12  F   UNL     1       2.695   5.636  20.494  0.00  0.00    +0.000 F 
ATOM     13  C   UNL     1       1.585   7.687  20.349  0.00  0.00    +0.000 A 
BRANCH  10  14
ATOM     14  N   UNL     1       3.508   5.795  17.785  0.00  0.00    +0.000 N 
ATOM     15  N   UNL     1       2.940   4.582  17.561  0.00  0.00    +0.000 NA
ATOM     16  N   UNL     1       3.803   3.833  16.888  0.00  0.00    +0.000 NA
ATOM     17  C   UNL     1       4.974   4.526  16.789  0.00  0.00    +0.000 A 
ATOM     18  C   UNL     1       6.212   4.144  16.249  0.00  0.00    +0.000 A 
ATOM     19  C   UNL     1       7.295   5.024  16.360  0.00  0.00    +0.000 A 
ATOM     20  C   UNL     1       7.150   6.256  16.996  0.00  0.00    +0.000 A 
ATOM     21  C   UNL     1       5.917   6.659  17.519  0.00  0.00    +0.000 A 
ATOM     22  C   UNL     1       4.834   5.778  17.378  0.00  0.00    +0.000 A 
ENDBRANCH  10  14
ENDBRANCH   6   7
BRANCH   4  23
ATOM     23  C   UNL     1      -1.118  11.622  23.003  0.00  0.00    +0.000 C 
BRANCH  23  24
ATOM     24  N   UNL     1      -1.633  12.974  23.121  0.00  0.00    +0.000 N 
ATOM     25  C   UNL     1      -2.904  13.332  22.793  0.00  0.00    +0.000 C 
ATOM     26  N   UNL     1      -3.846  12.473  22.625  0.00  0.00    +0.000 NA
ATOM     27  H   UNL     1      -1.098  13.638  23.669  0.00  0.00    +0.000 HD
BRANCH  25  28
ATOM     28  S   UNL     1      -3.088  15.066  22.627  0.00  0.00    +0.000 S 
ATOM     29  H   UNL     1      -4.217  15.018  21.907  0.00  0.00    +0.000 HD
ENDBRANCH  25  28
BRANCH  26  30
ATOM     30  C   UNL     1      -5.199  12.918  22.297  0.00  0.00    +0.000 C 
BRANCH  30  31
ATOM     31  C   UNL     1      -5.620  12.292  20.970  0.00  0.00    +0.000 C 
BRANCH  31  32
ATOM     32  C   UNL     1      -5.060  13.044  19.770  0.00  0.00    +0.000 C 
BRANCH  32  33
ATOM     33  O   UNL     1      -3.730  12.609  19.506  0.00  0.00    +0.000 OA
ATOM     34  H   UNL     1      -3.743  12.159  18.644  0.00  0.00    +0.000 HD
ENDBRANCH  32  33
ENDBRANCH  31  32
ENDBRANCH  30  31
ENDBRANCH  26  30
ENDBRANCH  23  24
ENDBRANCH   4  23
TORSDOF 9
ENDMDL
MODEL 2
REMARK VINA RESULT:      -7.5      2.931      3.640
REMARK  Name = 
REMARK  9 active torsions:
REMARK  status: ('A' for Active; 'I' for Inactive)
REMARK    1  A    between atoms: C_4  and  C_5
REMARK    2  A    between atoms: C_5  and  N_6
REMARK    3  A    between atoms: C_7  and  S_8
REMARK    4  A    between atoms: N_9  and  C_10
REMARK    5  A    between atoms: C_10  and  C_11
REMARK    6  A    between atoms: C_11  and  C_12
REMARK    7  A    between atoms: C_12  and  O_13
REMARK    8  A    between atoms: N_15  and  C_16
REMARK    9  A    between atoms: C_19  and  N_20
REMARK                            x       y       z     vdW  Elec       q    Type
REMARK                         _______ _______ _______ _____ _____    ______ ____
ROOT
ATOM      1  O   UNL     1       2.121  12.175  19.385  0.00  0.00    +0.000 OA
ATOM      2  C   UNL     1       0.973  11.864  19.655  0.00  0.00    +0.000 C 
ATOM      3  O   UNL     1      -0.007  12.811  19.838  0.00  0.00    +0.000 OA
ATOM      4  C   UNL     1      -1.163  12.147  20.365  0.00  0.00    +0.000 C 
ATOM      5  C   UNL     1      -1.001  10.711  19.919  0.00  0.00    +0.000 C 
ATOM      6  N   UNL     1       0.428  10.596  19.779  0.00  0.00    +0.000 N 
ENDROOT
BRANCH   6   7
ATOM      7  C   UNL     1       1.104   9.363  19.631  0.00  0.00    +0.000 A 
ATOM      8  C   UNL     1       1.145   8.423  20.669  0.00  0.00    +0.000 A 
ATOM      9  C   UNL     1       1.816   7.199  20.523  0.00  0.00    +0.000 A 
ATOM     10  C   UNL     1       2.513   6.924  19.342  0.00  0.00    +0.000 A 
ATOM     11  C   UNL     1       2.449   7.840  18.294  0.00  0.00    +0.000 A 
ATOM     12  F   UNL     1       2.996   7.572  17.101  0.00  0.00    +0.000 F 
ATOM     13  C   UNL     1       1.742   9.033  18.426  0.00  0.00    +0.000 A 
BRANCH  10  14
ATOM     14  N   UNL     1       3.268   5.737  19.241  0.00  0.00    +0.000 N 
ATOM     15  N   UNL     1       4.624   5.771  19.298  0.00  0.00    +0.000 NA
ATOM     16  N   UNL     1       5.077   4.526  19.248  0.00  0.00    +0.000 NA
ATOM     17  C   UNL     1       4.013   3.699  19.032  0.00  0.00    +0.000 A 
ATOM     18  C   UNL     1       3.969   2.313  18.819  0.00  0.00    +0.000 A 
ATOM     19  C   UNL     1       2.738   1.715  18.524  0.00  0.00    +0.000 A 
ATOM     20  C   UNL     1       1.576   2.482  18.442  0.00  0.00    +0.000 A 
ATOM     21  C   UNL     1       1.601   3.861  18.673  0.00  0.00    +0.000 A 
ATOM     22  C   UNL     1       2.837   4.442  18.992  0.00  0.00    +0.000 A 
ENDBRANCH  10  14
ENDBRANCH   6   7
BRANCH   4  23
ATOM     23  C   UNL     1      -2.457  12.790  19.860  0.00  0.00    +0.000 C 
BRANCH  23  24
ATOM     24  N   UNL     1      -2.777  12.329  18.521  0.00  0.00    +0.000 N 
ATOM     25  C   UNL     1      -3.950  11.726  18.188  0.00  0.00    +0.000 C 
ATOM     26  N   UNL     1      -4.990  11.765  18.944  0.00  0.00    +0.000 NA
ATOM     27  H   UNL     1      -2.199  12.658  17.756  0.00  0.00    +0.000 HD
BRANCH  25  28
ATOM     28  S   UNL     1      -3.864  10.906  16.643  0.00  0.00    +0.000 S 
ATOM     29  H   UNL     1      -2.933  10.014  17.010  0.00  0.00    +0.000 HD
ENDBRANCH  25  28
BRANCH  26  30
ATOM     30  C   UNL     1      -6.231  11.117  18.523  0.00  0.00    +0.000 C 
BRANCH  30  31
ATOM     31  C   UNL     1      -7.217  11.127  19.688  0.00  0.00    +0.000 C 
BRANCH  31  32
ATOM     32  C   UNL     1      -6.691  11.901  20.888  0.00  0.00    +0.000 C 
BRANCH  32  33
ATOM     33  O   UNL     1      -7.288  11.404  22.081  0.00  0.00    +0.000 OA
ATOM     34  H   UNL     1      -6.621  10.854  22.527  0.00  0.00    +0.000 HD
ENDBRANCH  32  33
ENDBRANCH  31  32
ENDBRANCH  30  31
ENDBRANCH  26  30
ENDBRANCH  23  24
ENDBRANCH   4  23
TORSDOF 9
ENDMDL
MODEL 3
REMARK VINA RESULT:      -7.5      2.280      2.653
REMARK  Name = 
REMARK  9 active torsions:
REMARK  status: ('A' for Active; 'I' for Inactive)
REMARK    1  A    between atoms: C_4  and  C_5
REMARK    2  A    between atoms: C_5  and  N_6
REMARK    3  A    between atoms: C_7  and  S_8
REMARK    4  A    between atoms: N_9  and  C_10
REMARK    5  A    between atoms: C_10  and  C_11
REMARK    6  A    between atoms: C_11  and  C_12
REMARK    7  A    between atoms: C_12  and  O_13
REMARK    8  A    between atoms: N_15  and  C_16
REMARK    9  A    between atoms: C_19  and  N_20
REMARK                            x       y       z     vdW  Elec       q    Type
REMARK                         _______ _______ _______ _____ _____    ______ ____
ROOT
ATOM      1  O   UNL     1       2.067  12.127  20.221  0.00  0.00    +0.000 OA
ATOM      2  C   UNL     1       0.911  11.745  20.142  0.00  0.00    +0.000 C 
ATOM      3  O   UNL     1      -0.143  12.565  20.471  0.00  0.00    +0.000 OA
ATOM      4  C   UNL     1      -1.330  11.761  20.498  0.00  0.00    +0.000 C 
ATOM      5  C   UNL     1      -1.004  10.589  19.600  0.00  0.00    +0.000 C 
ATOM      6  N   UNL     1       0.433  10.524  19.695  0.00  0.00    +0.000 N 
ENDROOT
BRANCH   6   7
ATOM      7  C   UNL     1       1.200   9.428  19.237  0.00  0.00    +0.000 A 
ATOM      8  C   UNL     1       1.719   9.392  17.937  0.00  0.00    +0.000 A 
ATOM      9  C   UNL     1       2.479   8.304  17.482  0.00  0.00    +0.000 A 
ATOM     10  C   UNL     1       2.681   7.199  18.315  0.00  0.00    +0.000 A 
ATOM     11  C   UNL     1       2.196   7.243  19.620  0.00  0.00    +0.000 A 
ATOM     12  F   UNL     1       2.466   6.266  20.497  0.00  0.00    +0.000 F 
ATOM     13  C   UNL     1       1.482   8.345  20.083  0.00  0.00    +0.000 A 
BRANCH  10  14
ATOM     14  N   UNL     1       3.361   6.067  17.816  0.00  0.00    +0.000 N 
ATOM     15  N   UNL     1       2.742   4.861  17.751  0.00  0.00    +0.000 NA
ATOM     16  N   UNL     1       3.572   3.994  17.187  0.00  0.00    +0.000 NA
ATOM     17  C   UNL     1       4.772   4.618  17.006  0.00  0.00    +0.000 A 
ATOM     18  C   UNL     1       5.993   4.116  16.529  0.00  0.00    +0.000 A 
ATOM     19  C   UNL     1       7.113   4.957  16.530  0.00  0.00    +0.000 A 
ATOM     20  C   UNL     1       7.020   6.267  16.998  0.00  0.00    +0.000 A 
ATOM     21  C   UNL     1       5.805   6.787  17.455  0.00  0.00    +0.000 A 
ATOM     22  C   UNL     1       4.685   5.942  17.424  0.00  0.00    +0.000 A 
ENDBRANCH  10  14
ENDBRANCH   6   7
BRANCH   4  23
ATOM     23  C   UNL     1      -2.553  12.554  20.031  0.00  0.00    +0.000 C 
BRANCH  23  24
ATOM     24  N   UNL     1      -2.868  12.251  18.646  0.00  0.00    +0.000 N 
ATOM     25  C   UNL     1      -4.035  11.679  18.242  0.00  0.00    +0.000 C 
ATOM     26  N   UNL     1      -5.075  11.616  18.996  0.00  0.00    +0.000 NA
ATOM     27  H   UNL     1      -2.294  12.676  17.926  0.00  0.00    +0.000 HD
BRANCH  25  28
ATOM     28  S   UNL     1      -3.940  11.050  16.611  0.00  0.00    +0.000 S 
ATOM     29  H   UNL     1      -4.990  10.223  16.719  0.00  0.00    +0.000 HD
ENDBRANCH  25  28
BRANCH  26  30
ATOM     30  C   UNL     1      -6.309  11.009  18.500  0.00  0.00    +0.000 C 
BRANCH  30  31
ATOM     31  C   UNL     1      -7.255  10.775  19.674  0.00  0.00    +0.000 C 
BRANCH  31  32
ATOM     32  C   UNL     1      -6.985  11.720  20.837  0.00  0.00    +0.000 C 
BRANCH  32  33
ATOM     33  O   UNL     1      -7.580  11.207  22.024  0.00  0.00    +0.000 OA
ATOM     34  H   UNL     1      -6.874  11.136  22.689  0.00  0.00    +0.000 HD
ENDBRANCH  32  33
ENDBRANCH  31  32
ENDBRANCH  30  31
ENDBRANCH  26  30
ENDBRANCH  23  24
ENDBRANCH   4  23
TORSDOF 9
ENDMDL
MODEL 4
REMARK VINA RESULT:      -7.5      3.850      5.034
REMARK  Name = 
REMARK  9 active torsions:
REMARK  status: ('A' for Active; 'I' for Inactive)
REMARK    1  A    between atoms: C_4  and  C_5
REMARK    2  A    between atoms: C_5  and  N_6
REMARK    3  A    between atoms: C_7  and  S_8
REMARK    4  A    between atoms: N_9  and  C_10
REMARK    5  A    between atoms: C_10  and  C_11
REMARK    6  A    between atoms: C_11  and  C_12
REMARK    7  A    between atoms: C_12  and  O_13
REMARK    8  A    between atoms: N_15  and  C_16
REMARK    9  A    between atoms: C_19  and  N_20
REMARK                            x       y       z     vdW  Elec       q    Type
REMARK                         _______ _______ _______ _____ _____    ______ ____
ROOT
ATOM      1  O   UNL     1      -1.920  10.239  17.989  0.00  0.00    +0.000 OA
ATOM      2  C   UNL     1      -1.181  11.108  18.420  0.00  0.00    +0.000 C 
ATOM      3  O   UNL     1      -1.581  12.422  18.495  0.00  0.00    +0.000 OA
ATOM      4  C   UNL     1      -0.427  13.212  18.815  0.00  0.00    +0.000 C 
ATOM      5  C   UNL     1       0.511  12.239  19.496  0.00  0.00    +0.000 C 
ATOM      6  N   UNL     1       0.098  10.977  18.935  0.00  0.00    +0.000 N 
ENDROOT
BRANCH   6   7
ATOM      7  C   UNL     1       0.845   9.783  19.060  0.00  0.00    +0.000 A 
ATOM      8  C   UNL     1       1.527   9.229  17.969  0.00  0.00    +0.000 A 
ATOM      9  C   UNL     1       2.267   8.044  18.092  0.00  0.00    +0.000 A 
ATOM     10  C   UNL     1       2.286   7.358  19.312  0.00  0.00    +0.000 A 
ATOM     11  C   UNL     1       1.638   7.921  20.409  0.00  0.00    +0.000 A 
ATOM     12  F   UNL     1       1.725   7.369  21.627  0.00  0.00    +0.000 F 
ATOM     13  C   UNL     1       0.942   9.122  20.294  0.00  0.00    +0.000 A 
BRANCH  10  14
ATOM     14  N   UNL     1       2.949   6.117  19.400  0.00  0.00    +0.000 N 
ATOM     15  N   UNL     1       4.225   5.980  18.958  0.00  0.00    +0.000 NA
ATOM     16  N   UNL     1       4.629   4.744  19.218  0.00  0.00    +0.000 NA
ATOM     17  C   UNL     1       3.565   4.050  19.715  0.00  0.00    +0.000 A 
ATOM     18  C   UNL     1       3.448   2.696  20.064  0.00  0.00    +0.000 A 
ATOM     19  C   UNL     1       2.198   2.210  20.469  0.00  0.00    +0.000 A 
ATOM     20  C   UNL     1       1.089   3.054  20.523  0.00  0.00    +0.000 A 
ATOM     21  C   UNL     1       1.196   4.411  20.199  0.00  0.00    +0.000 A 
ATOM     22  C   UNL     1       2.460   4.889  19.820  0.00  0.00    +0.000 A 
ENDBRANCH  10  14
ENDBRANCH   6   7
BRANCH   4  23
ATOM     23  C   UNL     1      -0.794  14.408  19.695  0.00  0.00    +0.000 C 
BRANCH  23  24
ATOM     24  N   UNL     1      -1.013  15.596  18.892  0.00  0.00    +0.000 N 
ATOM     25  C   UNL     1      -0.031  16.476  18.555  0.00  0.00    +0.000 C 
ATOM     26  N   UNL     1       1.219  16.197  18.668  0.00  0.00    +0.000 NA
ATOM     27  H   UNL     1      -1.885  15.666  18.378  0.00  0.00    +0.000 HD
BRANCH  25  28
ATOM     28  S   UNL     1      -0.670  17.999  17.973  0.00  0.00    +0.000 S 
ATOM     29  H   UNL     1      -0.064  17.956  16.778  0.00  0.00    +0.000 HD
ENDBRANCH  25  28
BRANCH  26  30
ATOM     30  C   UNL     1       2.231  17.174  18.270  0.00  0.00    +0.000 C 
BRANCH  30  31
ATOM     31  C   UNL     1       3.301  16.472  17.439  0.00  0.00    +0.000 C 
BRANCH  31  32
ATOM     32  C   UNL     1       3.508  15.024  17.861  0.00  0.00    +0.000 C 
BRANCH  32  33
ATOM     33  O   UNL     1       4.825  14.606  17.520  0.00  0.00    +0.000 OA
ATOM     34  H   UNL     1       5.182  15.265  16.899  0.00  0.00    +0.000 HD
ENDBRANCH  32  33
ENDBRANCH  31  32
ENDBRANCH  30  31
ENDBRANCH  26  30
ENDBRANCH  23  24
ENDBRANCH   4  23
TORSDOF 9
ENDMDL
MODEL 5
REMARK VINA RESULT:      -7.4      5.229     11.033
REMARK  Name = 
REMARK  9 active torsions:
REMARK  status: ('A' for Active; 'I' for Inactive)
REMARK    1  A    between atoms: C_4  and  C_5
REMARK    2  A    between atoms: C_5  and  N_6
REMARK    3  A    between atoms: C_7  and  S_8
REMARK    4  A    between atoms: N_9  and  C_10
REMARK    5  A    between atoms: C_10  and  C_11
REMARK    6  A    between atoms: C_11  and  C_12
REMARK    7  A    between atoms: C_12  and  O_13
REMARK    8  A    between atoms: N_15  and  C_16
REMARK    9  A    between atoms: C_19  and  N_20
REMARK                            x       y       z     vdW  Elec       q    Type
REMARK                         _______ _______ _______ _____ _____    ______ ____
ROOT
ATOM      1  O   UNL     1       3.408   4.088  19.967  0.00  0.00    +0.000 OA
ATOM      2  C   UNL     1       4.027   4.497  18.999  0.00  0.00    +0.000 C 
ATOM      3  O   UNL     1       4.940   3.707  18.340  0.00  0.00    +0.000 OA
ATOM      4  C   UNL     1       5.653   4.541  17.416  0.00  0.00    +0.000 C 
ATOM      5  C   UNL     1       4.710   5.695  17.156  0.00  0.00    +0.000 C 
ATOM      6  N   UNL     1       3.926   5.725  18.365  0.00  0.00    +0.000 N 
ENDROOT
BRANCH   6   7
ATOM      7  C   UNL     1       3.075   6.797  18.720  0.00  0.00    +0.000 A 
ATOM      8  C   UNL     1       2.379   6.805  19.936  0.00  0.00    +0.000 A 
ATOM      9  C   UNL     1       1.534   7.868  20.289  0.00  0.00    +0.000 A 
ATOM     10  C   UNL     1       1.328   8.921  19.392  0.00  0.00    +0.000 A 
ATOM     11  C   UNL     1       2.043   8.935  18.196  0.00  0.00    +0.000 A 
ATOM     12  F   UNL     1       1.975   9.978  17.357  0.00  0.00    +0.000 F 
ATOM     13  C   UNL     1       2.916   7.901  17.870  0.00  0.00    +0.000 A 
BRANCH  10  14
ATOM     14  N   UNL     1       0.401   9.935  19.712  0.00  0.00    +0.000 N 
ATOM     15  N   UNL     1       0.483  10.601  20.891  0.00  0.00    +0.000 NA
ATOM     16  N   UNL     1      -0.457  11.537  20.910  0.00  0.00    +0.000 NA
ATOM     17  C   UNL     1      -1.223  11.387  19.792  0.00  0.00    +0.000 A 
ATOM     18  C   UNL     1      -2.382  12.067  19.388  0.00  0.00    +0.000 A 
ATOM     19  C   UNL     1      -3.037  11.648  18.222  0.00  0.00    +0.000 A 
ATOM     20  C   UNL     1      -2.548  10.576  17.477  0.00  0.00    +0.000 A 
ATOM     21  C   UNL     1      -1.381   9.903  17.856  0.00  0.00    +0.000 A 
ATOM     22  C   UNL     1      -0.722  10.350  19.011  0.00  0.00    +0.000 A 
ENDBRANCH  10  14
ENDBRANCH   6   7
BRANCH   4  23
ATOM     23  C   UNL     1       6.027   3.774  16.146  0.00  0.00    +0.000 C 
BRANCH  23  24
ATOM     24  N   UNL     1       6.724   4.634  15.207  0.00  0.00    +0.000 N 
ATOM     25  C   UNL     1       6.743   4.430  13.862  0.00  0.00    +0.000 C 
ATOM     26  N   UNL     1       5.922   3.639  13.268  0.00  0.00    +0.000 NA
ATOM     27  H   UNL     1       7.032   5.543  15.536  0.00  0.00    +0.000 HD
BRANCH  25  28
ATOM     28  S   UNL     1       8.000   5.353  13.064  0.00  0.00    +0.000 S 
ATOM     29  H   UNL     1       7.992   6.376  13.930  0.00  0.00    +0.000 HD
ENDBRANCH  25  28
BRANCH  26  30
ATOM     30  C   UNL     1       5.974   3.477  11.817  0.00  0.00    +0.000 C 
BRANCH  30  31
ATOM     31  C   UNL     1       5.200   2.220  11.428  0.00  0.00    +0.000 C 
BRANCH  31  32
ATOM     32  C   UNL     1       6.117   1.068  11.041  0.00  0.00    +0.000 C 
BRANCH  32  33
ATOM     33  O   UNL     1       7.459   1.381  11.399  0.00  0.00    +0.000 OA
ATOM     34  H   UNL     1       7.421   2.116  12.036  0.00  0.00    +0.000 HD
ENDBRANCH  32  33
ENDBRANCH  31  32
ENDBRANCH  30  31
ENDBRANCH  26  30
ENDBRANCH  23  24
ENDBRANCH   4  23
TORSDOF 9
ENDMDL
MODEL 6
REMARK VINA RESULT:      -7.3      3.564      4.871
REMARK  Name = 
REMARK  9 active torsions:
REMARK  status: ('A' for Active; 'I' for Inactive)
REMARK    1  A    between atoms: C_4  and  C_5
REMARK    2  A    between atoms: C_5  and  N_6
REMARK    3  A    between atoms: C_7  and  S_8
REMARK    4  A    between atoms: N_9  and  C_10
REMARK    5  A    between atoms: C_10  and  C_11
REMARK    6  A    between atoms: C_11  and  C_12
REMARK    7  A    between atoms: C_12  and  O_13
REMARK    8  A    between atoms: N_15  and  C_16
REMARK    9  A    between atoms: C_19  and  N_20
REMARK                            x       y       z     vdW  Elec       q    Type
REMARK                         _______ _______ _______ _____ _____    ______ ____
ROOT
ATOM      1  O   UNL     1      -1.786   9.983  18.321  0.00  0.00    +0.000 OA
ATOM      2  C   UNL     1      -0.973  10.867  18.530  0.00  0.00    +0.000 C 
ATOM      3  O   UNL     1      -1.342  12.191  18.571  0.00  0.00    +0.000 OA
ATOM      4  C   UNL     1      -0.143  12.978  18.598  0.00  0.00    +0.000 C 
ATOM      5  C   UNL     1       0.902  12.042  19.166  0.00  0.00    +0.000 C 
ATOM      6  N   UNL     1       0.381  10.749  18.800  0.00  0.00    +0.000 N 
ENDROOT
BRANCH   6   7
ATOM      7  C   UNL     1       1.130   9.553  18.879  0.00  0.00    +0.000 A 
ATOM      8  C   UNL     1       1.939   9.126  17.818  0.00  0.00    +0.000 A 
ATOM      9  C   UNL     1       2.682   7.938  17.895  0.00  0.00    +0.000 A 
ATOM     10  C   UNL     1       2.577   7.123  19.027  0.00  0.00    +0.000 A 
ATOM     11  C   UNL     1       1.800   7.559  20.099  0.00  0.00    +0.000 A 
ATOM     12  F   UNL     1       1.762   6.877  21.252  0.00  0.00    +0.000 F 
ATOM     13  C   UNL     1       1.101   8.762  20.037  0.00  0.00    +0.000 A 
BRANCH  10  14
ATOM     14  N   UNL     1       3.248   5.883  19.055  0.00  0.00    +0.000 N 
ATOM     15  N   UNL     1       4.602   5.830  19.142  0.00  0.00    +0.000 NA
ATOM     16  N   UNL     1       4.967   4.557  19.218  0.00  0.00    +0.000 NA
ATOM     17  C   UNL     1       3.852   3.789  19.054  0.00  0.00    +0.000 A 
ATOM     18  C   UNL     1       3.715   2.395  18.970  0.00  0.00    +0.000 A 
ATOM     19  C   UNL     1       2.450   1.857  18.702  0.00  0.00    +0.000 A 
ATOM     20  C   UNL     1       1.346   2.690  18.521  0.00  0.00    +0.000 A 
ATOM     21  C   UNL     1       1.464   4.080  18.623  0.00  0.00    +0.000 A 
ATOM     22  C   UNL     1       2.732   4.603  18.917  0.00  0.00    +0.000 A 
ENDBRANCH  10  14
ENDBRANCH   6   7
BRANCH   4  23
ATOM     23  C   UNL     1      -0.326  14.249  19.430  0.00  0.00    +0.000 C 
BRANCH  23  24
ATOM     24  N   UNL     1       0.121  15.419  18.697  0.00  0.00    +0.000 N 
ATOM     25  C   UNL     1       1.357  15.972  18.833  0.00  0.00    +0.000 C 
ATOM     26  N   UNL     1       2.335  15.356  19.397  0.00  0.00    +0.000 NA
ATOM     27  H   UNL     1      -0.425  15.712  17.894  0.00  0.00    +0.000 HD
BRANCH  25  28
ATOM     28  S   UNL     1       1.441  17.590  18.168  0.00  0.00    +0.000 S 
ATOM     29  H   UNL     1       2.575  17.939  18.792  0.00  0.00    +0.000 HD
ENDBRANCH  25  28
BRANCH  26  30
ATOM     30  C   UNL     1       3.647  15.992  19.494  0.00  0.00    +0.000 C 
BRANCH  30  31
ATOM     31  C   UNL     1       4.199  15.783  20.902  0.00  0.00    +0.000 C 
BRANCH  31  32
ATOM     32  C   UNL     1       3.802  14.434  21.487  0.00  0.00    +0.000 C 
BRANCH  32  33
ATOM     33  O   UNL     1       2.630  14.580  22.282  0.00  0.00    +0.000 OA
ATOM     34  H   UNL     1       2.107  15.301  21.891  0.00  0.00    +0.000 HD
ENDBRANCH  32  33
ENDBRANCH  31  32
ENDBRANCH  30  31
ENDBRANCH  26  30
ENDBRANCH  23  24
ENDBRANCH   4  23
TORSDOF 9
ENDMDL
MODEL 7
REMARK VINA RESULT:      -7.3      2.566      3.255
REMARK  Name = 
REMARK  9 active torsions:
REMARK  status: ('A' for Active; 'I' for Inactive)
REMARK    1  A    between atoms: C_4  and  C_5
REMARK    2  A    between atoms: C_5  and  N_6
REMARK    3  A    between atoms: C_7  and  S_8
REMARK    4  A    between atoms: N_9  and  C_10
REMARK    5  A    between atoms: C_10  and  C_11
REMARK    6  A    between atoms: C_11  and  C_12
REMARK    7  A    between atoms: C_12  and  O_13
REMARK    8  A    between atoms: N_15  and  C_16
REMARK    9  A    between atoms: C_19  and  N_20
REMARK                            x       y       z     vdW  Elec       q    Type
REMARK                         _______ _______ _______ _____ _____    ______ ____
ROOT
ATOM      1  O   UNL     1       1.832  12.164  20.928  0.00  0.00    +0.000 OA
ATOM      2  C   UNL     1       0.681  11.879  20.642  0.00  0.00    +0.000 C 
ATOM      3  O   UNL     1      -0.358  12.745  20.890  0.00  0.00    +0.000 OA
ATOM      4  C   UNL     1      -1.583  12.033  20.663  0.00  0.00    +0.000 C 
ATOM      5  C   UNL     1      -1.194  10.922  19.713  0.00  0.00    +0.000 C 
ATOM      6  N   UNL     1       0.203  10.741  20.013  0.00  0.00    +0.000 N 
ENDROOT
BRANCH   6   7
ATOM      7  C   UNL     1       0.962   9.634  19.570  0.00  0.00    +0.000 A 
ATOM      8  C   UNL     1       1.481   9.576  18.269  0.00  0.00    +0.000 A 
ATOM      9  C   UNL     1       2.233   8.477  17.828  0.00  0.00    +0.000 A 
ATOM     10  C   UNL     1       2.429   7.382  18.677  0.00  0.00    +0.000 A 
ATOM     11  C   UNL     1       1.945   7.447  19.981  0.00  0.00    +0.000 A 
ATOM     12  F   UNL     1       2.209   6.480  20.871  0.00  0.00    +0.000 F 
ATOM     13  C   UNL     1       1.238   8.561  20.430  0.00  0.00    +0.000 A 
BRANCH  10  14
ATOM     14  N   UNL     1       3.100   6.240  18.193  0.00  0.00    +0.000 N 
ATOM     15  N   UNL     1       4.286   6.357  17.542  0.00  0.00    +0.000 NA
ATOM     16  N   UNL     1       4.729   5.140  17.256  0.00  0.00    +0.000 NA
ATOM     17  C   UNL     1       3.764   4.246  17.614  0.00  0.00    +0.000 A 
ATOM     18  C   UNL     1       3.709   2.854  17.446  0.00  0.00    +0.000 A 
ATOM     19  C   UNL     1       2.544   2.175  17.825  0.00  0.00    +0.000 A 
ATOM     20  C   UNL     1       1.457   2.867  18.359  0.00  0.00    +0.000 A 
ATOM     21  C   UNL     1       1.507   4.252  18.553  0.00  0.00    +0.000 A 
ATOM     22  C   UNL     1       2.690   4.915  18.193  0.00  0.00    +0.000 A 
ENDBRANCH  10  14
ENDBRANCH   6   7
BRANCH   4  23
ATOM     23  C   UNL     1      -2.668  12.953  20.099  0.00  0.00    +0.000 C 
BRANCH  23  24
ATOM     24  N   UNL     1      -3.398  12.299  19.028  0.00  0.00    +0.000 N 
ATOM     25  C   UNL     1      -4.756  12.233  18.967  0.00  0.00    +0.000 C 
ATOM     26  N   UNL     1      -5.520  12.980  19.682  0.00  0.00    +0.000 NA
ATOM     27  H   UNL     1      -2.890  12.067  18.182  0.00  0.00    +0.000 HD
BRANCH  25  28
ATOM     28  S   UNL     1      -5.315  11.029  17.825  0.00  0.00    +0.000 S 
ATOM     29  H   UNL     1      -6.620  11.185  18.087  0.00  0.00    +0.000 HD
ENDBRANCH  25  28
BRANCH  26  30
ATOM     30  C   UNL     1      -6.973  12.882  19.557  0.00  0.00    +0.000 C 
BRANCH  30  31
ATOM     31  C   UNL     1      -7.574  14.284  19.614  0.00  0.00    +0.000 C 
BRANCH  31  32
ATOM     32  C   UNL     1      -7.691  14.922  18.237  0.00  0.00    +0.000 C 
BRANCH  32  33
ATOM     33  O   UNL     1      -6.417  14.936  17.602  0.00  0.00    +0.000 OA
ATOM     34  H   UNL     1      -5.980  14.095  17.821  0.00  0.00    +0.000 HD
ENDBRANCH  32  33
ENDBRANCH  31  32
ENDBRANCH  30  31
ENDBRANCH  26  30
ENDBRANCH  23  24
ENDBRANCH   4  23
TORSDOF 9
ENDMDL
MODEL 8
REMARK VINA RESULT:      -7.3      2.278      3.261
REMARK  Name = 
REMARK  9 active torsions:
REMARK  status: ('A' for Active; 'I' for Inactive)
REMARK    1  A    between atoms: C_4  and  C_5
REMARK    2  A    between atoms: C_5  and  N_6
REMARK    3  A    between atoms: C_7  and  S_8
REMARK    4  A    between atoms: N_9  and  C_10
REMARK    5  A    between atoms: C_10  and  C_11
REMARK    6  A    between atoms: C_11  and  C_12
REMARK    7  A    between atoms: C_12  and  O_13
REMARK    8  A    between atoms: N_15  and  C_16
REMARK    9  A    between atoms: C_19  and  N_20
REMARK                            x       y       z     vdW  Elec       q    Type
REMARK                         _______ _______ _______ _____ _____    ______ ____
ROOT
ATOM      1  O   UNL     1      -1.879   9.974  18.265  0.00  0.00    +0.000 OA
ATOM      2  C   UNL     1      -1.096  10.860  18.565  0.00  0.00    +0.000 C 
ATOM      3  O   UNL     1      -1.494  12.173  18.652  0.00  0.00    +0.000 OA
ATOM      4  C   UNL     1      -0.315  12.979  18.788  0.00  0.00    +0.000 C 
ATOM      5  C   UNL     1       0.715  12.033  19.367  0.00  0.00    +0.000 C 
ATOM      6  N   UNL     1       0.242  10.752  18.906  0.00  0.00    +0.000 N 
ENDROOT
BRANCH   6   7
ATOM      7  C   UNL     1       1.010   9.566  18.967  0.00  0.00    +0.000 A 
ATOM      8  C   UNL     1       1.775   9.134  17.875  0.00  0.00    +0.000 A 
ATOM      9  C   UNL     1       2.536   7.957  17.934  0.00  0.00    +0.000 A 
ATOM     10  C   UNL     1       2.494   7.158  19.081  0.00  0.00    +0.000 A 
ATOM     11  C   UNL     1       1.763   7.599  20.181  0.00  0.00    +0.000 A 
ATOM     12  F   UNL     1       1.787   6.934  21.345  0.00  0.00    +0.000 F 
ATOM     13  C   UNL     1       1.045   8.792  20.135  0.00  0.00    +0.000 A 
BRANCH  10  14
ATOM     14  N   UNL     1       3.182   5.927  19.095  0.00  0.00    +0.000 N 
ATOM     15  N   UNL     1       4.537   5.891  19.177  0.00  0.00    +0.000 NA
ATOM     16  N   UNL     1       4.920   4.623  19.239  0.00  0.00    +0.000 NA
ATOM     17  C   UNL     1       3.815   3.841  19.071  0.00  0.00    +0.000 A 
ATOM     18  C   UNL     1       3.697   2.446  18.975  0.00  0.00    +0.000 A 
ATOM     19  C   UNL     1       2.439   1.894  18.706  0.00  0.00    +0.000 A 
ATOM     20  C   UNL     1       1.323   2.713  18.536  0.00  0.00    +0.000 A 
ATOM     21  C   UNL     1       1.422   4.103  18.651  0.00  0.00    +0.000 A 
ATOM     22  C   UNL     1       2.684   4.641  18.946  0.00  0.00    +0.000 A 
ENDBRANCH  10  14
ENDBRANCH   6   7
BRANCH   4  23
ATOM     23  C   UNL     1      -0.571  14.201  19.673  0.00  0.00    +0.000 C 
BRANCH  23  24
ATOM     24  N   UNL     1      -1.994  14.437  19.833  0.00  0.00    +0.000 N 
ATOM     25  C   UNL     1      -2.750  13.876  20.816  0.00  0.00    +0.000 C 
ATOM     26  N   UNL     1      -2.235  13.323  21.857  0.00  0.00    +0.000 NA
ATOM     27  H   UNL     1      -2.405  15.214  19.328  0.00  0.00    +0.000 HD
BRANCH  25  28
ATOM     28  S   UNL     1      -4.466  13.995  20.489  0.00  0.00    +0.000 S 
ATOM     29  H   UNL     1      -4.808  14.449  21.703  0.00  0.00    +0.000 HD
ENDBRANCH  25  28
BRANCH  26  30
ATOM     30  C   UNL     1      -3.098  12.757  22.893  0.00  0.00    +0.000 C 
BRANCH  30  31
ATOM     31  C   UNL     1      -2.344  11.644  23.615  0.00  0.00    +0.000 C 
BRANCH  31  32
ATOM     32  C   UNL     1      -1.192  11.090  22.786  0.00  0.00    +0.000 C 
BRANCH  32  33
ATOM     33  O   UNL     1      -0.784   9.830  23.310  0.00  0.00    +0.000 OA
ATOM     34  H   UNL     1      -1.581   9.276  23.374  0.00  0.00    +0.000 HD
ENDBRANCH  32  33
ENDBRANCH  31  32
ENDBRANCH  30  31
ENDBRANCH  26  30
ENDBRANCH  23  24
ENDBRANCH   4  23
TORSDOF 9
ENDMDL
MODEL 9
REMARK VINA RESULT:      -7.3      1.153      1.296
REMARK  Name = 
REMARK  9 active torsions:
REMARK  status: ('A' for Active; 'I' for Inactive)
REMARK    1  A    between atoms: C_4  and  C_5
REMARK    2  A    between atoms: C_5  and  N_6
REMARK    3  A    between atoms: C_7  and  S_8
REMARK    4  A    between atoms: N_9  and  C_10
REMARK    5  A    between atoms: C_10  and  C_11
REMARK    6  A    between atoms: C_11  and  C_12
REMARK    7  A    between atoms: C_12  and  O_13
REMARK    8  A    between atoms: N_15  and  C_16
REMARK    9  A    between atoms: C_19  and  N_20
REMARK                            x       y       z     vdW  Elec       q    Type
REMARK                         _______ _______ _______ _____ _____    ______ ____
ROOT
ATOM      1  O   UNL     1      -1.210  10.267  18.585  0.00  0.00    +0.000 OA
ATOM      2  C   UNL     1      -0.712  10.448  19.683  0.00  0.00    +0.000 C 
ATOM      3  O   UNL     1      -1.261  11.329  20.586  0.00  0.00    +0.000 OA
ATOM      4  C   UNL     1      -0.328  11.488  21.664  0.00  0.00    +0.000 C 
ATOM      5  C   UNL     1       0.498  10.221  21.628  0.00  0.00    +0.000 C 
ATOM      6  N   UNL     1       0.392   9.829  20.245  0.00  0.00    +0.000 N 
ENDROOT
BRANCH   6   7
ATOM      7  C   UNL     1       1.207   8.841  19.646  0.00  0.00    +0.000 A 
ATOM      8  C   UNL     1       1.711   8.997  18.348  0.00  0.00    +0.000 A 
ATOM      9  C   UNL     1       2.519   8.017  17.753  0.00  0.00    +0.000 A 
ATOM     10  C   UNL     1       2.788   6.826  18.438  0.00  0.00    +0.000 A 
ATOM     11  C   UNL     1       2.319   6.680  19.741  0.00  0.00    +0.000 A 
ATOM     12  F   UNL     1       2.649   5.615  20.484  0.00  0.00    +0.000 F 
ATOM     13  C   UNL     1       1.555   7.676  20.345  0.00  0.00    +0.000 A 
BRANCH  10  14
ATOM     14  N   UNL     1       3.517   5.805  17.794  0.00  0.00    +0.000 N 
ATOM     15  N   UNL     1       2.955   4.591  17.566  0.00  0.00    +0.000 NA
ATOM     16  N   UNL     1       3.823   3.846  16.894  0.00  0.00    +0.000 NA
ATOM     17  C   UNL     1       4.991   4.543  16.801  0.00  0.00    +0.000 A 
ATOM     18  C   UNL     1       6.232   4.167  16.264  0.00  0.00    +0.000 A 
ATOM     19  C   UNL     1       7.312   5.051  16.381  0.00  0.00    +0.000 A 
ATOM     20  C   UNL     1       7.160   6.281  17.019  0.00  0.00    +0.000 A 
ATOM     21  C   UNL     1       5.924   6.679  17.539  0.00  0.00    +0.000 A 
ATOM     22  C   UNL     1       4.845   5.794  17.392  0.00  0.00    +0.000 A 
ENDBRANCH  10  14
ENDBRANCH   6   7
BRANCH   4  23
ATOM     23  C   UNL     1      -1.046  11.698  22.999  0.00  0.00    +0.000 C 
BRANCH  23  24
ATOM     24  N   UNL     1      -1.405  13.092  23.181  0.00  0.00    +0.000 N 
ATOM     25  C   UNL     1      -2.688  13.543  23.238  0.00  0.00    +0.000 C 
ATOM     26  N   UNL     1      -3.691  12.761  23.425  0.00  0.00    +0.000 NA
ATOM     27  H   UNL     1      -0.682  13.730  23.494  0.00  0.00    +0.000 HD
BRANCH  25  28
ATOM     28  S   UNL     1      -2.796  15.278  23.023  0.00  0.00    +0.000 S 
ATOM     29  H   UNL     1      -1.475  15.504  23.050  0.00  0.00    +0.000 HD
ENDBRANCH  25  28
BRANCH  26  30
ATOM     30  C   UNL     1      -5.046  13.305  23.500  0.00  0.00    +0.000 C 
BRANCH  30  31
ATOM     31  C   UNL     1      -5.853  12.798  22.308  0.00  0.00    +0.000 C 
BRANCH  31  32
ATOM     32  C   UNL     1      -7.257  12.360  22.701  0.00  0.00    +0.000 C 
BRANCH  32  33
ATOM     33  O   UNL     1      -7.224  11.717  23.971  0.00  0.00    +0.000 OA
ATOM     34  H   UNL     1      -7.889  12.153  24.529  0.00  0.00    +0.000 HD
ENDBRANCH  32  33
ENDBRANCH  31  32
ENDBRANCH  30  31
ENDBRANCH  26  30
ENDBRANCH  23  24
ENDBRANCH   4  23
TORSDOF 9
ENDMDL
