MODEL 1
REMARK VINA RESULT:      -8.0      0.000      0.000
REMARK  Name = 
REMARK  4 active torsions:
REMARK  status: ('A' for Active; 'I' for Inactive)
REMARK    1  A    between atoms: C_17  and  C_18
REMARK    2  A    between atoms: C_22  and  O_23
REMARK    3  A    between atoms: O_23  and  C_24
REMARK    4  A    between atoms: C_27  and  C_28
REMARK                            x       y       z     vdW  Elec       q    Type
REMARK                         _______ _______ _______ _____ _____    ______ ____
ROOT
ATOM      1  O   UNL     1       0.823  11.148  21.847  0.00  0.00    +0.000 OA
ATOM      2  C   UNL     1      -0.005  11.577  21.045  0.00  0.00    +0.000 C 
ATOM      3  N   UNL     1      -0.103  11.117  19.751  0.00  0.00    +0.000 N 
ATOM      4  C   UNL     1       0.782  10.153  19.242  0.00  0.00    +0.000 A 
ATOM      5  C   UNL     1       0.946   8.908  19.829  0.00  0.00    +0.000 A 
ATOM      6  C   UNL     1       1.815   8.004  19.228  0.00  0.00    +0.000 A 
ATOM      7  C   UNL     1       2.495   8.402  18.094  0.00  0.00    +0.000 A 
ATOM      8  N   UNL     1       2.304   9.609  17.529  0.00  0.00    +0.000 NA
ATOM      9  N   UNL     1       1.411  10.478  18.092  0.00  0.00    +0.000 NA
ATOM     10  N   UNL     1      -0.906  12.589  21.380  0.00  0.00    +0.000 N 
ATOM     11  C   UNL     1      -1.993  13.102  20.550  0.00  0.00    +0.000 C 
ATOM     12  C   UNL     1      -3.362  12.835  21.185  0.00  0.00    +0.000 C 
ATOM     13  C   UNL     1      -3.417  13.260  22.668  0.00  0.00    +0.000 C 
ATOM     14  C   UNL     1      -2.196  12.742  23.445  0.00  0.00    +0.000 C 
ATOM     15  C   UNL     1      -0.901  13.126  22.739  0.00  0.00    +0.000 C 
ATOM     16  C   UNL     1      -4.717  12.848  23.432  0.00  0.00    +0.000 C 
ATOM     17  C   UNL     1      -5.354  14.199  23.035  0.00  0.00    +0.000 C 
ATOM     18  C   UNL     1      -3.889  14.733  22.892  0.00  0.00    +0.000 C 
ATOM     19  H   UNL     1      -0.266  11.843  19.074  0.00  0.00    +0.000 HD
ENDROOT
BRANCH  17  20
ATOM     20  C   UNL     1      -6.370  14.262  21.792  0.00  0.00    +0.000 A 
ATOM     21  C   UNL     1      -6.959  15.450  21.318  0.00  0.00    +0.000 A 
ATOM     22  C   UNL     1      -7.747  15.485  20.166  0.00  0.00    +0.000 A 
ATOM     23  C   UNL     1      -7.916  14.326  19.404  0.00  0.00    +0.000 A 
ATOM     24  C   UNL     1      -7.325  13.130  19.824  0.00  0.00    +0.000 A 
ATOM     25  C   UNL     1      -6.638  13.097  21.043  0.00  0.00    +0.000 A 
BRANCH  24  26
ATOM     26  O   UNL     1      -7.496  12.024  19.027  0.00  0.00    +0.000 OA
BRANCH  26  27
ATOM     27  C   UNL     1      -6.400  11.576  18.294  0.00  0.00    +0.000 A 
ATOM     28  C   UNL     1      -5.804  10.395  18.702  0.00  0.00    +0.000 A 
ATOM     29  C   UNL     1      -4.646   9.971  18.051  0.00  0.00    +0.000 A 
ATOM     30  C   UNL     1      -4.126  10.727  16.993  0.00  0.00    +0.000 A 
ATOM     31  C   UNL     1      -4.818  11.865  16.635  0.00  0.00    +0.000 A 
ATOM     32  N   UNL     1      -5.946  12.298  17.242  0.00  0.00    +0.000 NA
BRANCH  30  33
ATOM     33  C   UNL     1      -2.872  10.352  16.269  0.00  0.00    +0.000 C 
ATOM     34  F   UNL     1      -1.809  10.148  17.095  0.00  0.00    +0.000 F 
ATOM     35  F   UNL     1      -3.007   9.208  15.544  0.00  0.00    +0.000 F 
ATOM     36  F   UNL     1      -2.477  11.311  15.384  0.00  0.00    +0.000 F 
ENDBRANCH  30  33
ENDBRANCH  26  27
ENDBRANCH  24  26
ENDBRANCH  17  20
TORSDOF 4
ENDMDL
MODEL 2
REMARK VINA RESULT:      -7.7      4.760     10.111
REMARK  Name = 
REMARK  4 active torsions:
REMARK  status: ('A' for Active; 'I' for Inactive)
REMARK    1  A    between atoms: C_17  and  C_18
REMARK    2  A    between atoms: C_22  and  O_23
REMARK    3  A    between atoms: O_23  and  C_24
REMARK    4  A    between atoms: C_27  and  C_28
REMARK                            x       y       z     vdW  Elec       q    Type
REMARK                         _______ _______ _______ _____ _____    ______ ____
ROOT
ATOM      1  O   UNL     1      -1.256  14.364  20.507  0.00  0.00    +0.000 OA
ATOM      2  C   UNL     1      -0.590  13.495  21.067  0.00  0.00    +0.000 C 
ATOM      3  N   UNL     1      -0.705  13.210  22.410  0.00  0.00    +0.000 N 
ATOM      4  C   UNL     1      -1.564  13.941  23.247  0.00  0.00    +0.000 A 
ATOM      5  C   UNL     1      -2.924  14.054  23.003  0.00  0.00    +0.000 A 
ATOM      6  C   UNL     1      -3.702  14.764  23.911  0.00  0.00    +0.000 A 
ATOM      7  C   UNL     1      -3.076  15.347  24.995  0.00  0.00    +0.000 A 
ATOM      8  N   UNL     1      -1.756  15.206  25.224  0.00  0.00    +0.000 NA
ATOM      9  N   UNL     1      -1.002  14.465  24.357  0.00  0.00    +0.000 NA
ATOM     10  N   UNL     1       0.360  12.733  20.384  0.00  0.00    +0.000 N 
ATOM     11  C   UNL     1       1.130  11.612  20.918  0.00  0.00    +0.000 C 
ATOM     12  C   UNL     1       0.798  10.304  20.192  0.00  0.00    +0.000 C 
ATOM     13  C   UNL     1       0.842  10.454  18.656  0.00  0.00    +0.000 C 
ATOM     14  C   UNL     1       0.072  11.702  18.192  0.00  0.00    +0.000 C 
ATOM     15  C   UNL     1       0.539  12.939  18.949  0.00  0.00    +0.000 C 
ATOM     16  C   UNL     1       0.333   9.215  17.851  0.00  0.00    +0.000 C 
ATOM     17  C   UNL     1       1.777   8.665  17.825  0.00  0.00    +0.000 C 
ATOM     18  C   UNL     1       2.238  10.147  18.025  0.00  0.00    +0.000 C 
ATOM     19  H   UNL     1       0.175  13.040  22.866  0.00  0.00    +0.000 HD
ENDROOT
BRANCH  17  20
ATOM     20  C   UNL     1       2.210   7.526  18.872  0.00  0.00    +0.000 A 
ATOM     21  C   UNL     1       1.390   7.071  19.921  0.00  0.00    +0.000 A 
ATOM     22  C   UNL     1       1.752   6.001  20.742  0.00  0.00    +0.000 A 
ATOM     23  C   UNL     1       2.933   5.299  20.489  0.00  0.00    +0.000 A 
ATOM     24  C   UNL     1       3.764   5.700  19.438  0.00  0.00    +0.000 A 
ATOM     25  C   UNL     1       3.436   6.847  18.704  0.00  0.00    +0.000 A 
BRANCH  24  26
ATOM     26  O   UNL     1       4.900   4.962  19.210  0.00  0.00    +0.000 OA
BRANCH  26  27
ATOM     27  C   UNL     1       5.243   4.689  17.888  0.00  0.00    +0.000 A 
ATOM     28  C   UNL     1       6.485   5.122  17.453  0.00  0.00    +0.000 A 
ATOM     29  C   UNL     1       6.818   4.952  16.110  0.00  0.00    +0.000 A 
ATOM     30  C   UNL     1       5.912   4.332  15.240  0.00  0.00    +0.000 A 
ATOM     31  C   UNL     1       4.719   3.898  15.781  0.00  0.00    +0.000 A 
ATOM     32  N   UNL     1       4.370   4.043  17.080  0.00  0.00    +0.000 NA
BRANCH  30  33
ATOM     33  C   UNL     1       6.186   4.144  13.783  0.00  0.00    +0.000 C 
ATOM     34  F   UNL     1       7.091   5.029  13.281  0.00  0.00    +0.000 F 
ATOM     35  F   UNL     1       6.677   2.907  13.497  0.00  0.00    +0.000 F 
ATOM     36  F   UNL     1       5.065   4.287  13.020  0.00  0.00    +0.000 F 
ENDBRANCH  30  33
ENDBRANCH  26  27
ENDBRANCH  24  26
ENDBRANCH  17  20
TORSDOF 4
ENDMDL
MODEL 3
REMARK VINA RESULT:      -7.7      6.071      9.119
REMARK  Name = 
REMARK  4 active torsions:
REMARK  status: ('A' for Active; 'I' for Inactive)
REMARK    1  A    between atoms: C_17  and  C_18
REMARK    2  A    between atoms: C_22  and  O_23
REMARK    3  A    between atoms: O_23  and  C_24
REMARK    4  A    between atoms: C_27  and  C_28
REMARK                            x       y       z     vdW  Elec       q    Type
REMARK                         _______ _______ _______ _____ _____    ______ ____
ROOT
ATOM      1  O   UNL     1       3.342  17.656  20.284  0.00  0.00    +0.000 OA
ATOM      2  C   UNL     1       3.610  16.617  19.684  0.00  0.00    +0.000 C 
ATOM      3  N   UNL     1       4.896  16.252  19.355  0.00  0.00    +0.000 N 
ATOM      4  C   UNL     1       5.994  17.080  19.641  0.00  0.00    +0.000 A 
ATOM      5  C   UNL     1       6.287  17.511  20.926  0.00  0.00    +0.000 A 
ATOM      6  C   UNL     1       7.419  18.295  21.118  0.00  0.00    +0.000 A 
ATOM      7  C   UNL     1       8.179  18.631  20.014  0.00  0.00    +0.000 A 
ATOM      8  N   UNL     1       7.887  18.182  18.778  0.00  0.00    +0.000 NA
ATOM      9  N   UNL     1       6.803  17.370  18.599  0.00  0.00    +0.000 NA
ATOM     10  N   UNL     1       2.620  15.725  19.266  0.00  0.00    +0.000 N 
ATOM     11  C   UNL     1       2.825  14.421  18.642  0.00  0.00    +0.000 C 
ATOM     12  C   UNL     1       2.289  13.285  19.520  0.00  0.00    +0.000 C 
ATOM     13  C   UNL     1       0.852  13.552  20.016  0.00  0.00    +0.000 C 
ATOM     14  C   UNL     1       0.710  14.974  20.585  0.00  0.00    +0.000 C 
ATOM     15  C   UNL     1       1.224  16.009  19.591  0.00  0.00    +0.000 C 
ATOM     16  C   UNL     1       0.309  12.529  21.067  0.00  0.00    +0.000 C 
ATOM     17  C   UNL     1      -0.263  11.678  19.910  0.00  0.00    +0.000 C 
ATOM     18  C   UNL     1      -0.263  12.999  19.071  0.00  0.00    +0.000 C 
ATOM     19  H   UNL     1       4.982  15.853  18.435  0.00  0.00    +0.000 HD
ENDROOT
BRANCH  17  20
ATOM     20  C   UNL     1       0.545  10.387  19.401  0.00  0.00    +0.000 A 
ATOM     21  C   UNL     1       1.225  10.321  18.170  0.00  0.00    +0.000 A 
ATOM     22  C   UNL     1       2.013   9.226  17.809  0.00  0.00    +0.000 A 
ATOM     23  C   UNL     1       2.201   8.178  18.713  0.00  0.00    +0.000 A 
ATOM     24  C   UNL     1       1.567   8.216  19.959  0.00  0.00    +0.000 A 
ATOM     25  C   UNL     1       0.690   9.269  20.249  0.00  0.00    +0.000 A 
BRANCH  24  26
ATOM     26  O   UNL     1       1.805   7.176  20.825  0.00  0.00    +0.000 OA
BRANCH  26  27
ATOM     27  C   UNL     1       2.151   5.942  20.278  0.00  0.00    +0.000 A 
ATOM     28  C   UNL     1       1.219   4.923  20.374  0.00  0.00    +0.000 A 
ATOM     29  C   UNL     1       1.573   3.651  19.925  0.00  0.00    +0.000 A 
ATOM     30  C   UNL     1       2.841   3.436  19.371  0.00  0.00    +0.000 A 
ATOM     31  C   UNL     1       3.681   4.526  19.282  0.00  0.00    +0.000 A 
ATOM     32  N   UNL     1       3.364   5.772  19.702  0.00  0.00    +0.000 NA
BRANCH  30  33
ATOM     33  C   UNL     1       3.302   2.094  18.899  0.00  0.00    +0.000 C 
ATOM     34  F   UNL     1       2.345   1.128  18.986  0.00  0.00    +0.000 F 
ATOM     35  F   UNL     1       3.703   2.105  17.598  0.00  0.00    +0.000 F 
ATOM     36  F   UNL     1       4.365   1.628  19.613  0.00  0.00    +0.000 F 
ENDBRANCH  30  33
ENDBRANCH  26  27
ENDBRANCH  24  26
ENDBRANCH  17  20
TORSDOF 4
ENDMDL
MODEL 4
REMARK VINA RESULT:      -7.6      4.779     10.223
REMARK  Name = 
REMARK  4 active torsions:
REMARK  status: ('A' for Active; 'I' for Inactive)
REMARK    1  A    between atoms: C_17  and  C_18
REMARK    2  A    between atoms: C_22  and  O_23
REMARK    3  A    between atoms: O_23  and  C_24
REMARK    4  A    between atoms: C_27  and  C_28
REMARK                            x       y       z     vdW  Elec       q    Type
REMARK                         _______ _______ _______ _____ _____    ______ ____
ROOT
ATOM      1  O   UNL     1      -2.358  13.449  20.131  0.00  0.00    +0.000 OA
ATOM      2  C   UNL     1      -1.728  12.601  20.762  0.00  0.00    +0.000 C 
ATOM      3  N   UNL     1      -2.136  12.121  21.986  0.00  0.00    +0.000 N 
ATOM      4  C   UNL     1      -3.285  12.614  22.625  0.00  0.00    +0.000 A 
ATOM      5  C   UNL     1      -4.537  12.587  22.032  0.00  0.00    +0.000 A 
ATOM      6  C   UNL     1      -5.624  13.060  22.760  0.00  0.00    +0.000 A 
ATOM      7  C   UNL     1      -5.397  13.562  24.026  0.00  0.00    +0.000 A 
ATOM      8  N   UNL     1      -4.174  13.558  24.592  0.00  0.00    +0.000 NA
ATOM      9  N   UNL     1      -3.116  13.046  23.894  0.00  0.00    +0.000 NA
ATOM     10  N   UNL     1      -0.527  12.068  20.291  0.00  0.00    +0.000 N 
ATOM     11  C   UNL     1       0.250  10.991  20.900  0.00  0.00    +0.000 C 
ATOM     12  C   UNL     1       0.326   9.764  19.984  0.00  0.00    +0.000 C 
ATOM     13  C   UNL     1       0.737  10.130  18.542  0.00  0.00    +0.000 C 
ATOM     14  C   UNL     1      -0.077  11.323  18.012  0.00  0.00    +0.000 C 
ATOM     15  C   UNL     1      -0.021  12.493  18.987  0.00  0.00    +0.000 C 
ATOM     16  C   UNL     1       0.654   8.961  17.508  0.00  0.00    +0.000 C 
ATOM     17  C   UNL     1       2.125   8.607  17.822  0.00  0.00    +0.000 C 
ATOM     18  C   UNL     1       2.278  10.093  18.288  0.00  0.00    +0.000 C 
ATOM     19  H   UNL     1      -1.386  12.003  22.646  0.00  0.00    +0.000 HD
ENDROOT
BRANCH  17  20
ATOM     20  C   UNL     1       2.452   7.398  18.828  0.00  0.00    +0.000 A 
ATOM     21  C   UNL     1       1.588   6.977  19.857  0.00  0.00    +0.000 A 
ATOM     22  C   UNL     1       1.850   5.851  20.640  0.00  0.00    +0.000 A 
ATOM     23  C   UNL     1       2.970   5.060  20.366  0.00  0.00    +0.000 A 
ATOM     24  C   UNL     1       3.839   5.426  19.333  0.00  0.00    +0.000 A 
ATOM     25  C   UNL     1       3.616   6.623  18.641  0.00  0.00    +0.000 A 
BRANCH  24  26
ATOM     26  O   UNL     1       4.909   4.602  19.083  0.00  0.00    +0.000 OA
BRANCH  26  27
ATOM     27  C   UNL     1       5.272   4.392  17.754  0.00  0.00    +0.000 A 
ATOM     28  C   UNL     1       6.528   4.825  17.365  0.00  0.00    +0.000 A 
ATOM     29  C   UNL     1       6.883   4.720  16.020  0.00  0.00    +0.000 A 
ATOM     30  C   UNL     1       5.981   4.162  15.104  0.00  0.00    +0.000 A 
ATOM     31  C   UNL     1       4.773   3.722  15.600  0.00  0.00    +0.000 A 
ATOM     32  N   UNL     1       4.403   3.804  16.899  0.00  0.00    +0.000 NA
BRANCH  30  33
ATOM     33  C   UNL     1       6.279   4.046  13.643  0.00  0.00    +0.000 C 
ATOM     34  F   UNL     1       7.242   4.908  13.214  0.00  0.00    +0.000 F 
ATOM     35  F   UNL     1       6.708   2.803  13.293  0.00  0.00    +0.000 F 
ATOM     36  F   UNL     1       5.186   4.296  12.868  0.00  0.00    +0.000 F 
ENDBRANCH  30  33
ENDBRANCH  26  27
ENDBRANCH  24  26
ENDBRANCH  17  20
TORSDOF 4
ENDMDL
MODEL 5
REMARK VINA RESULT:      -7.5      4.794     10.081
REMARK  Name = 
REMARK  4 active torsions:
REMARK  status: ('A' for Active; 'I' for Inactive)
REMARK    1  A    between atoms: C_17  and  C_18
REMARK    2  A    between atoms: C_22  and  O_23
REMARK    3  A    between atoms: O_23  and  C_24
REMARK    4  A    between atoms: C_27  and  C_28
REMARK                            x       y       z     vdW  Elec       q    Type
REMARK                         _______ _______ _______ _____ _____    ______ ____
ROOT
ATOM      1  O   UNL     1      -1.398  14.373  20.562  0.00  0.00    +0.000 OA
ATOM      2  C   UNL     1      -0.686  13.526  21.099  0.00  0.00    +0.000 C 
ATOM      3  N   UNL     1      -0.741  13.245  22.446  0.00  0.00    +0.000 N 
ATOM      4  C   UNL     1      -1.589  13.954  23.313  0.00  0.00    +0.000 A 
ATOM      5  C   UNL     1      -2.960  14.025  23.120  0.00  0.00    +0.000 A 
ATOM      6  C   UNL     1      -3.724  14.716  24.055  0.00  0.00    +0.000 A 
ATOM      7  C   UNL     1      -3.074  15.323  25.113  0.00  0.00    +0.000 A 
ATOM      8  N   UNL     1      -1.743  15.221  25.292  0.00  0.00    +0.000 NA
ATOM      9  N   UNL     1      -1.001  14.500  24.399  0.00  0.00    +0.000 NA
ATOM     10  N   UNL     1       0.259  12.790  20.383  0.00  0.00    +0.000 N 
ATOM     11  C   UNL     1       1.083  11.695  20.890  0.00  0.00    +0.000 C 
ATOM     12  C   UNL     1       0.762  10.374  20.183  0.00  0.00    +0.000 C 
ATOM     13  C   UNL     1       0.743  10.518  18.646  0.00  0.00    +0.000 C 
ATOM     14  C   UNL     1      -0.081  11.740  18.208  0.00  0.00    +0.000 C 
ATOM     15  C   UNL     1       0.378  12.995  18.941  0.00  0.00    +0.000 C 
ATOM     16  C   UNL     1       0.241   9.261  17.865  0.00  0.00    +0.000 C 
ATOM     17  C   UNL     1       1.699   8.754  17.785  0.00  0.00    +0.000 C 
ATOM     18  C   UNL     1       2.123  10.250  17.962  0.00  0.00    +0.000 C 
ATOM     19  H   UNL     1       0.160  13.104  22.869  0.00  0.00    +0.000 HD
ENDROOT
BRANCH  17  20
ATOM     20  C   UNL     1       2.206   7.633  18.819  0.00  0.00    +0.000 A 
ATOM     21  C   UNL     1       1.503   7.261  19.981  0.00  0.00    +0.000 A 
ATOM     22  C   UNL     1       1.913   6.204  20.796  0.00  0.00    +0.000 A 
ATOM     23  C   UNL     1       3.020   5.433  20.429  0.00  0.00    +0.000 A 
ATOM     24  C   UNL     1       3.730   5.752  19.268  0.00  0.00    +0.000 A 
ATOM     25  C   UNL     1       3.367   6.886  18.532  0.00  0.00    +0.000 A 
BRANCH  24  26
ATOM     26  O   UNL     1       4.793   4.947  18.934  0.00  0.00    +0.000 OA
BRANCH  26  27
ATOM     27  C   UNL     1       5.091   4.792  17.582  0.00  0.00    +0.000 A 
ATOM     28  C   UNL     1       4.237   4.001  16.832  0.00  0.00    +0.000 A 
ATOM     29  C   UNL     1       4.561   3.745  15.500  0.00  0.00    +0.000 A 
ATOM     30  C   UNL     1       5.718   4.307  14.945  0.00  0.00    +0.000 A 
ATOM     31  C   UNL     1       6.479   5.115  15.764  0.00  0.00    +0.000 A 
ATOM     32  N   UNL     1       6.187   5.387  17.056  0.00  0.00    +0.000 NA
BRANCH  30  33
ATOM     33  C   UNL     1       6.147   4.052  13.535  0.00  0.00    +0.000 C 
ATOM     34  F   UNL     1       5.134   4.160  12.631  0.00  0.00    +0.000 F 
ATOM     35  F   UNL     1       7.113   4.915  13.118  0.00  0.00    +0.000 F 
ATOM     36  F   UNL     1       6.663   2.802  13.367  0.00  0.00    +0.000 F 
ENDBRANCH  30  33
ENDBRANCH  26  27
ENDBRANCH  24  26
ENDBRANCH  17  20
TORSDOF 4
ENDMDL
MODEL 6
REMARK VINA RESULT:      -7.4      5.704      8.289
REMARK  Name = 
REMARK  4 active torsions:
REMARK  status: ('A' for Active; 'I' for Inactive)
REMARK    1  A    between atoms: C_17  and  C_18
REMARK    2  A    between atoms: C_22  and  O_23
REMARK    3  A    between atoms: O_23  and  C_24
REMARK    4  A    between atoms: C_27  and  C_28
REMARK                            x       y       z     vdW  Elec       q    Type
REMARK                         _______ _______ _______ _____ _____    ______ ____
ROOT
ATOM      1  O   UNL     1       6.401  16.314  20.143  0.00  0.00    +0.000 OA
ATOM      2  C   UNL     1       5.962  15.410  19.434  0.00  0.00    +0.000 C 
ATOM      3  N   UNL     1       6.765  14.454  18.853  0.00  0.00    +0.000 N 
ATOM      4  C   UNL     1       8.162  14.482  18.992  0.00  0.00    +0.000 A 
ATOM      5  C   UNL     1       8.788  14.469  20.229  0.00  0.00    +0.000 A 
ATOM      6  C   UNL     1      10.178  14.457  20.266  0.00  0.00    +0.000 A 
ATOM      7  C   UNL     1      10.866  14.489  19.069  0.00  0.00    +0.000 A 
ATOM      8  N   UNL     1      10.237  14.478  17.878  0.00  0.00    +0.000 NA
ATOM      9  N   UNL     1       8.871  14.440  17.844  0.00  0.00    +0.000 NA
ATOM     10  N   UNL     1       4.602  15.292  19.143  0.00  0.00    +0.000 N 
ATOM     11  C   UNL     1       3.956  14.210  18.403  0.00  0.00    +0.000 C 
ATOM     12  C   UNL     1       2.970  13.435  19.284  0.00  0.00    +0.000 C 
ATOM     13  C   UNL     1       2.006  14.367  20.050  0.00  0.00    +0.000 C 
ATOM     14  C   UNL     1       2.764  15.519  20.730  0.00  0.00    +0.000 C 
ATOM     15  C   UNL     1       3.661  16.242  19.733  0.00  0.00    +0.000 C 
ATOM     16  C   UNL     1       1.098  13.662  21.108  0.00  0.00    +0.000 C 
ATOM     17  C   UNL     1       0.019  13.464  20.019  0.00  0.00    +0.000 C 
ATOM     18  C   UNL     1       0.679  14.680  19.286  0.00  0.00    +0.000 C 
ATOM     19  H   UNL     1       6.506  14.227  17.908  0.00  0.00    +0.000 HD
ENDROOT
BRANCH  17  20
ATOM     20  C   UNL     1      -0.115  12.042  19.285  0.00  0.00    +0.000 A 
ATOM     21  C   UNL     1      -1.272  11.613  18.607  0.00  0.00    +0.000 A 
ATOM     22  C   UNL     1      -1.315  10.421  17.882  0.00  0.00    +0.000 A 
ATOM     23  C   UNL     1      -0.161   9.642  17.756  0.00  0.00    +0.000 A 
ATOM     24  C   UNL     1       1.018  10.046  18.390  0.00  0.00    +0.000 A 
ATOM     25  C   UNL     1       1.003  11.184  19.206  0.00  0.00    +0.000 A 
BRANCH  24  26
ATOM     26  O   UNL     1       2.134   9.263  18.213  0.00  0.00    +0.000 OA
BRANCH  26  27
ATOM     27  C   UNL     1       2.146   8.005  18.813  0.00  0.00    +0.000 A 
ATOM     28  C   UNL     1       2.380   6.915  17.992  0.00  0.00    +0.000 A 
ATOM     29  C   UNL     1       2.302   5.636  18.543  0.00  0.00    +0.000 A 
ATOM     30  C   UNL     1       2.015   5.481  19.905  0.00  0.00    +0.000 A 
ATOM     31  C   UNL     1       1.840   6.632  20.645  0.00  0.00    +0.000 A 
ATOM     32  N   UNL     1       1.917   7.885  20.141  0.00  0.00    +0.000 NA
BRANCH  30  33
ATOM     33  C   UNL     1       1.883   4.143  20.558  0.00  0.00    +0.000 C 
ATOM     34  F   UNL     1       2.094   4.171  21.903  0.00  0.00    +0.000 F 
ATOM     35  F   UNL     1       0.650   3.594  20.385  0.00  0.00    +0.000 F 
ATOM     36  F   UNL     1       2.770   3.233  20.063  0.00  0.00    +0.000 F 
ENDBRANCH  30  33
ENDBRANCH  26  27
ENDBRANCH  24  26
ENDBRANCH  17  20
TORSDOF 4
ENDMDL
MODEL 7
REMARK VINA RESULT:      -7.3      4.661      8.607
REMARK  Name = 
REMARK  4 active torsions:
REMARK  status: ('A' for Active; 'I' for Inactive)
REMARK    1  A    between atoms: C_17  and  C_18
REMARK    2  A    between atoms: C_22  and  O_23
REMARK    3  A    between atoms: O_23  and  C_24
REMARK    4  A    between atoms: C_27  and  C_28
REMARK                            x       y       z     vdW  Elec       q    Type
REMARK                         _______ _______ _______ _____ _____    ______ ____
ROOT
ATOM      1  O   UNL     1       5.389   2.942  16.409  0.00  0.00    +0.000 OA
ATOM      2  C   UNL     1       5.320   4.126  16.736  0.00  0.00    +0.000 C 
ATOM      3  N   UNL     1       5.723   5.155  15.915  0.00  0.00    +0.000 N 
ATOM      4  C   UNL     1       6.295   4.912  14.656  0.00  0.00    +0.000 A 
ATOM      5  C   UNL     1       5.648   4.183  13.671  0.00  0.00    +0.000 A 
ATOM      6  C   UNL     1       6.277   4.030  12.440  0.00  0.00    +0.000 A 
ATOM      7  C   UNL     1       7.529   4.587  12.270  0.00  0.00    +0.000 A 
ATOM      8  N   UNL     1       8.130   5.311  13.234  0.00  0.00    +0.000 NA
ATOM      9  N   UNL     1       7.489   5.502  14.426  0.00  0.00    +0.000 NA
ATOM     10  N   UNL     1       4.841   4.523  17.986  0.00  0.00    +0.000 N 
ATOM     11  C   UNL     1       4.619   5.893  18.443  0.00  0.00    +0.000 C 
ATOM     12  C   UNL     1       3.138   6.157  18.733  0.00  0.00    +0.000 C 
ATOM     13  C   UNL     1       2.507   5.063  19.621  0.00  0.00    +0.000 C 
ATOM     14  C   UNL     1       2.858   3.655  19.111  0.00  0.00    +0.000 C 
ATOM     15  C   UNL     1       4.363   3.507  18.921  0.00  0.00    +0.000 C 
ATOM     16  C   UNL     1       0.958   5.164  19.804  0.00  0.00    +0.000 C 
ATOM     17  C   UNL     1       1.185   6.034  21.061  0.00  0.00    +0.000 C 
ATOM     18  C   UNL     1       2.593   5.356  21.153  0.00  0.00    +0.000 C 
ATOM     19  H   UNL     1       6.219   5.887  16.396  0.00  0.00    +0.000 HD
ENDROOT
BRANCH  17  20
ATOM     20  C   UNL     1       1.053   7.632  20.954  0.00  0.00    +0.000 A 
ATOM     21  C   UNL     1       1.537   8.527  21.927  0.00  0.00    +0.000 A 
ATOM     22  C   UNL     1       1.509   9.911  21.749  0.00  0.00    +0.000 A 
ATOM     23  C   UNL     1       1.050  10.447  20.542  0.00  0.00    +0.000 A 
ATOM     24  C   UNL     1       0.586   9.592  19.538  0.00  0.00    +0.000 A 
ATOM     25  C   UNL     1       0.517   8.216  19.787  0.00  0.00    +0.000 A 
BRANCH  24  26
ATOM     26  O   UNL     1       0.172  10.164  18.359  0.00  0.00    +0.000 OA
BRANCH  26  27
ATOM     27  C   UNL     1      -1.166  10.533  18.251  0.00  0.00    +0.000 A 
ATOM     28  C   UNL     1      -1.936   9.858  17.319  0.00  0.00    +0.000 A 
ATOM     29  C   UNL     1      -3.254  10.269  17.117  0.00  0.00    +0.000 A 
ATOM     30  C   UNL     1      -3.774  11.330  17.869  0.00  0.00    +0.000 A 
ATOM     31  C   UNL     1      -2.939  11.909  18.801  0.00  0.00    +0.000 A 
ATOM     32  N   UNL     1      -1.660  11.528  19.025  0.00  0.00    +0.000 NA
BRANCH  30  33
ATOM     33  C   UNL     1      -5.165  11.847  17.686  0.00  0.00    +0.000 C 
ATOM     34  F   UNL     1      -6.105  10.865  17.611  0.00  0.00    +0.000 F 
ATOM     35  F   UNL     1      -5.559  12.665  18.700  0.00  0.00    +0.000 F 
ATOM     36  F   UNL     1      -5.302  12.578  16.543  0.00  0.00    +0.000 F 
ENDBRANCH  30  33
ENDBRANCH  26  27
ENDBRANCH  24  26
ENDBRANCH  17  20
TORSDOF 4
ENDMDL
MODEL 8
REMARK VINA RESULT:      -7.3      4.985      9.263
REMARK  Name = 
REMARK  4 active torsions:
REMARK  status: ('A' for Active; 'I' for Inactive)
REMARK    1  A    between atoms: C_17  and  C_18
REMARK    2  A    between atoms: C_22  and  O_23
REMARK    3  A    between atoms: O_23  and  C_24
REMARK    4  A    between atoms: C_27  and  C_28
REMARK                            x       y       z     vdW  Elec       q    Type
REMARK                         _______ _______ _______ _____ _____    ______ ____
ROOT
ATOM      1  O   UNL     1       5.561   2.950  16.239  0.00  0.00    +0.000 OA
ATOM      2  C   UNL     1       5.464   4.145  16.513  0.00  0.00    +0.000 C 
ATOM      3  N   UNL     1       5.818   5.147  15.638  0.00  0.00    +0.000 N 
ATOM      4  C   UNL     1       6.370   4.864  14.379  0.00  0.00    +0.000 A 
ATOM      5  C   UNL     1       5.724   4.072  13.442  0.00  0.00    +0.000 A 
ATOM      6  C   UNL     1       6.331   3.881  12.205  0.00  0.00    +0.000 A 
ATOM      7  C   UNL     1       7.563   4.466  11.982  0.00  0.00    +0.000 A 
ATOM      8  N   UNL     1       8.162   5.250  12.899  0.00  0.00    +0.000 NA
ATOM      9  N   UNL     1       7.540   5.477  14.095  0.00  0.00    +0.000 NA
ATOM     10  N   UNL     1       5.000   4.585  17.754  0.00  0.00    +0.000 N 
ATOM     11  C   UNL     1       4.746   5.968  18.154  0.00  0.00    +0.000 C 
ATOM     12  C   UNL     1       3.264   6.201  18.465  0.00  0.00    +0.000 C 
ATOM     13  C   UNL     1       2.686   5.131  19.416  0.00  0.00    +0.000 C 
ATOM     14  C   UNL     1       3.068   3.713  18.962  0.00  0.00    +0.000 C 
ATOM     15  C   UNL     1       4.573   3.600  18.745  0.00  0.00    +0.000 C 
ATOM     16  C   UNL     1       1.138   5.196  19.629  0.00  0.00    +0.000 C 
ATOM     17  C   UNL     1       1.366   6.129  20.840  0.00  0.00    +0.000 C 
ATOM     18  C   UNL     1       2.795   5.497  20.931  0.00  0.00    +0.000 C 
ATOM     19  H   UNL     1       6.301   5.915  16.073  0.00  0.00    +0.000 HD
ENDROOT
BRANCH  17  20
ATOM     20  C   UNL     1       1.184   7.715  20.664  0.00  0.00    +0.000 A 
ATOM     21  C   UNL     1       1.049   8.356  19.418  0.00  0.00    +0.000 A 
ATOM     22  C   UNL     1       0.777   9.721  19.306  0.00  0.00    +0.000 A 
ATOM     23  C   UNL     1       0.562  10.484  20.457  0.00  0.00    +0.000 A 
ATOM     24  C   UNL     1       0.658   9.880  21.714  0.00  0.00    +0.000 A 
ATOM     25  C   UNL     1       1.046   8.537  21.802  0.00  0.00    +0.000 A 
BRANCH  24  26
ATOM     26  O   UNL     1       0.410  10.664  22.815  0.00  0.00    +0.000 OA
BRANCH  26  27
ATOM     27  C   UNL     1      -0.567  11.650  22.703  0.00  0.00    +0.000 A 
ATOM     28  C   UNL     1      -1.851  11.318  23.102  0.00  0.00    +0.000 A 
ATOM     29  C   UNL     1      -2.871  12.250  22.911  0.00  0.00    +0.000 A 
ATOM     30  C   UNL     1      -2.577  13.498  22.348  0.00  0.00    +0.000 A 
ATOM     31  C   UNL     1      -1.260  13.747  22.023  0.00  0.00    +0.000 A 
ATOM     32  N   UNL     1      -0.249  12.867  22.203  0.00  0.00    +0.000 NA
BRANCH  30  33
ATOM     33  C   UNL     1      -3.623  14.534  22.083  0.00  0.00    +0.000 C 
ATOM     34  F   UNL     1      -4.117  15.109  23.215  0.00  0.00    +0.000 F 
ATOM     35  F   UNL     1      -3.162  15.559  21.315  0.00  0.00    +0.000 F 
ATOM     36  F   UNL     1      -4.702  14.027  21.423  0.00  0.00    +0.000 F 
ENDBRANCH  30  33
ENDBRANCH  26  27
ENDBRANCH  24  26
ENDBRANCH  17  20
TORSDOF 4
ENDMDL
MODEL 9
REMARK VINA RESULT:      -7.2      1.531      1.946
REMARK  Name = 
REMARK  4 active torsions:
REMARK  status: ('A' for Active; 'I' for Inactive)
REMARK    1  A    between atoms: C_17  and  C_18
REMARK    2  A    between atoms: C_22  and  O_23
REMARK    3  A    between atoms: O_23  and  C_24
REMARK    4  A    between atoms: C_27  and  C_28
REMARK                            x       y       z     vdW  Elec       q    Type
REMARK                         _______ _______ _______ _____ _____    ______ ____
ROOT
ATOM      1  O   UNL     1      -0.423  11.868  23.074  0.00  0.00    +0.000 OA
ATOM      2  C   UNL     1      -0.900  12.218  21.995  0.00  0.00    +0.000 C 
ATOM      3  N   UNL     1      -0.799  11.461  20.850  0.00  0.00    +0.000 N 
ATOM      4  C   UNL     1      -0.090  10.249  20.827  0.00  0.00    +0.000 A 
ATOM      5  C   UNL     1      -0.390   9.194  21.675  0.00  0.00    +0.000 A 
ATOM      6  C   UNL     1       0.341   8.018  21.551  0.00  0.00    +0.000 A 
ATOM      7  C   UNL     1       1.350   7.969  20.609  0.00  0.00    +0.000 A 
ATOM      8  N   UNL     1       1.609   8.999  19.781  0.00  0.00    +0.000 NA
ATOM      9  N   UNL     1       0.856  10.136  19.870  0.00  0.00    +0.000 NA
ATOM     10  N   UNL     1      -1.571  13.432  21.841  0.00  0.00    +0.000 N 
ATOM     11  C   UNL     1      -2.263  13.903  20.643  0.00  0.00    +0.000 C 
ATOM     12  C   UNL     1      -3.766  14.073  20.891  0.00  0.00    +0.000 C 
ATOM     13  C   UNL     1      -4.065  14.876  22.175  0.00  0.00    +0.000 C 
ATOM     14  C   UNL     1      -3.235  14.362  23.363  0.00  0.00    +0.000 C 
ATOM     15  C   UNL     1      -1.756  14.297  23.004  0.00  0.00    +0.000 C 
ATOM     16  C   UNL     1      -5.570  14.930  22.592  0.00  0.00    +0.000 C 
ATOM     17  C   UNL     1      -5.733  16.223  21.762  0.00  0.00    +0.000 C 
ATOM     18  C   UNL     1      -4.191  16.418  21.949  0.00  0.00    +0.000 C 
ATOM     19  H   UNL     1      -0.608  12.000  20.022  0.00  0.00    +0.000 HD
ENDROOT
BRANCH  17  20
ATOM     20  C   UNL     1      -6.373  16.146  20.291  0.00  0.00    +0.000 A 
ATOM     21  C   UNL     1      -6.381  17.220  19.380  0.00  0.00    +0.000 A 
ATOM     22  C   UNL     1      -6.843  17.084  18.069  0.00  0.00    +0.000 A 
ATOM     23  C   UNL     1      -7.255  15.833  17.604  0.00  0.00    +0.000 A 
ATOM     24  C   UNL     1      -7.236  14.733  18.467  0.00  0.00    +0.000 A 
ATOM     25  C   UNL     1      -6.879  14.921  19.808  0.00  0.00    +0.000 A 
BRANCH  24  26
ATOM     26  O   UNL     1      -7.623  13.518  17.955  0.00  0.00    +0.000 OA
BRANCH  26  27
ATOM     27  C   UNL     1      -6.649  12.531  17.819  0.00  0.00    +0.000 A 
ATOM     28  C   UNL     1      -6.680  11.482  18.722  0.00  0.00    +0.000 A 
ATOM     29  C   UNL     1      -5.662  10.530  18.675  0.00  0.00    +0.000 A 
ATOM     30  C   UNL     1      -4.652  10.639  17.710  0.00  0.00    +0.000 A 
ATOM     31  C   UNL     1      -4.735  11.697  16.830  0.00  0.00    +0.000 A 
ATOM     32  N   UNL     1      -5.713  12.631  16.847  0.00  0.00    +0.000 NA
BRANCH  30  33
ATOM     33  C   UNL     1      -3.512   9.675  17.619  0.00  0.00    +0.000 C 
ATOM     34  F   UNL     1      -2.373  10.123  18.217  0.00  0.00    +0.000 F 
ATOM     35  F   UNL     1      -3.791   8.476  18.199  0.00  0.00    +0.000 F 
ATOM     36  F   UNL     1      -3.169   9.396  16.330  0.00  0.00    +0.000 F 
ENDBRANCH  30  33
ENDBRANCH  26  27
ENDBRANCH  24  26
ENDBRANCH  17  20
TORSDOF 4
ENDMDL
