MODEL 1
REMARK VINA RESULT:      -7.8      0.000      0.000
REMARK  Name = 
REMARK  12 active torsions:
REMARK  status: ('A' for Active; 'I' for Inactive)
REMARK    1  A    between atoms: C_2  and  C_3
REMARK    2  A    between atoms: C_3  and  C_4
REMARK    3  A    between atoms: C_7  and  O_8
REMARK    4  A    between atoms: O_8  and  N_9
REMARK    5  A    between atoms: C_10  and  C_11
REMARK    6  A    between atoms: C_10  and  C_12
REMARK    7  A    between atoms: C_12  and  C_13
REMARK    8  A    between atoms: C_13  and  N_14
REMARK    9  A    between atoms: C_20  and  C_21
REMARK   10  A    between atoms: C_22  and  C_23
REMARK   11  A    between atoms: C_26  and  C_27
REMARK   12  A    between atoms: C_27  and  O_28
REMARK                            x       y       z     vdW  Elec       q    Type
REMARK                         _______ _______ _______ _____ _____    ______ ____
ROOT
ATOM      1  N   UNL     1       2.532   6.748  18.836  0.00  0.00    +0.000 NA
ATOM      2  C   UNL     1       1.953   6.940  19.989  0.00  0.00    +0.000 C 
ATOM      3  C   UNL     1       1.539   5.834  20.939  0.00  0.00    +0.000 C 
ENDROOT
BRANCH   1   4
ATOM      4  O   UNL     1       2.581   5.382  18.502  0.00  0.00    +0.000 OA
BRANCH   4   8
ATOM      5  C   UNL     1       6.328   5.002  18.047  0.00  0.00    +0.000 C 
ATOM      6  C   UNL     1       5.648   6.272  17.594  0.00  0.00    +0.000 C 
ATOM      7  C   UNL     1       4.340   6.353  17.304  0.00  0.00    +0.000 C 
ATOM      8  C   UNL     1       3.432   5.155  17.369  0.00  0.00    +0.000 C 
ATOM      9  C   UNL     1       4.275   3.856  17.446  0.00  0.00    +0.000 C 
ATOM     10  O   UNL     1       5.378   3.971  18.363  0.00  0.00    +0.000 OA
BRANCH   5  11
ATOM     11  C   UNL     1       7.394   4.546  17.022  0.00  0.00    +0.000 C 
BRANCH  11  13
ATOM     12  C   UNL     1       6.600   4.300  14.637  0.00  0.00    +0.000 C 
ATOM     13  C   UNL     1       7.140   5.035  15.620  0.00  0.00    +0.000 C 
ENDBRANCH  11  13
ENDBRANCH   5  11
BRANCH   9  14
ATOM     14  C   UNL     1       3.453   2.631  17.859  0.00  0.00    +0.000 C 
BRANCH  14  15
ATOM     15  O   UNL     1       2.143   2.660  17.303  0.00  0.00    +0.000 OA
ATOM     16  H   UNL     1       2.234   2.257  16.414  0.00  0.00    +0.000 HD
ENDBRANCH  14  15
ENDBRANCH   9  14
ENDBRANCH   4   8
ENDBRANCH   1   4
BRANCH   2  17
ATOM     17  C   UNL     1       1.626   8.382  20.364  0.00  0.00    +0.000 C 
BRANCH  17  18
ATOM     18  C   UNL     1       1.170   9.248  19.193  0.00  0.00    +0.000 C 
BRANCH  18  19
ATOM     19  N   UNL     1       0.255  10.309  19.608  0.00  0.00    +0.000 N 
ATOM     20  C   UNL     1       0.680  11.231  20.662  0.00  0.00    +0.000 C 
ATOM     21  C   UNL     1      -0.499  11.558  21.567  0.00  0.00    +0.000 C 
ATOM     22  C   UNL     1      -1.587  12.244  20.753  0.00  0.00    +0.000 C 
ATOM     23  C   UNL     1      -1.857  11.534  19.449  0.00  0.00    +0.000 A 
ATOM     24  N   UNL     1      -3.023  11.878  18.840  0.00  0.00    +0.000 NA
ATOM     25  C   UNL     1      -3.328  11.295  17.658  0.00  0.00    +0.000 A 
ATOM     26  C   UNL     1      -4.633  11.708  17.045  0.00  0.00    +0.000 C 
ATOM     27  C   UNL     1      -2.485  10.365  17.053  0.00  0.00    +0.000 A 
ATOM     28  C   UNL     1      -2.763   9.719  15.728  0.00  0.00    +0.000 C 
ATOM     29  C   UNL     1      -1.290  10.030  17.719  0.00  0.00    +0.000 A 
ATOM     30  C   UNL     1      -0.928  10.616  18.934  0.00  0.00    +0.000 A 
ENDBRANCH  18  19
ENDBRANCH  17  18
ENDBRANCH   2  17
TORSDOF 9
ENDMDL
MODEL 2
REMARK VINA RESULT:      -7.8      3.269      8.568
REMARK  Name = 
REMARK  12 active torsions:
REMARK  status: ('A' for Active; 'I' for Inactive)
REMARK    1  A    between atoms: C_2  and  C_3
REMARK    2  A    between atoms: C_3  and  C_4
REMARK    3  A    between atoms: C_7  and  O_8
REMARK    4  A    between atoms: O_8  and  N_9
REMARK    5  A    between atoms: C_10  and  C_11
REMARK    6  A    between atoms: C_10  and  C_12
REMARK    7  A    between atoms: C_12  and  C_13
REMARK    8  A    between atoms: C_13  and  N_14
REMARK    9  A    between atoms: C_20  and  C_21
REMARK   10  A    between atoms: C_22  and  C_23
REMARK   11  A    between atoms: C_26  and  C_27
REMARK   12  A    between atoms: C_27  and  O_28
REMARK                            x       y       z     vdW  Elec       q    Type
REMARK                         _______ _______ _______ _____ _____    ______ ____
ROOT
ATOM      1  N   UNL     1       2.069   5.079  19.041  0.00  0.00    +0.000 NA
ATOM      2  C   UNL     1       2.462   4.043  19.730  0.00  0.00    +0.000 C 
ATOM      3  C   UNL     1       2.221   3.855  21.214  0.00  0.00    +0.000 C 
ENDROOT
BRANCH   1   4
ATOM      4  O   UNL     1       1.534   6.081  19.872  0.00  0.00    +0.000 OA
BRANCH   4   8
ATOM      5  C   UNL     1       1.389   9.436  18.107  0.00  0.00    +0.000 C 
ATOM      6  C   UNL     1       2.407   8.409  17.671  0.00  0.00    +0.000 C 
ATOM      7  C   UNL     1       2.839   7.411  18.457  0.00  0.00    +0.000 C 
ATOM      8  C   UNL     1       2.368   7.250  19.877  0.00  0.00    +0.000 C 
ATOM      9  C   UNL     1       1.657   8.545  20.348  0.00  0.00    +0.000 C 
ATOM     10  O   UNL     1       0.765   9.076  19.351  0.00  0.00    +0.000 OA
BRANCH   5  11
ATOM     11  C   UNL     1       2.004  10.855  18.129  0.00  0.00    +0.000 C 
BRANCH  11  13
ATOM     12  C   UNL     1       1.397  12.430  20.008  0.00  0.00    +0.000 C 
ATOM     13  C   UNL     1       1.139  11.884  18.812  0.00  0.00    +0.000 C 
ENDBRANCH  11  13
ENDBRANCH   5  11
BRANCH   9  14
ATOM     14  C   UNL     1       0.851   8.352  21.636  0.00  0.00    +0.000 C 
BRANCH  14  15
ATOM     15  O   UNL     1      -0.117   9.381  21.814  0.00  0.00    +0.000 OA
ATOM     16  H   UNL     1       0.326  10.202  21.514  0.00  0.00    +0.000 HD
ENDBRANCH  14  15
ENDBRANCH   9  14
ENDBRANCH   4   8
ENDBRANCH   1   4
BRANCH   2  17
ATOM     17  C   UNL     1       3.270   2.985  18.984  0.00  0.00    +0.000 C 
BRANCH  17  18
ATOM     18  C   UNL     1       3.675   3.387  17.569  0.00  0.00    +0.000 C 
BRANCH  18  19
ATOM     19  N   UNL     1       4.974   4.055  17.530  0.00  0.00    +0.000 N 
ATOM     20  C   UNL     1       5.674   4.303  18.791  0.00  0.00    +0.000 C 
ATOM     21  C   UNL     1       6.362   5.660  18.741  0.00  0.00    +0.000 C 
ATOM     22  C   UNL     1       7.394   5.663  17.622  0.00  0.00    +0.000 C 
ATOM     23  C   UNL     1       6.846   5.086  16.339  0.00  0.00    +0.000 A 
ATOM     24  N   UNL     1       7.578   5.364  15.227  0.00  0.00    +0.000 NA
ATOM     25  C   UNL     1       7.159   4.869  14.040  0.00  0.00    +0.000 A 
ATOM     26  C   UNL     1       8.003   5.221  12.852  0.00  0.00    +0.000 C 
ATOM     27  C   UNL     1       6.011   4.086  13.930  0.00  0.00    +0.000 A 
ATOM     28  C   UNL     1       5.527   3.485  12.643  0.00  0.00    +0.000 C 
ATOM     29  C   UNL     1       5.277   3.827  15.104  0.00  0.00    +0.000 A 
ATOM     30  C   UNL     1       5.679   4.307  16.352  0.00  0.00    +0.000 A 
ENDBRANCH  18  19
ENDBRANCH  17  18
ENDBRANCH   2  17
TORSDOF 9
ENDMDL
MODEL 3
REMARK VINA RESULT:      -7.6      2.740      8.926
REMARK  Name = 
REMARK  12 active torsions:
REMARK  status: ('A' for Active; 'I' for Inactive)
REMARK    1  A    between atoms: C_2  and  C_3
REMARK    2  A    between atoms: C_3  and  C_4
REMARK    3  A    between atoms: C_7  and  O_8
REMARK    4  A    between atoms: O_8  and  N_9
REMARK    5  A    between atoms: C_10  and  C_11
REMARK    6  A    between atoms: C_10  and  C_12
REMARK    7  A    between atoms: C_12  and  C_13
REMARK    8  A    between atoms: C_13  and  N_14
REMARK    9  A    between atoms: C_20  and  C_21
REMARK   10  A    between atoms: C_22  and  C_23
REMARK   11  A    between atoms: C_26  and  C_27
REMARK   12  A    between atoms: C_27  and  O_28
REMARK                            x       y       z     vdW  Elec       q    Type
REMARK                         _______ _______ _______ _____ _____    ______ ____
ROOT
ATOM      1  N   UNL     1       2.107   6.953  18.872  0.00  0.00    +0.000 NA
ATOM      2  C   UNL     1       2.056   5.651  18.938  0.00  0.00    +0.000 C 
ATOM      3  C   UNL     1       1.595   4.869  20.152  0.00  0.00    +0.000 C 
ENDROOT
BRANCH   1   4
ATOM      4  O   UNL     1       1.838   7.546  20.120  0.00  0.00    +0.000 OA
BRANCH   4   8
ATOM      5  C   UNL     1      -0.843  10.093  19.274  0.00  0.00    +0.000 C 
ATOM      6  C   UNL     1       0.241   9.791  18.268  0.00  0.00    +0.000 C 
ATOM      7  C   UNL     1       1.435   9.273  18.594  0.00  0.00    +0.000 C 
ATOM      8  C   UNL     1       1.816   8.978  20.019  0.00  0.00    +0.000 C 
ATOM      9  C   UNL     1       0.825   9.675  20.987  0.00  0.00    +0.000 C 
ATOM     10  O   UNL     1      -0.544   9.535  20.565  0.00  0.00    +0.000 OA
BRANCH   5  11
ATOM     11  C   UNL     1      -1.149  11.608  19.328  0.00  0.00    +0.000 C 
BRANCH  11  13
ATOM     12  C   UNL     1      -0.250  13.773  18.387  0.00  0.00    +0.000 C 
ATOM     13  C   UNL     1      -0.119  12.462  18.635  0.00  0.00    +0.000 C 
ENDBRANCH  11  13
ENDBRANCH   5  11
BRANCH   9  14
ATOM     14  C   UNL     1       0.924   9.156  22.424  0.00  0.00    +0.000 C 
BRANCH  14  15
ATOM     15  O   UNL     1       2.261   9.200  22.912  0.00  0.00    +0.000 OA
ATOM     16  H   UNL     1       2.568   8.269  22.900  0.00  0.00    +0.000 HD
ENDBRANCH  14  15
ENDBRANCH   9  14
ENDBRANCH   4   8
ENDBRANCH   1   4
BRANCH   2  17
ATOM     17  C   UNL     1       2.552   4.879  17.720  0.00  0.00    +0.000 C 
BRANCH  17  18
ATOM     18  C   UNL     1       3.625   3.840  18.029  0.00  0.00    +0.000 C 
BRANCH  18  19
ATOM     19  N   UNL     1       4.977   4.383  17.915  0.00  0.00    +0.000 N 
ATOM     20  C   UNL     1       5.757   4.589  19.136  0.00  0.00    +0.000 C 
ATOM     21  C   UNL     1       6.563   5.874  19.022  0.00  0.00    +0.000 C 
ATOM     22  C   UNL     1       7.535   5.760  17.857  0.00  0.00    +0.000 C 
ATOM     23  C   UNL     1       6.876   5.213  16.614  0.00  0.00    +0.000 A 
ATOM     24  N   UNL     1       7.576   5.401  15.464  0.00  0.00    +0.000 NA
ATOM     25  C   UNL     1       7.056   4.923  14.310  0.00  0.00    +0.000 A 
ATOM     26  C   UNL     1       7.871   5.174  13.076  0.00  0.00    +0.000 C 
ATOM     27  C   UNL     1       5.838   4.248  14.271  0.00  0.00    +0.000 A 
ATOM     28  C   UNL     1       5.238   3.671  13.022  0.00  0.00    +0.000 C 
ATOM     29  C   UNL     1       5.140   4.081  15.483  0.00  0.00    +0.000 A 
ATOM     30  C   UNL     1       5.644   4.546  16.700  0.00  0.00    +0.000 A 
ENDBRANCH  18  19
ENDBRANCH  17  18
ENDBRANCH   2  17
TORSDOF 9
ENDMDL
MODEL 4
REMARK VINA RESULT:      -7.5      3.079      8.873
REMARK  Name = 
REMARK  12 active torsions:
REMARK  status: ('A' for Active; 'I' for Inactive)
REMARK    1  A    between atoms: C_2  and  C_3
REMARK    2  A    between atoms: C_3  and  C_4
REMARK    3  A    between atoms: C_7  and  O_8
REMARK    4  A    between atoms: O_8  and  N_9
REMARK    5  A    between atoms: C_10  and  C_11
REMARK    6  A    between atoms: C_10  and  C_12
REMARK    7  A    between atoms: C_12  and  C_13
REMARK    8  A    between atoms: C_13  and  N_14
REMARK    9  A    between atoms: C_20  and  C_21
REMARK   10  A    between atoms: C_22  and  C_23
REMARK   11  A    between atoms: C_26  and  C_27
REMARK   12  A    between atoms: C_27  and  O_28
REMARK                            x       y       z     vdW  Elec       q    Type
REMARK                         _______ _______ _______ _____ _____    ______ ____
ROOT
ATOM      1  N   UNL     1       0.487   9.741  19.988  0.00  0.00    +0.000 NA
ATOM      2  C   UNL     1       0.436   9.074  21.108  0.00  0.00    +0.000 C 
ATOM      3  C   UNL     1      -0.348   9.506  22.332  0.00  0.00    +0.000 C 
ENDROOT
BRANCH   1   4
ATOM      4  O   UNL     1      -0.142  10.995  20.102  0.00  0.00    +0.000 OA
BRANCH   4   8
ATOM      5  C   UNL     1      -2.935  10.253  17.645  0.00  0.00    +0.000 C 
ATOM      6  C   UNL     1      -1.531   9.788  17.340  0.00  0.00    +0.000 C 
ATOM      7  C   UNL     1      -0.431  10.339  17.876  0.00  0.00    +0.000 C 
ATOM      8  C   UNL     1      -0.503  11.513  18.814  0.00  0.00    +0.000 C 
ATOM      9  C   UNL     1      -1.912  12.156  18.750  0.00  0.00    +0.000 C 
ATOM     10  O   UNL     1      -2.964  11.174  18.748  0.00  0.00    +0.000 OA
BRANCH   5  11
ATOM     11  C   UNL     1      -3.625  10.809  16.377  0.00  0.00    +0.000 C 
BRANCH  11  13
ATOM     12  C   UNL     1      -3.824  10.016  13.987  0.00  0.00    +0.000 C 
ATOM     13  C   UNL     1      -3.094  10.231  15.091  0.00  0.00    +0.000 C 
ENDBRANCH  11  13
ENDBRANCH   5  11
BRANCH   9  14
ATOM     14  C   UNL     1      -2.183  13.124  19.906  0.00  0.00    +0.000 C 
BRANCH  14  15
ATOM     15  O   UNL     1      -3.487  13.690  19.828  0.00  0.00    +0.000 OA
ATOM     16  H   UNL     1      -3.357  14.577  19.432  0.00  0.00    +0.000 HD
ENDBRANCH  14  15
ENDBRANCH   9  14
ENDBRANCH   4   8
ENDBRANCH   1   4
BRANCH   2  17
ATOM     17  C   UNL     1       1.276   7.804  21.193  0.00  0.00    +0.000 C 
BRANCH  17  18
ATOM     18  C   UNL     1       2.102   7.512  19.943  0.00  0.00    +0.000 C 
BRANCH  18  19
ATOM     19  N   UNL     1       2.359   6.085  19.766  0.00  0.00    +0.000 N 
ATOM     20  C   UNL     1       1.554   5.126  20.525  0.00  0.00    +0.000 C 
ATOM     21  C   UNL     1       2.427   3.965  20.979  0.00  0.00    +0.000 C 
ATOM     22  C   UNL     1       2.988   3.247  19.760  0.00  0.00    +0.000 C 
ATOM     23  C   UNL     1       3.544   4.208  18.737  0.00  0.00    +0.000 A 
ATOM     24  N   UNL     1       4.354   3.644  17.802  0.00  0.00    +0.000 NA
ATOM     25  C   UNL     1       4.879   4.439  16.841  0.00  0.00    +0.000 A 
ATOM     26  C   UNL     1       5.772   3.757  15.847  0.00  0.00    +0.000 C 
ATOM     27  C   UNL     1       4.610   5.805  16.785  0.00  0.00    +0.000 A 
ATOM     28  C   UNL     1       5.141   6.720  15.720  0.00  0.00    +0.000 C 
ATOM     29  C   UNL     1       3.774   6.352  17.777  0.00  0.00    +0.000 A 
ATOM     30  C   UNL     1       3.199   5.568  18.779  0.00  0.00    +0.000 A 
ENDBRANCH  18  19
ENDBRANCH  17  18
ENDBRANCH   2  17
TORSDOF 9
ENDMDL
MODEL 5
REMARK VINA RESULT:      -7.5      3.039      9.073
REMARK  Name = 
REMARK  12 active torsions:
REMARK  status: ('A' for Active; 'I' for Inactive)
REMARK    1  A    between atoms: C_2  and  C_3
REMARK    2  A    between atoms: C_3  and  C_4
REMARK    3  A    between atoms: C_7  and  O_8
REMARK    4  A    between atoms: O_8  and  N_9
REMARK    5  A    between atoms: C_10  and  C_11
REMARK    6  A    between atoms: C_10  and  C_12
REMARK    7  A    between atoms: C_12  and  C_13
REMARK    8  A    between atoms: C_13  and  N_14
REMARK    9  A    between atoms: C_20  and  C_21
REMARK   10  A    between atoms: C_22  and  C_23
REMARK   11  A    between atoms: C_26  and  C_27
REMARK   12  A    between atoms: C_27  and  O_28
REMARK                            x       y       z     vdW  Elec       q    Type
REMARK                         _______ _______ _______ _____ _____    ______ ____
ROOT
ATOM      1  N   UNL     1       2.485   6.681  18.379  0.00  0.00    +0.000 NA
ATOM      2  C   UNL     1       2.515   5.413  18.687  0.00  0.00    +0.000 C 
ATOM      3  C   UNL     1       2.380   4.866  20.094  0.00  0.00    +0.000 C 
ENDROOT
BRANCH   1   4
ATOM      4  O   UNL     1       2.475   7.494  19.529  0.00  0.00    +0.000 OA
BRANCH   4   8
ATOM      5  C   UNL     1       1.027  10.549  21.247  0.00  0.00    +0.000 C 
ATOM      6  C   UNL     1       1.041   9.224  21.971  0.00  0.00    +0.000 C 
ATOM      7  C   UNL     1       1.111   8.037  21.349  0.00  0.00    +0.000 C 
ATOM      8  C   UNL     1       1.144   7.922  19.849  0.00  0.00    +0.000 C 
ATOM      9  C   UNL     1       0.729   9.271  19.206  0.00  0.00    +0.000 C 
ATOM     10  O   UNL     1       1.345  10.400  19.853  0.00  0.00    +0.000 OA
BRANCH   5  11
ATOM     11  C   UNL     1      -0.304  11.301  21.486  0.00  0.00    +0.000 C 
BRANCH  11  13
ATOM     12  C   UNL     1      -1.906  11.757  23.384  0.00  0.00    +0.000 C 
ATOM     13  C   UNL     1      -0.923  11.032  22.833  0.00  0.00    +0.000 C 
ENDBRANCH  11  13
ENDBRANCH   5  11
BRANCH   9  14
ATOM     14  C   UNL     1       1.064   9.352  17.714  0.00  0.00    +0.000 C 
BRANCH  14  15
ATOM     15  O   UNL     1       2.470   9.361  17.486  0.00  0.00    +0.000 OA
ATOM     16  H   UNL     1       2.844   8.779  18.181  0.00  0.00    +0.000 HD
ENDBRANCH  14  15
ENDBRANCH   9  14
ENDBRANCH   4   8
ENDBRANCH   1   4
BRANCH   2  17
ATOM     17  C   UNL     1       2.761   4.433  17.545  0.00  0.00    +0.000 C 
BRANCH  17  18
ATOM     18  C   UNL     1       4.003   3.564  17.721  0.00  0.00    +0.000 C 
BRANCH  18  19
ATOM     19  N   UNL     1       5.241   4.326  17.574  0.00  0.00    +0.000 N 
ATOM     20  C   UNL     1       5.963   4.734  18.780  0.00  0.00    +0.000 C 
ATOM     21  C   UNL     1       6.536   6.131  18.592  0.00  0.00    +0.000 C 
ATOM     22  C   UNL     1       7.523   6.121  17.434  0.00  0.00    +0.000 C 
ATOM     23  C   UNL     1       6.980   5.397  16.226  0.00  0.00    +0.000 A 
ATOM     24  N   UNL     1       7.647   5.638  15.066  0.00  0.00    +0.000 NA
ATOM     25  C   UNL     1       7.228   5.013  13.942  0.00  0.00    +0.000 A 
ATOM     26  C   UNL     1       7.999   5.330  12.694  0.00  0.00    +0.000 C 
ATOM     27  C   UNL     1       6.146   4.136  13.943  0.00  0.00    +0.000 A 
ATOM     28  C   UNL     1       5.666   3.393  12.730  0.00  0.00    +0.000 C 
ATOM     29  C   UNL     1       5.476   3.919  15.163  0.00  0.00    +0.000 A 
ATOM     30  C   UNL     1       5.881   4.533  16.351  0.00  0.00    +0.000 A 
ENDBRANCH  18  19
ENDBRANCH  17  18
ENDBRANCH   2  17
TORSDOF 9
ENDMDL
MODEL 6
REMARK VINA RESULT:      -7.4      3.104      9.178
REMARK  Name = 
REMARK  12 active torsions:
REMARK  status: ('A' for Active; 'I' for Inactive)
REMARK    1  A    between atoms: C_2  and  C_3
REMARK    2  A    between atoms: C_3  and  C_4
REMARK    3  A    between atoms: C_7  and  O_8
REMARK    4  A    between atoms: O_8  and  N_9
REMARK    5  A    between atoms: C_10  and  C_11
REMARK    6  A    between atoms: C_10  and  C_12
REMARK    7  A    between atoms: C_12  and  C_13
REMARK    8  A    between atoms: C_13  and  N_14
REMARK    9  A    between atoms: C_20  and  C_21
REMARK   10  A    between atoms: C_22  and  C_23
REMARK   11  A    between atoms: C_26  and  C_27
REMARK   12  A    between atoms: C_27  and  O_28
REMARK                            x       y       z     vdW  Elec       q    Type
REMARK                         _______ _______ _______ _____ _____    ______ ____
ROOT
ATOM      1  N   UNL     1       2.237   6.415  19.564  0.00  0.00    +0.000 NA
ATOM      2  C   UNL     1       2.777   6.269  18.386  0.00  0.00    +0.000 C 
ATOM      3  C   UNL     1       3.477   7.371  17.617  0.00  0.00    +0.000 C 
ENDROOT
BRANCH   1   4
ATOM      4  O   UNL     1       2.238   7.763  19.971  0.00  0.00    +0.000 OA
BRANCH   4   8
ATOM      5  C   UNL     1       0.698  10.971  21.283  0.00  0.00    +0.000 C 
ATOM      6  C   UNL     1       0.435   9.670  22.003  0.00  0.00    +0.000 C 
ATOM      7  C   UNL     1       0.545   8.464  21.424  0.00  0.00    +0.000 C 
ATOM      8  C   UNL     1       0.909   8.305  19.973  0.00  0.00    +0.000 C 
ATOM      9  C   UNL     1       0.768   9.664  19.240  0.00  0.00    +0.000 C 
ATOM     10  O   UNL     1       1.311  10.758  20.001  0.00  0.00    +0.000 OA
BRANCH   5  11
ATOM     11  C   UNL     1      -0.585  11.833  21.203  0.00  0.00    +0.000 C 
BRANCH  11  13
ATOM     12  C   UNL     1      -1.057  13.436  23.096  0.00  0.00    +0.000 C 
ATOM     13  C   UNL     1      -1.147  12.217  22.547  0.00  0.00    +0.000 C 
ENDBRANCH  11  13
ENDBRANCH   5  11
BRANCH   9  14
ATOM     14  C   UNL     1       1.440   9.676  17.864  0.00  0.00    +0.000 C 
BRANCH  14  15
ATOM     15  O   UNL     1       2.049  10.932  17.583  0.00  0.00    +0.000 OA
ATOM     16  H   UNL     1       2.896  10.921  18.076  0.00  0.00    +0.000 HD
ENDBRANCH  14  15
ENDBRANCH   9  14
ENDBRANCH   4   8
ENDBRANCH   1   4
BRANCH   2  17
ATOM     17  C   UNL     1       2.632   4.901  17.727  0.00  0.00    +0.000 C 
BRANCH  17  18
ATOM     18  C   UNL     1       3.689   3.885  18.150  0.00  0.00    +0.000 C 
BRANCH  18  19
ATOM     19  N   UNL     1       5.049   4.394  17.982  0.00  0.00    +0.000 N 
ATOM     20  C   UNL     1       5.883   4.573  19.171  0.00  0.00    +0.000 C 
ATOM     21  C   UNL     1       6.717   5.837  19.029  0.00  0.00    +0.000 C 
ATOM     22  C   UNL     1       7.638   5.704  17.825  0.00  0.00    +0.000 C 
ATOM     23  C   UNL     1       6.914   5.180  16.608  0.00  0.00    +0.000 A 
ATOM     24  N   UNL     1       7.571   5.355  15.431  0.00  0.00    +0.000 NA
ATOM     25  C   UNL     1       6.992   4.897  14.297  0.00  0.00    +0.000 A 
ATOM     26  C   UNL     1       7.762   5.132  13.032  0.00  0.00    +0.000 C 
ATOM     27  C   UNL     1       5.756   4.255  14.306  0.00  0.00    +0.000 A 
ATOM     28  C   UNL     1       5.091   3.699  13.080  0.00  0.00    +0.000 C 
ATOM     29  C   UNL     1       5.104   4.100  15.544  0.00  0.00    +0.000 A 
ATOM     30  C   UNL     1       5.669   4.545  16.741  0.00  0.00    +0.000 A 
ENDBRANCH  18  19
ENDBRANCH  17  18
ENDBRANCH   2  17
TORSDOF 9
ENDMDL
MODEL 7
REMARK VINA RESULT:      -7.3      2.494      9.005
REMARK  Name = 
REMARK  12 active torsions:
REMARK  status: ('A' for Active; 'I' for Inactive)
REMARK    1  A    between atoms: C_2  and  C_3
REMARK    2  A    between atoms: C_3  and  C_4
REMARK    3  A    between atoms: C_7  and  O_8
REMARK    4  A    between atoms: O_8  and  N_9
REMARK    5  A    between atoms: C_10  and  C_11
REMARK    6  A    between atoms: C_10  and  C_12
REMARK    7  A    between atoms: C_12  and  C_13
REMARK    8  A    between atoms: C_13  and  N_14
REMARK    9  A    between atoms: C_20  and  C_21
REMARK   10  A    between atoms: C_22  and  C_23
REMARK   11  A    between atoms: C_26  and  C_27
REMARK   12  A    between atoms: C_27  and  O_28
REMARK                            x       y       z     vdW  Elec       q    Type
REMARK                         _______ _______ _______ _____ _____    ______ ____
ROOT
ATOM      1  N   UNL     1       2.016   6.955  18.610  0.00  0.00    +0.000 NA
ATOM      2  C   UNL     1       2.326   5.716  18.881  0.00  0.00    +0.000 C 
ATOM      3  C   UNL     1       2.451   5.147  20.280  0.00  0.00    +0.000 C 
ENDROOT
BRANCH   1   4
ATOM      4  O   UNL     1       1.969   7.743  19.775  0.00  0.00    +0.000 OA
BRANCH   4   8
ATOM      5  C   UNL     1      -0.985   9.891  18.749  0.00  0.00    +0.000 C 
ATOM      6  C   UNL     1       0.058   9.520  17.722  0.00  0.00    +0.000 C 
ATOM      7  C   UNL     1       1.313   9.160  18.033  0.00  0.00    +0.000 C 
ATOM      8  C   UNL     1       1.807   9.133  19.454  0.00  0.00    +0.000 C 
ATOM      9  C   UNL     1       0.819   9.895  20.373  0.00  0.00    +0.000 C 
ATOM     10  O   UNL     1      -0.555   9.578  20.085  0.00  0.00    +0.000 OA
BRANCH   5  11
ATOM     11  C   UNL     1      -1.426  11.366  18.588  0.00  0.00    +0.000 C 
BRANCH  11  13
ATOM     12  C   UNL     1      -3.819  11.580  17.810  0.00  0.00    +0.000 C 
ATOM     13  C   UNL     1      -2.503  11.570  17.555  0.00  0.00    +0.000 C 
ENDBRANCH  11  13
ENDBRANCH   5  11
BRANCH   9  14
ATOM     14  C   UNL     1       1.055   9.626  21.862  0.00  0.00    +0.000 C 
BRANCH  14  15
ATOM     15  O   UNL     1       1.829   8.450  22.071  0.00  0.00    +0.000 OA
ATOM     16  H   UNL     1       2.521   8.711  22.715  0.00  0.00    +0.000 HD
ENDBRANCH  14  15
ENDBRANCH   9  14
ENDBRANCH   4   8
ENDBRANCH   1   4
BRANCH   2  17
ATOM     17  C   UNL     1       2.638   4.809  17.695  0.00  0.00    +0.000 C 
BRANCH  17  18
ATOM     18  C   UNL     1       3.734   3.782  17.962  0.00  0.00    +0.000 C 
BRANCH  18  19
ATOM     19  N   UNL     1       5.074   4.347  17.820  0.00  0.00    +0.000 N 
ATOM     20  C   UNL     1       5.874   4.571  19.025  0.00  0.00    +0.000 C 
ATOM     21  C   UNL     1       6.656   5.869  18.891  0.00  0.00    +0.000 C 
ATOM     22  C   UNL     1       7.608   5.766  17.708  0.00  0.00    +0.000 C 
ATOM     23  C   UNL     1       6.934   5.203  16.480  0.00  0.00    +0.000 A 
ATOM     24  N   UNL     1       7.609   5.397  15.316  0.00  0.00    +0.000 NA
ATOM     25  C   UNL     1       7.075   4.907  14.174  0.00  0.00    +0.000 A 
ATOM     26  C   UNL     1       7.863   5.166  12.923  0.00  0.00    +0.000 C 
ATOM     27  C   UNL     1       5.868   4.212  14.161  0.00  0.00    +0.000 A 
ATOM     28  C   UNL     1       5.255   3.620  12.925  0.00  0.00    +0.000 C 
ATOM     29  C   UNL     1       5.196   4.038  15.386  0.00  0.00    +0.000 A 
ATOM     30  C   UNL     1       5.715   4.516  16.592  0.00  0.00    +0.000 A 
ENDBRANCH  18  19
ENDBRANCH  17  18
ENDBRANCH   2  17
TORSDOF 9
ENDMDL
MODEL 8
REMARK VINA RESULT:      -7.3      3.122      9.333
REMARK  Name = 
REMARK  12 active torsions:
REMARK  status: ('A' for Active; 'I' for Inactive)
REMARK    1  A    between atoms: C_2  and  C_3
REMARK    2  A    between atoms: C_3  and  C_4
REMARK    3  A    between atoms: C_7  and  O_8
REMARK    4  A    between atoms: O_8  and  N_9
REMARK    5  A    between atoms: C_10  and  C_11
REMARK    6  A    between atoms: C_10  and  C_12
REMARK    7  A    between atoms: C_12  and  C_13
REMARK    8  A    between atoms: C_13  and  N_14
REMARK    9  A    between atoms: C_20  and  C_21
REMARK   10  A    between atoms: C_22  and  C_23
REMARK   11  A    between atoms: C_26  and  C_27
REMARK   12  A    between atoms: C_27  and  O_28
REMARK                            x       y       z     vdW  Elec       q    Type
REMARK                         _______ _______ _______ _____ _____    ______ ____
ROOT
ATOM      1  N   UNL     1       0.661   9.712  19.999  0.00  0.00    +0.000 NA
ATOM      2  C   UNL     1       0.544   9.010  21.093  0.00  0.00    +0.000 C 
ATOM      3  C   UNL     1      -0.317   9.402  22.277  0.00  0.00    +0.000 C 
ENDROOT
BRANCH   1   4
ATOM      4  O   UNL     1       0.020  10.959  20.111  0.00  0.00    +0.000 OA
BRANCH   4   8
ATOM      5  C   UNL     1      -3.308  10.984  18.291  0.00  0.00    +0.000 C 
ATOM      6  C   UNL     1      -2.223  10.033  17.846  0.00  0.00    +0.000 C 
ATOM      7  C   UNL     1      -0.919  10.221  18.100  0.00  0.00    +0.000 C 
ATOM      8  C   UNL     1      -0.414  11.437  18.829  0.00  0.00    +0.000 C 
ATOM      9  C   UNL     1      -1.524  12.518  18.887  0.00  0.00    +0.000 C 
ATOM     10  O   UNL     1      -2.812  11.965  19.217  0.00  0.00    +0.000 OA
BRANCH   5  11
ATOM     11  C   UNL     1      -4.031  11.613  17.076  0.00  0.00    +0.000 C 
BRANCH  11  13
ATOM     12  C   UNL     1      -6.220  11.341  18.305  0.00  0.00    +0.000 C 
ATOM     13  C   UNL     1      -5.534  11.588  17.181  0.00  0.00    +0.000 C 
ENDBRANCH  11  13
ENDBRANCH   5  11
BRANCH   9  14
ATOM     14  C   UNL     1      -1.225  13.632  19.895  0.00  0.00    +0.000 C 
BRANCH  14  15
ATOM     15  O   UNL     1      -2.332  14.514  20.053  0.00  0.00    +0.000 OA
ATOM     16  H   UNL     1      -2.162  14.988  20.894  0.00  0.00    +0.000 HD
ENDBRANCH  14  15
ENDBRANCH   9  14
ENDBRANCH   4   8
ENDBRANCH   1   4
BRANCH   2  17
ATOM     17  C   UNL     1       1.384   7.741  21.191  0.00  0.00    +0.000 C 
BRANCH  17  18
ATOM     18  C   UNL     1       2.207   7.435  19.944  0.00  0.00    +0.000 C 
BRANCH  18  19
ATOM     19  N   UNL     1       2.394   6.000  19.739  0.00  0.00    +0.000 N 
ATOM     20  C   UNL     1       1.540   5.068  20.475  0.00  0.00    +0.000 C 
ATOM     21  C   UNL     1       2.352   3.856  20.908  0.00  0.00    +0.000 C 
ATOM     22  C   UNL     1       2.881   3.136  19.676  0.00  0.00    +0.000 C 
ATOM     23  C   UNL     1       3.489   4.088  18.675  0.00  0.00    +0.000 A 
ATOM     24  N   UNL     1       4.273   3.503  17.731  0.00  0.00    +0.000 NA
ATOM     25  C   UNL     1       4.840   4.290  16.788  0.00  0.00    +0.000 A 
ATOM     26  C   UNL     1       5.703   3.586  15.783  0.00  0.00    +0.000 C 
ATOM     27  C   UNL     1       4.641   5.669  16.759  0.00  0.00    +0.000 A 
ATOM     28  C   UNL     1       5.220   6.578  15.714  0.00  0.00    +0.000 C 
ATOM     29  C   UNL     1       3.829   6.237  17.759  0.00  0.00    +0.000 A 
ATOM     30  C   UNL     1       3.212   5.462  18.744  0.00  0.00    +0.000 A 
ENDBRANCH  18  19
ENDBRANCH  17  18
ENDBRANCH   2  17
TORSDOF 9
ENDMDL
MODEL 9
REMARK VINA RESULT:      -7.3      2.946      8.908
REMARK  Name = 
REMARK  12 active torsions:
REMARK  status: ('A' for Active; 'I' for Inactive)
REMARK    1  A    between atoms: C_2  and  C_3
REMARK    2  A    between atoms: C_3  and  C_4
REMARK    3  A    between atoms: C_7  and  O_8
REMARK    4  A    between atoms: O_8  and  N_9
REMARK    5  A    between atoms: C_10  and  C_11
REMARK    6  A    between atoms: C_10  and  C_12
REMARK    7  A    between atoms: C_12  and  C_13
REMARK    8  A    between atoms: C_13  and  N_14
REMARK    9  A    between atoms: C_20  and  C_21
REMARK   10  A    between atoms: C_22  and  C_23
REMARK   11  A    between atoms: C_26  and  C_27
REMARK   12  A    between atoms: C_27  and  O_28
REMARK                            x       y       z     vdW  Elec       q    Type
REMARK                         _______ _______ _______ _____ _____    ______ ____
ROOT
ATOM      1  N   UNL     1       2.805   5.873  18.645  0.00  0.00    +0.000 NA
ATOM      2  C   UNL     1       2.364   4.721  18.220  0.00  0.00    +0.000 C 
ATOM      3  C   UNL     1       1.069   4.523  17.459  0.00  0.00    +0.000 C 
ENDROOT
BRANCH   1   4
ATOM      4  O   UNL     1       1.856   6.894  18.454  0.00  0.00    +0.000 OA
BRANCH   4   8
ATOM      5  C   UNL     1       0.341  10.358  18.766  0.00  0.00    +0.000 C 
ATOM      6  C   UNL     1       1.472  10.124  17.793  0.00  0.00    +0.000 C 
ATOM      7  C   UNL     1       2.347   9.112  17.898  0.00  0.00    +0.000 C 
ATOM      8  C   UNL     1       2.298   8.129  19.036  0.00  0.00    +0.000 C 
ATOM      9  C   UNL     1       1.385   8.672  20.166  0.00  0.00    +0.000 C 
ATOM     10  O   UNL     1       0.166   9.244  19.658  0.00  0.00    +0.000 OA
BRANCH   5  11
ATOM     11  C   UNL     1       0.514  11.704  19.508  0.00  0.00    +0.000 C 
BRANCH  11  13
ATOM     12  C   UNL     1      -0.389  12.856  21.566  0.00  0.00    +0.000 C 
ATOM     13  C   UNL     1      -0.496  11.930  20.603  0.00  0.00    +0.000 C 
ENDBRANCH  11  13
ENDBRANCH   5  11
BRANCH   9  14
ATOM     14  C   UNL     1       1.003   7.603  21.195  0.00  0.00    +0.000 C 
BRANCH  14  15
ATOM     15  O   UNL     1       1.961   6.551  21.246  0.00  0.00    +0.000 OA
ATOM     16  H   UNL     1       1.894   6.189  22.154  0.00  0.00    +0.000 HD
ENDBRANCH  14  15
ENDBRANCH   9  14
ENDBRANCH   4   8
ENDBRANCH   1   4
BRANCH   2  17
ATOM     17  C   UNL     1       3.195   3.491  18.575  0.00  0.00    +0.000 C 
BRANCH  17  18
ATOM     18  C   UNL     1       4.182   3.066  17.493  0.00  0.00    +0.000 C 
BRANCH  18  19
ATOM     19  N   UNL     1       5.338   3.957  17.412  0.00  0.00    +0.000 N 
ATOM     20  C   UNL     1       5.991   4.375  18.653  0.00  0.00    +0.000 C 
ATOM     21  C   UNL     1       6.420   5.831  18.545  0.00  0.00    +0.000 C 
ATOM     22  C   UNL     1       7.425   5.979  17.412  0.00  0.00    +0.000 C 
ATOM     23  C   UNL     1       6.982   5.266  16.158  0.00  0.00    +0.000 A 
ATOM     24  N   UNL     1       7.642   5.630  15.027  0.00  0.00    +0.000 NA
ATOM     25  C   UNL     1       7.311   5.023  13.864  0.00  0.00    +0.000 A 
ATOM     26  C   UNL     1       8.068   5.478  12.652  0.00  0.00    +0.000 C 
ATOM     27  C   UNL     1       6.324   4.041  13.798  0.00  0.00    +0.000 A 
ATOM     28  C   UNL     1       5.947   3.315  12.540  0.00  0.00    +0.000 C 
ATOM     29  C   UNL     1       5.658   3.697  14.991  0.00  0.00    +0.000 A 
ATOM     30  C   UNL     1       5.976   4.288  16.215  0.00  0.00    +0.000 A 
ENDBRANCH  18  19
ENDBRANCH  17  18
ENDBRANCH   2  17
TORSDOF 9
ENDMDL
