MODEL 1
REMARK VINA RESULT:      -8.9      0.000      0.000
REMARK  Name = 
REMARK  8 active torsions:
REMARK  status: ('A' for Active; 'I' for Inactive)
REMARK    1  A    between atoms: C_1  and  C_2
REMARK    2  A    between atoms: C_2  and  C_3
REMARK    3  A    between atoms: C_3  and  O_4
REMARK    4  A    between atoms: C_3  and  C_5
REMARK    5  A    between atoms: C_3  and  C_8
REMARK    6  A    between atoms: C_5  and  O_7
REMARK    7  A    between atoms: C_14  and  C_15
REMARK    8  A    between atoms: C_15  and  O_16
REMARK                            x       y       z     vdW  Elec       q    Type
REMARK                         _______ _______ _______ _____ _____    ______ ____
ROOT
ATOM      1  C   UNL     1       3.611   4.339  19.007  0.00  0.00    +0.000 A 
ATOM      2  C   UNL     1       2.739   5.259  19.785  0.00  0.00    +0.000 A 
ATOM      3  C   UNL     1       2.561   6.522  19.379  0.00  0.00    +0.000 A 
ATOM      4  N   UNL     1       3.138   6.962  18.206  0.00  0.00    +0.000 N 
ATOM      5  C   UNL     1       3.915   6.204  17.393  0.00  0.00    +0.000 A 
ATOM      6  O   UNL     1       4.363   6.635  16.333  0.00  0.00    +0.000 OA
ATOM      7  C   UNL     1       4.212   4.805  17.877  0.00  0.00    +0.000 A 
ATOM      8  C   UNL     1       2.821   8.356  17.916  0.00  0.00    +0.000 C 
ATOM      9  C   UNL     1       1.987   8.740  19.089  0.00  0.00    +0.000 A 
ATOM     10  C   UNL     1       1.401   9.949  19.393  0.00  0.00    +0.000 A 
ATOM     11  C   UNL     1       0.658  10.027  20.576  0.00  0.00    +0.000 A 
ATOM     12  C   UNL     1       0.028  11.227  20.941  0.00  0.00    +0.000 A 
ATOM     13  C   UNL     1      -0.718  11.303  22.114  0.00  0.00    +0.000 A 
ATOM     14  C   UNL     1      -0.828  10.179  22.927  0.00  0.00    +0.000 A 
ATOM     15  C   UNL     1      -0.197   8.983  22.565  0.00  0.00    +0.000 A 
ATOM     16  C   UNL     1       0.551   8.867  21.400  0.00  0.00    +0.000 A 
ATOM     17  N   UNL     1       1.134   7.684  21.096  0.00  0.00    +0.000 NA
ATOM     18  C   UNL     1       1.824   7.657  19.950  0.00  0.00    +0.000 A 
ENDROOT
BRANCH   1  19
ATOM     19  C   UNL     1       3.763   2.916  19.587  0.00  0.00    +0.000 C 
BRANCH  19  21
ATOM     20  C   UNL     1       1.542   2.515  20.882  0.00  0.00    +0.000 C 
ATOM     21  C   UNL     1       3.054   2.754  20.960  0.00  0.00    +0.000 C 
ENDBRANCH  19  21
BRANCH  19  22
ATOM     22  O   UNL     1       5.162   2.609  19.776  0.00  0.00    +0.000 OA
ATOM     23  H   UNL     1       5.292   1.657  19.595  0.00  0.00    +0.000 HD
ENDBRANCH  19  22
BRANCH  19  24
ATOM     24  C   UNL     1       3.247   1.896  18.495  0.00  0.00    +0.000 C 
ATOM     25  O   UNL     1       2.287   2.080  17.777  0.00  0.00    +0.000 OA
BRANCH  24  26
ATOM     26  O   UNL     1       3.962   0.733  18.444  0.00  0.00    +0.000 OA
ATOM     27  H   UNL     1       4.849   0.757  18.866  0.00  0.00    +0.000 HD
ENDBRANCH  24  26
ENDBRANCH  19  24
ENDBRANCH   1  19
BRANCH   7  28
ATOM     28  C   UNL     1       5.246   4.129  17.008  0.00  0.00    +0.000 C 
BRANCH  28  29
ATOM     29  O   UNL     1       6.520   4.130  17.639  0.00  0.00    +0.000 OA
ATOM     30  H   UNL     1       7.132   4.452  16.947  0.00  0.00    +0.000 HD
ENDBRANCH  28  29
ENDBRANCH   7  28
TORSDOF 7
ENDMDL
MODEL 2
REMARK VINA RESULT:      -8.4      1.702      3.752
REMARK  Name = 
REMARK  8 active torsions:
REMARK  status: ('A' for Active; 'I' for Inactive)
REMARK    1  A    between atoms: C_1  and  C_2
REMARK    2  A    between atoms: C_2  and  C_3
REMARK    3  A    between atoms: C_3  and  O_4
REMARK    4  A    between atoms: C_3  and  C_5
REMARK    5  A    between atoms: C_3  and  C_8
REMARK    6  A    between atoms: C_5  and  O_7
REMARK    7  A    between atoms: C_14  and  C_15
REMARK    8  A    between atoms: C_15  and  O_16
REMARK                            x       y       z     vdW  Elec       q    Type
REMARK                         _______ _______ _______ _____ _____    ______ ____
ROOT
ATOM      1  C   UNL     1       4.441   4.646  18.232  0.00  0.00    +0.000 A 
ATOM      2  C   UNL     1       3.872   6.019  18.294  0.00  0.00    +0.000 A 
ATOM      3  C   UNL     1       2.931   6.317  19.198  0.00  0.00    +0.000 A 
ATOM      4  N   UNL     1       2.525   5.371  20.116  0.00  0.00    +0.000 N 
ATOM      5  C   UNL     1       3.002   4.103  20.184  0.00  0.00    +0.000 A 
ATOM      6  O   UNL     1       2.639   3.317  21.056  0.00  0.00    +0.000 OA
ATOM      7  C   UNL     1       3.993   3.710  19.115  0.00  0.00    +0.000 A 
ATOM      8  C   UNL     1       1.508   5.880  21.029  0.00  0.00    +0.000 C 
ATOM      9  C   UNL     1       1.310   7.272  20.538  0.00  0.00    +0.000 A 
ATOM     10  C   UNL     1       0.456   8.252  20.993  0.00  0.00    +0.000 A 
ATOM     11  C   UNL     1       0.483   9.487  20.337  0.00  0.00    +0.000 A 
ATOM     12  C   UNL     1      -0.356  10.532  20.756  0.00  0.00    +0.000 A 
ATOM     13  C   UNL     1      -0.325  11.764  20.108  0.00  0.00    +0.000 A 
ATOM     14  C   UNL     1       0.543  11.949  19.035  0.00  0.00    +0.000 A 
ATOM     15  C   UNL     1       1.376  10.906  18.615  0.00  0.00    +0.000 A 
ATOM     16  C   UNL     1       1.378   9.665  19.240  0.00  0.00    +0.000 A 
ATOM     17  N   UNL     1       2.210   8.695  18.795  0.00  0.00    +0.000 NA
ATOM     18  C   UNL     1       2.155   7.536  19.462  0.00  0.00    +0.000 A 
ENDROOT
BRANCH   1  19
ATOM     19  C   UNL     1       5.498   4.412  17.131  0.00  0.00    +0.000 C 
BRANCH  19  21
ATOM     20  C   UNL     1       5.636   4.777  14.558  0.00  0.00    +0.000 C 
ATOM     21  C   UNL     1       5.334   5.387  15.931  0.00  0.00    +0.000 C 
ENDBRANCH  19  21
BRANCH  19  22
ATOM     22  O   UNL     1       5.388   3.066  16.621  0.00  0.00    +0.000 OA
ATOM     23  H   UNL     1       5.324   3.113  15.647  0.00  0.00    +0.000 HD
ENDBRANCH  19  22
BRANCH  19  24
ATOM     24  C   UNL     1       6.923   4.494  17.810  0.00  0.00    +0.000 C 
ATOM     25  O   UNL     1       7.125   4.850  18.952  0.00  0.00    +0.000 OA
BRANCH  24  26
ATOM     26  O   UNL     1       7.953   4.163  16.976  0.00  0.00    +0.000 OA
ATOM     27  H   UNL     1       7.806   3.375  16.408  0.00  0.00    +0.000 HD
ENDBRANCH  24  26
ENDBRANCH  19  24
ENDBRANCH   1  19
BRANCH   7  28
ATOM     28  C   UNL     1       4.296   2.232  19.161  0.00  0.00    +0.000 C 
BRANCH  28  29
ATOM     29  O   UNL     1       5.225   1.934  20.195  0.00  0.00    +0.000 OA
ATOM     30  H   UNL     1       5.606   1.070  19.937  0.00  0.00    +0.000 HD
ENDBRANCH  28  29
ENDBRANCH   7  28
TORSDOF 7
ENDMDL
MODEL 3
REMARK VINA RESULT:      -7.9      1.527      3.828
REMARK  Name = 
REMARK  8 active torsions:
REMARK  status: ('A' for Active; 'I' for Inactive)
REMARK    1  A    between atoms: C_1  and  C_2
REMARK    2  A    between atoms: C_2  and  C_3
REMARK    3  A    between atoms: C_3  and  O_4
REMARK    4  A    between atoms: C_3  and  C_5
REMARK    5  A    between atoms: C_3  and  C_8
REMARK    6  A    between atoms: C_5  and  O_7
REMARK    7  A    between atoms: C_14  and  C_15
REMARK    8  A    between atoms: C_15  and  O_16
REMARK                            x       y       z     vdW  Elec       q    Type
REMARK                         _______ _______ _______ _____ _____    ______ ____
ROOT
ATOM      1  C   UNL     1       4.468   4.938  17.965  0.00  0.00    +0.000 A 
ATOM      2  C   UNL     1       3.854   6.285  18.115  0.00  0.00    +0.000 A 
ATOM      3  C   UNL     1       2.936   6.504  19.063  0.00  0.00    +0.000 A 
ATOM      4  N   UNL     1       2.595   5.500  19.946  0.00  0.00    +0.000 N 
ATOM      5  C   UNL     1       3.118   4.249  19.934  0.00  0.00    +0.000 A 
ATOM      6  O   UNL     1       2.813   3.408  20.777  0.00  0.00    +0.000 OA
ATOM      7  C   UNL     1       4.084   3.945  18.814  0.00  0.00    +0.000 A 
ATOM      8  C   UNL     1       1.594   5.926  20.917  0.00  0.00    +0.000 C 
ATOM      9  C   UNL     1       1.331   7.333  20.503  0.00  0.00    +0.000 A 
ATOM     10  C   UNL     1       0.460   8.257  21.035  0.00  0.00    +0.000 A 
ATOM     11  C   UNL     1       0.421   9.523  20.441  0.00  0.00    +0.000 A 
ATOM     12  C   UNL     1      -0.439  10.515  20.939  0.00  0.00    +0.000 A 
ATOM     13  C   UNL     1      -0.473  11.777  20.353  0.00  0.00    +0.000 A 
ATOM     14  C   UNL     1       0.349  12.046  19.263  0.00  0.00    +0.000 A 
ATOM     15  C   UNL     1       1.203  11.057  18.763  0.00  0.00    +0.000 A 
ATOM     16  C   UNL     1       1.270   9.787  19.325  0.00  0.00    +0.000 A 
ATOM     17  N   UNL     1       2.119   8.871  18.804  0.00  0.00    +0.000 NA
ATOM     18  C   UNL     1       2.127   7.680  19.414  0.00  0.00    +0.000 A 
ENDROOT
BRANCH   1  19
ATOM     19  C   UNL     1       5.493   4.797  16.819  0.00  0.00    +0.000 C 
BRANCH  19  21
ATOM     20  C   UNL     1       5.888   3.815  14.442  0.00  0.00    +0.000 C 
ATOM     21  C   UNL     1       4.993   3.858  15.685  0.00  0.00    +0.000 C 
ENDBRANCH  19  21
BRANCH  19  22
ATOM     22  O   UNL     1       6.728   4.249  17.329  0.00  0.00    +0.000 OA
ATOM     23  H   UNL     1       7.462   4.588  16.780  0.00  0.00    +0.000 HD
ENDBRANCH  19  22
BRANCH  19  24
ATOM     24  C   UNL     1       5.849   6.251  16.313  0.00  0.00    +0.000 C 
ATOM     25  O   UNL     1       5.186   6.890  15.524  0.00  0.00    +0.000 OA
BRANCH  24  26
ATOM     26  O   UNL     1       7.023   6.738  16.813  0.00  0.00    +0.000 OA
ATOM     27  H   UNL     1       7.097   7.717  16.855  0.00  0.00    +0.000 HD
ENDBRANCH  24  26
ENDBRANCH  19  24
ENDBRANCH   1  19
BRANCH   7  28
ATOM     28  C   UNL     1       4.439   2.478  18.776  0.00  0.00    +0.000 C 
BRANCH  28  29
ATOM     29  O   UNL     1       5.160   2.097  19.941  0.00  0.00    +0.000 OA
ATOM     30  H   UNL     1       5.816   1.448  19.619  0.00  0.00    +0.000 HD
ENDBRANCH  28  29
ENDBRANCH   7  28
TORSDOF 7
ENDMDL
MODEL 4
REMARK VINA RESULT:      -7.8      0.960      1.336
REMARK  Name = 
REMARK  8 active torsions:
REMARK  status: ('A' for Active; 'I' for Inactive)
REMARK    1  A    between atoms: C_1  and  C_2
REMARK    2  A    between atoms: C_2  and  C_3
REMARK    3  A    between atoms: C_3  and  O_4
REMARK    4  A    between atoms: C_3  and  C_5
REMARK    5  A    between atoms: C_3  and  C_8
REMARK    6  A    between atoms: C_5  and  O_7
REMARK    7  A    between atoms: C_14  and  C_15
REMARK    8  A    between atoms: C_15  and  O_16
REMARK                            x       y       z     vdW  Elec       q    Type
REMARK                         _______ _______ _______ _____ _____    ______ ____
ROOT
ATOM      1  C   UNL     1       2.960   4.242  19.265  0.00  0.00    +0.000 A 
ATOM      2  C   UNL     1       2.169   5.252  20.019  0.00  0.00    +0.000 A 
ATOM      3  C   UNL     1       2.152   6.529  19.619  0.00  0.00    +0.000 A 
ATOM      4  N   UNL     1       2.820   6.906  18.472  0.00  0.00    +0.000 N 
ATOM      5  C   UNL     1       3.536   6.068  17.682  0.00  0.00    +0.000 A 
ATOM      6  O   UNL     1       4.070   6.451  16.643  0.00  0.00    +0.000 OA
ATOM      7  C   UNL     1       3.653   4.642  18.162  0.00  0.00    +0.000 A 
ATOM      8  C   UNL     1       2.677   8.328  18.185  0.00  0.00    +0.000 C 
ATOM      9  C   UNL     1       1.847   8.800  19.329  0.00  0.00    +0.000 A 
ATOM     10  C   UNL     1       1.393  10.066  19.624  0.00  0.00    +0.000 A 
ATOM     11  C   UNL     1       0.619  10.222  20.779  0.00  0.00    +0.000 A 
ATOM     12  C   UNL     1       0.117  11.485  21.131  0.00  0.00    +0.000 A 
ATOM     13  C   UNL     1      -0.660  11.639  22.276  0.00  0.00    +0.000 A 
ATOM     14  C   UNL     1      -0.928  10.531  23.074  0.00  0.00    +0.000 A 
ATOM     15  C   UNL     1      -0.425   9.273  22.725  0.00  0.00    +0.000 A 
ATOM     16  C   UNL     1       0.348   9.077  21.586  0.00  0.00    +0.000 A 
ATOM     17  N   UNL     1       0.804   7.837  21.294  0.00  0.00    +0.000 NA
ATOM     18  C   UNL     1       1.529   7.738  20.174  0.00  0.00    +0.000 A 
ENDROOT
BRANCH   1  19
ATOM     19  C   UNL     1       2.926   2.808  19.836  0.00  0.00    +0.000 C 
BRANCH  19  21
ATOM     20  C   UNL     1       0.603   2.383  18.744  0.00  0.00    +0.000 C 
ATOM     21  C   UNL     1       2.018   1.858  19.005  0.00  0.00    +0.000 C 
ENDBRANCH  19  21
BRANCH  19  22
ATOM     22  O   UNL     1       2.419   2.827  21.188  0.00  0.00    +0.000 OA
ATOM     23  H   UNL     1       1.862   3.623  21.293  0.00  0.00    +0.000 HD
ENDBRANCH  19  22
BRANCH  19  24
ATOM     24  C   UNL     1       4.419   2.302  19.949  0.00  0.00    +0.000 C 
ATOM     25  O   UNL     1       5.311   2.901  20.510  0.00  0.00    +0.000 OA
BRANCH  24  26
ATOM     26  O   UNL     1       4.650   1.116  19.310  0.00  0.00    +0.000 OA
ATOM     27  H   UNL     1       5.440   1.092  18.725  0.00  0.00    +0.000 HD
ENDBRANCH  24  26
ENDBRANCH  19  24
ENDBRANCH   1  19
BRANCH   7  28
ATOM     28  C   UNL     1       4.634   3.857  17.326  0.00  0.00    +0.000 C 
BRANCH  28  29
ATOM     29  O   UNL     1       5.974   4.172  17.683  0.00  0.00    +0.000 OA
ATOM     30  H   UNL     1       6.303   3.365  18.126  0.00  0.00    +0.000 HD
ENDBRANCH  28  29
ENDBRANCH   7  28
TORSDOF 7
ENDMDL
MODEL 5
REMARK VINA RESULT:      -7.7      1.277      1.742
REMARK  Name = 
REMARK  8 active torsions:
REMARK  status: ('A' for Active; 'I' for Inactive)
REMARK    1  A    between atoms: C_1  and  C_2
REMARK    2  A    between atoms: C_2  and  C_3
REMARK    3  A    between atoms: C_3  and  O_4
REMARK    4  A    between atoms: C_3  and  C_5
REMARK    5  A    between atoms: C_3  and  C_8
REMARK    6  A    between atoms: C_5  and  O_7
REMARK    7  A    between atoms: C_14  and  C_15
REMARK    8  A    between atoms: C_15  and  O_16
REMARK                            x       y       z     vdW  Elec       q    Type
REMARK                         _______ _______ _______ _____ _____    ______ ____
ROOT
ATOM      1  C   UNL     1       2.887   4.314  19.419  0.00  0.00    +0.000 A 
ATOM      2  C   UNL     1       2.094   5.342  20.146  0.00  0.00    +0.000 A 
ATOM      3  C   UNL     1       2.082   6.610  19.717  0.00  0.00    +0.000 A 
ATOM      4  N   UNL     1       2.757   6.961  18.567  0.00  0.00    +0.000 N 
ATOM      5  C   UNL     1       3.476   6.104  17.799  0.00  0.00    +0.000 A 
ATOM      6  O   UNL     1       4.017   6.462  16.755  0.00  0.00    +0.000 OA
ATOM      7  C   UNL     1       3.587   4.688  18.312  0.00  0.00    +0.000 A 
ATOM      8  C   UNL     1       2.618   8.376  18.247  0.00  0.00    +0.000 C 
ATOM      9  C   UNL     1       1.783   8.874  19.376  0.00  0.00    +0.000 A 
ATOM     10  C   UNL     1       1.329  10.147  19.639  0.00  0.00    +0.000 A 
ATOM     11  C   UNL     1       0.549  10.330  20.786  0.00  0.00    +0.000 A 
ATOM     12  C   UNL     1       0.047  11.602  21.107  0.00  0.00    +0.000 A 
ATOM     13  C   UNL     1      -0.736  11.783  22.244  0.00  0.00    +0.000 A 
ATOM     14  C   UNL     1      -1.011  10.693  23.064  0.00  0.00    +0.000 A 
ATOM     15  C   UNL     1      -0.508   9.427  22.746  0.00  0.00    +0.000 A 
ATOM     16  C   UNL     1       0.271   9.204  21.617  0.00  0.00    +0.000 A 
ATOM     17  N   UNL     1       0.726   7.957  21.354  0.00  0.00    +0.000 NA
ATOM     18  C   UNL     1       1.458   7.832  20.241  0.00  0.00    +0.000 A 
ENDROOT
BRANCH   1  19
ATOM     19  C   UNL     1       2.847   2.893  20.021  0.00  0.00    +0.000 C 
BRANCH  19  21
ATOM     20  C   UNL     1       4.857   1.240  20.070  0.00  0.00    +0.000 C 
ATOM     21  C   UNL     1       4.198   2.485  20.674  0.00  0.00    +0.000 C 
ENDBRANCH  19  21
BRANCH  19  22
ATOM     22  O   UNL     1       2.550   1.929  18.988  0.00  0.00    +0.000 OA
ATOM     23  H   UNL     1       2.456   1.051  19.408  0.00  0.00    +0.000 HD
ENDBRANCH  19  22
BRANCH  19  24
ATOM     24  C   UNL     1       1.627   2.831  21.025  0.00  0.00    +0.000 C 
ATOM     25  O   UNL     1       1.727   2.729  22.229  0.00  0.00    +0.000 OA
BRANCH  24  26
ATOM     26  O   UNL     1       0.406   2.861  20.412  0.00  0.00    +0.000 OA
ATOM     27  H   UNL     1      -0.352   3.118  20.981  0.00  0.00    +0.000 HD
ENDBRANCH  24  26
ENDBRANCH  19  24
ENDBRANCH   1  19
BRANCH   7  28
ATOM     28  C   UNL     1       4.572   3.883  17.499  0.00  0.00    +0.000 C 
BRANCH  28  29
ATOM     29  O   UNL     1       5.908   4.147  17.910  0.00  0.00    +0.000 OA
ATOM     30  H   UNL     1       6.112   3.431  18.543  0.00  0.00    +0.000 HD
ENDBRANCH  28  29
ENDBRANCH   7  28
TORSDOF 7
ENDMDL
MODEL 6
REMARK VINA RESULT:      -7.5      1.081      1.444
REMARK  Name = 
REMARK  8 active torsions:
REMARK  status: ('A' for Active; 'I' for Inactive)
REMARK    1  A    between atoms: C_1  and  C_2
REMARK    2  A    between atoms: C_2  and  C_3
REMARK    3  A    between atoms: C_3  and  O_4
REMARK    4  A    between atoms: C_3  and  C_5
REMARK    5  A    between atoms: C_3  and  C_8
REMARK    6  A    between atoms: C_5  and  O_7
REMARK    7  A    between atoms: C_14  and  C_15
REMARK    8  A    between atoms: C_15  and  O_16
REMARK                            x       y       z     vdW  Elec       q    Type
REMARK                         _______ _______ _______ _____ _____    ______ ____
ROOT
ATOM      1  C   UNL     1       3.175   4.784  19.110  0.00  0.00    +0.000 A 
ATOM      2  C   UNL     1       2.318   5.924  19.535  0.00  0.00    +0.000 A 
ATOM      3  C   UNL     1       2.425   7.110  18.925  0.00  0.00    +0.000 A 
ATOM      4  N   UNL     1       3.288   7.268  17.860  0.00  0.00    +0.000 N 
ATOM      5  C   UNL     1       4.085   6.293  17.358  0.00  0.00    +0.000 A 
ATOM      6  O   UNL     1       4.798   6.477  16.374  0.00  0.00    +0.000 OA
ATOM      7  C   UNL     1       4.056   4.971  18.088  0.00  0.00    +0.000 A 
ATOM      8  C   UNL     1       3.258   8.619  17.313  0.00  0.00    +0.000 C 
ATOM      9  C   UNL     1       2.275   9.299  18.202  0.00  0.00    +0.000 A 
ATOM     10  C   UNL     1       1.837  10.604  18.194  0.00  0.00    +0.000 A 
ATOM     11  C   UNL     1       0.892  10.974  19.158  0.00  0.00    +0.000 A 
ATOM     12  C   UNL     1       0.397  12.287  19.198  0.00  0.00    +0.000 A 
ATOM     13  C   UNL     1      -0.549  12.654  20.152  0.00  0.00    +0.000 A 
ATOM     14  C   UNL     1      -0.994  11.708  21.071  0.00  0.00    +0.000 A 
ATOM     15  C   UNL     1      -0.498  10.400  21.032  0.00  0.00    +0.000 A 
ATOM     16  C   UNL     1       0.441   9.995  20.092  0.00  0.00    +0.000 A 
ATOM     17  N   UNL     1       0.882   8.715  20.098  0.00  0.00    +0.000 NA
ATOM     18  C   UNL     1       1.775   8.408  19.150  0.00  0.00    +0.000 A 
ENDROOT
BRANCH   1  19
ATOM     19  C   UNL     1       2.983   3.474  19.904  0.00  0.00    +0.000 C 
BRANCH  19  21
ATOM     20  C   UNL     1       1.692   2.377  21.879  0.00  0.00    +0.000 C 
ATOM     21  C   UNL     1       2.117   3.672  21.180  0.00  0.00    +0.000 C 
ENDBRANCH  19  21
BRANCH  19  22
ATOM     22  O   UNL     1       4.266   2.958  20.321  0.00  0.00    +0.000 OA
ATOM     23  H   UNL     1       4.735   2.629  19.529  0.00  0.00    +0.000 HD
ENDBRANCH  19  22
BRANCH  19  24
ATOM     24  C   UNL     1       2.392   2.394  18.912  0.00  0.00    +0.000 C 
ATOM     25  O   UNL     1       2.964   1.380  18.575  0.00  0.00    +0.000 OA
BRANCH  24  26
ATOM     26  O   UNL     1       1.163   2.719  18.412  0.00  0.00    +0.000 OA
ATOM     27  H   UNL     1       1.044   2.578  17.447  0.00  0.00    +0.000 HD
ENDBRANCH  24  26
ENDBRANCH  19  24
ENDBRANCH   1  19
BRANCH   7  28
ATOM     28  C   UNL     1       5.125   4.035  17.577  0.00  0.00    +0.000 C 
BRANCH  28  29
ATOM     29  O   UNL     1       6.240   4.006  18.459  0.00  0.00    +0.000 OA
ATOM     30  H   UNL     1       6.396   3.054  18.620  0.00  0.00    +0.000 HD
ENDBRANCH  28  29
ENDBRANCH   7  28
TORSDOF 7
ENDMDL
MODEL 7
REMARK VINA RESULT:      -7.5      4.047      8.378
REMARK  Name = 
REMARK  8 active torsions:
REMARK  status: ('A' for Active; 'I' for Inactive)
REMARK    1  A    between atoms: C_1  and  C_2
REMARK    2  A    between atoms: C_2  and  C_3
REMARK    3  A    between atoms: C_3  and  O_4
REMARK    4  A    between atoms: C_3  and  C_5
REMARK    5  A    between atoms: C_3  and  C_8
REMARK    6  A    between atoms: C_5  and  O_7
REMARK    7  A    between atoms: C_14  and  C_15
REMARK    8  A    between atoms: C_15  and  O_16
REMARK                            x       y       z     vdW  Elec       q    Type
REMARK                         _______ _______ _______ _____ _____    ______ ____
ROOT
ATOM      1  C   UNL     1       0.318  10.963  19.773  0.00  0.00    +0.000 A 
ATOM      2  C   UNL     1       1.218  10.101  18.962  0.00  0.00    +0.000 A 
ATOM      3  C   UNL     1       1.527   8.868  19.382  0.00  0.00    +0.000 A 
ATOM      4  N   UNL     1       0.967   8.367  20.539  0.00  0.00    +0.000 N 
ATOM      5  C   UNL     1       0.102   9.043  21.336  0.00  0.00    +0.000 A 
ATOM      6  O   UNL     1      -0.405   8.529  22.330  0.00  0.00    +0.000 OA
ATOM      7  C   UNL     1      -0.188  10.471  20.938  0.00  0.00    +0.000 A 
ATOM      8  C   UNL     1       1.405   7.008  20.829  0.00  0.00    +0.000 C 
ATOM      9  C   UNL     1       2.344   6.732  19.705  0.00  0.00    +0.000 A 
ATOM     10  C   UNL     1       3.092   5.607  19.440  0.00  0.00    +0.000 A 
ATOM     11  C   UNL     1       3.896   5.621  18.295  0.00  0.00    +0.000 A 
ATOM     12  C   UNL     1       4.677   4.503  17.962  0.00  0.00    +0.000 A 
ATOM     13  C   UNL     1       5.472   4.514  16.819  0.00  0.00    +0.000 A 
ATOM     14  C   UNL     1       5.492   5.648  16.012  0.00  0.00    +0.000 A 
ATOM     15  C   UNL     1       4.717   6.764  16.346  0.00  0.00    +0.000 A 
ATOM     16  C   UNL     1       3.906   6.789  17.475  0.00  0.00    +0.000 A 
ATOM     17  N   UNL     1       3.173   7.893  17.746  0.00  0.00    +0.000 NA
ATOM     18  C   UNL     1       2.412   7.826  18.844  0.00  0.00    +0.000 A 
ENDROOT
BRANCH   1  19
ATOM     19  C   UNL     1       0.055  12.374  19.203  0.00  0.00    +0.000 C 
BRANCH  19  21
ATOM     20  C   UNL     1       2.355  13.590  19.155  0.00  0.00    +0.000 C 
ATOM     21  C   UNL     1       1.244  12.904  18.353  0.00  0.00    +0.000 C 
ENDBRANCH  19  21
BRANCH  19  22
ATOM     22  O   UNL     1      -0.163  13.308  20.283  0.00  0.00    +0.000 OA
ATOM     23  H   UNL     1       0.659  13.366  20.807  0.00  0.00    +0.000 HD
ENDBRANCH  19  22
BRANCH  19  24
ATOM     24  C   UNL     1      -1.308  12.322  18.404  0.00  0.00    +0.000 C 
ATOM     25  O   UNL     1      -2.377  12.008  18.881  0.00  0.00    +0.000 OA
BRANCH  24  26
ATOM     26  O   UNL     1      -1.182  12.628  17.078  0.00  0.00    +0.000 OA
ATOM     27  H   UNL     1      -1.767  13.344  16.747  0.00  0.00    +0.000 HD
ENDBRANCH  24  26
ENDBRANCH  19  24
ENDBRANCH   1  19
BRANCH   7  28
ATOM     28  C   UNL     1      -0.990  11.186  21.999  0.00  0.00    +0.000 C 
BRANCH  28  29
ATOM     29  O   UNL     1      -0.374  11.058  23.275  0.00  0.00    +0.000 OA
ATOM     30  H   UNL     1       0.271  10.332  23.160  0.00  0.00    +0.000 HD
ENDBRANCH  28  29
ENDBRANCH   7  28
TORSDOF 7
ENDMDL
MODEL 8
REMARK VINA RESULT:      -7.4      3.924      8.372
REMARK  Name = 
REMARK  8 active torsions:
REMARK  status: ('A' for Active; 'I' for Inactive)
REMARK    1  A    between atoms: C_1  and  C_2
REMARK    2  A    between atoms: C_2  and  C_3
REMARK    3  A    between atoms: C_3  and  O_4
REMARK    4  A    between atoms: C_3  and  C_5
REMARK    5  A    between atoms: C_3  and  C_8
REMARK    6  A    between atoms: C_5  and  O_7
REMARK    7  A    between atoms: C_14  and  C_15
REMARK    8  A    between atoms: C_15  and  O_16
REMARK                            x       y       z     vdW  Elec       q    Type
REMARK                         _______ _______ _______ _____ _____    ______ ____
ROOT
ATOM      1  C   UNL     1       0.483  10.897  19.648  0.00  0.00    +0.000 A 
ATOM      2  C   UNL     1       1.383  10.024  18.848  0.00  0.00    +0.000 A 
ATOM      3  C   UNL     1       1.667   8.785  19.268  0.00  0.00    +0.000 A 
ATOM      4  N   UNL     1       1.081   8.288  20.413  0.00  0.00    +0.000 N 
ATOM      5  C   UNL     1       0.213   8.974  21.199  0.00  0.00    +0.000 A 
ATOM      6  O   UNL     1      -0.318   8.463  22.182  0.00  0.00    +0.000 OA
ATOM      7  C   UNL     1      -0.049  10.407  20.803  0.00  0.00    +0.000 A 
ATOM      8  C   UNL     1       1.493   6.921  20.704  0.00  0.00    +0.000 C 
ATOM      9  C   UNL     1       2.446   6.636  19.595  0.00  0.00    +0.000 A 
ATOM     10  C   UNL     1       3.182   5.500  19.337  0.00  0.00    +0.000 A 
ATOM     11  C   UNL     1       4.005   5.508  18.205  0.00  0.00    +0.000 A 
ATOM     12  C   UNL     1       4.774   4.379  17.880  0.00  0.00    +0.000 A 
ATOM     13  C   UNL     1       5.588   4.383  16.751  0.00  0.00    +0.000 A 
ATOM     14  C   UNL     1       5.638   5.520  15.949  0.00  0.00    +0.000 A 
ATOM     15  C   UNL     1       4.875   6.646  16.276  0.00  0.00    +0.000 A 
ATOM     16  C   UNL     1       4.046   6.678  17.391  0.00  0.00    +0.000 A 
ATOM     17  N   UNL     1       3.325   7.793  17.655  0.00  0.00    +0.000 NA
ATOM     18  C   UNL     1       2.545   7.732  18.740  0.00  0.00    +0.000 A 
ENDROOT
BRANCH   1  19
ATOM     19  C   UNL     1       0.251  12.314  19.081  0.00  0.00    +0.000 C 
BRANCH  19  21
ATOM     20  C   UNL     1      -1.883  11.576  17.787  0.00  0.00    +0.000 C 
ATOM     21  C   UNL     1      -1.243  12.584  18.747  0.00  0.00    +0.000 C 
ENDBRANCH  19  21
BRANCH  19  22
ATOM     22  O   UNL     1       1.010  12.488  17.865  0.00  0.00    +0.000 OA
ATOM     23  H   UNL     1       1.659  13.204  18.010  0.00  0.00    +0.000 HD
ENDBRANCH  19  22
BRANCH  19  24
ATOM     24  C   UNL     1       0.856  13.348  20.112  0.00  0.00    +0.000 C 
ATOM     25  O   UNL     1       0.262  14.307  20.558  0.00  0.00    +0.000 OA
BRANCH  24  26
ATOM     26  O   UNL     1       2.157  13.099  20.445  0.00  0.00    +0.000 OA
ATOM     27  H   UNL     1       2.833  13.468  19.835  0.00  0.00    +0.000 HD
ENDBRANCH  24  26
ENDBRANCH  19  24
ENDBRANCH   1  19
BRANCH   7  28
ATOM     28  C   UNL     1      -0.857  11.130  21.854  0.00  0.00    +0.000 C 
BRANCH  28  29
ATOM     29  O   UNL     1      -0.255  11.003  23.136  0.00  0.00    +0.000 OA
ATOM     30  H   UNL     1       0.297  10.198  23.065  0.00  0.00    +0.000 HD
ENDBRANCH  28  29
ENDBRANCH   7  28
TORSDOF 7
ENDMDL
MODEL 9
REMARK VINA RESULT:      -7.2      3.812      7.603
REMARK  Name = 
REMARK  8 active torsions:
REMARK  status: ('A' for Active; 'I' for Inactive)
REMARK    1  A    between atoms: C_1  and  C_2
REMARK    2  A    between atoms: C_2  and  C_3
REMARK    3  A    between atoms: C_3  and  O_4
REMARK    4  A    between atoms: C_3  and  C_5
REMARK    5  A    between atoms: C_3  and  C_8
REMARK    6  A    between atoms: C_5  and  O_7
REMARK    7  A    between atoms: C_14  and  C_15
REMARK    8  A    between atoms: C_15  and  O_16
REMARK                            x       y       z     vdW  Elec       q    Type
REMARK                         _______ _______ _______ _____ _____    ______ ____
ROOT
ATOM      1  C   UNL     1       0.505  10.644  20.515  0.00  0.00    +0.000 A 
ATOM      2  C   UNL     1       0.854   9.222  20.778  0.00  0.00    +0.000 A 
ATOM      3  C   UNL     1       1.533   8.516  19.866  0.00  0.00    +0.000 A 
ATOM      4  N   UNL     1       1.964   9.117  18.702  0.00  0.00    +0.000 N 
ATOM      5  C   UNL     1       1.743  10.415  18.373  0.00  0.00    +0.000 A 
ATOM      6  O   UNL     1       2.195  10.911  17.343  0.00  0.00    +0.000 OA
ATOM      7  C   UNL     1       0.897  11.209  19.339  0.00  0.00    +0.000 A 
ATOM      8  C   UNL     1       2.699   8.201  17.839  0.00  0.00    +0.000 C 
ATOM      9  C   UNL     1       2.646   6.928  18.612  0.00  0.00    +0.000 A 
ATOM     10  C   UNL     1       3.154   5.687  18.299  0.00  0.00    +0.000 A 
ATOM     11  C   UNL     1       2.957   4.657  19.225  0.00  0.00    +0.000 A 
ATOM     12  C   UNL     1       3.458   3.370  18.971  0.00  0.00    +0.000 A 
ATOM     13  C   UNL     1       3.269   2.346  19.895  0.00  0.00    +0.000 A 
ATOM     14  C   UNL     1       2.571   2.607  21.070  0.00  0.00    +0.000 A 
ATOM     15  C   UNL     1       2.068   3.889  21.321  0.00  0.00    +0.000 A 
ATOM     16  C   UNL     1       2.242   4.938  20.427  0.00  0.00    +0.000 A 
ATOM     17  N   UNL     1       1.740   6.159  20.724  0.00  0.00    +0.000 NA
ATOM     18  C   UNL     1       1.964   7.113  19.813  0.00  0.00    +0.000 A 
ENDROOT
BRANCH   1  19
ATOM     19  C   UNL     1      -0.304  11.349  21.626  0.00  0.00    +0.000 C 
BRANCH  19  21
ATOM     20  C   UNL     1      -2.075  13.236  21.352  0.00  0.00    +0.000 C 
ATOM     21  C   UNL     1      -1.729  11.755  21.158  0.00  0.00    +0.000 C 
ENDBRANCH  19  21
BRANCH  19  22
ATOM     22  O   UNL     1       0.380  12.550  22.045  0.00  0.00    +0.000 OA
ATOM     23  H   UNL     1      -0.014  12.846  22.889  0.00  0.00    +0.000 HD
ENDBRANCH  19  22
BRANCH  19  24
ATOM     24  C   UNL     1      -0.310  10.399  22.890  0.00  0.00    +0.000 C 
ATOM     25  O   UNL     1       0.681   9.925  23.403  0.00  0.00    +0.000 OA
BRANCH  24  26
ATOM     26  O   UNL     1      -1.561  10.107  23.355  0.00  0.00    +0.000 OA
ATOM     27  H   UNL     1      -1.598   9.536  24.153  0.00  0.00    +0.000 HD
ENDBRANCH  24  26
ENDBRANCH  19  24
ENDBRANCH   1  19
BRANCH   7  28
ATOM     28  C   UNL     1       0.544  12.565  18.776  0.00  0.00    +0.000 C 
BRANCH  28  29
ATOM     29  O   UNL     1      -0.448  12.453  17.763  0.00  0.00    +0.000 OA
ATOM     30  H   UNL     1      -0.900  13.320  17.770  0.00  0.00    +0.000 HD
ENDBRANCH  28  29
ENDBRANCH   7  28
TORSDOF 7
ENDMDL
