MODEL 1
REMARK VINA RESULT:      -8.0      0.000      0.000
REMARK  Name = 
REMARK  5 active torsions:
REMARK  status: ('A' for Active; 'I' for Inactive)
REMARK    1  A    between atoms: C_1  and  C_2
REMARK    2  A    between atoms: C_2  and  N_3
REMARK    3  A    between atoms: C_2  and  C_18
REMARK    4  A    between atoms: C_4  and  C_6
REMARK    5  A    between atoms: C_6  and  N_7
REMARK                            x       y       z     vdW  Elec       q    Type
REMARK                         _______ _______ _______ _____ _____    ______ ____
ROOT
ATOM      1  N   UNL     1       3.928   5.092  19.211  0.00  0.00    +0.000 N 
ATOM      2  C   UNL     1       5.295   5.143  19.167  0.00  0.00    +0.000 C 
ATOM      3  O   UNL     1       5.930   4.636  20.094  0.00  0.00    +0.000 OA
ATOM      4  H   UNL     1       3.566   4.629  20.036  0.00  0.00    +0.000 HD
ENDROOT
BRANCH   1   6
ATOM      5  C   UNL     1       1.925   4.696  17.847  0.00  0.00    +0.000 C 
ATOM      6  C   UNL     1       2.978   5.707  18.293  0.00  0.00    +0.000 C 
BRANCH   6   7
ATOM      7  C   UNL     1       2.420   7.010  18.815  0.00  0.00    +0.000 A 
ATOM      8  C   UNL     1       2.048   7.082  20.172  0.00  0.00    +0.000 A 
ATOM      9  C   UNL     1       1.414   8.213  20.682  0.00  0.00    +0.000 A 
ATOM     10  C   UNL     1       1.154   9.290  19.842  0.00  0.00    +0.000 A 
ATOM     11 CL   UNL     1       0.329  10.667  20.459  0.00  0.00    +0.000 Cl
ATOM     12  C   UNL     1       1.542   9.253  18.504  0.00  0.00    +0.000 A 
ATOM     13  C   UNL     1       2.178   8.119  17.991  0.00  0.00    +0.000 A 
ENDBRANCH   6   7
ENDBRANCH   1   6
BRANCH   2  14
ATOM     14  C   UNL     1       5.998   5.855  18.008  0.00  0.00    +0.000 C 
BRANCH  14  15
ATOM     15  N   UNL     1       6.167   5.083  16.780  0.00  0.00    +0.000 N 
ATOM     16  N   UNL     1       5.340   4.017  16.583  0.00  0.00    +0.000 NA
ATOM     17  N   UNL     1       5.091   3.576  15.445  0.00  0.00    +0.000 NA
ATOM     18  C   UNL     1       5.869   3.996  14.367  0.00  0.00    +0.000 A 
ATOM     19  C   UNL     1       5.615   3.449  13.106  0.00  0.00    +0.000 A 
ATOM     20  C   UNL     1       6.454   3.730  12.027  0.00  0.00    +0.000 A 
ATOM     21  C   UNL     1       7.542   4.584  12.204  0.00  0.00    +0.000 A 
ATOM     22  C   UNL     1       7.771   5.185  13.444  0.00  0.00    +0.000 A 
ATOM     23  C   UNL     1       6.918   4.891  14.509  0.00  0.00    +0.000 A 
ATOM     24  C   UNL     1       7.021   5.556  15.806  0.00  0.00    +0.000 A 
ATOM     25  O   UNL     1       7.784   6.507  15.946  0.00  0.00    +0.000 OA
ENDBRANCH  14  15
ENDBRANCH   2  14
TORSDOF 4
ENDMDL
MODEL 2
REMARK VINA RESULT:      -7.8      0.174      1.002
REMARK  Name = 
REMARK  5 active torsions:
REMARK  status: ('A' for Active; 'I' for Inactive)
REMARK    1  A    between atoms: C_1  and  C_2
REMARK    2  A    between atoms: C_2  and  N_3
REMARK    3  A    between atoms: C_2  and  C_18
REMARK    4  A    between atoms: C_4  and  C_6
REMARK    5  A    between atoms: C_6  and  N_7
REMARK                            x       y       z     vdW  Elec       q    Type
REMARK                         _______ _______ _______ _____ _____    ______ ____
ROOT
ATOM      1  N   UNL     1       3.839   4.942  19.219  0.00  0.00    +0.000 N 
ATOM      2  C   UNL     1       5.204   5.035  19.186  0.00  0.00    +0.000 C 
ATOM      3  O   UNL     1       5.849   4.527  20.106  0.00  0.00    +0.000 OA
ATOM      4  H   UNL     1       3.486   4.450  20.031  0.00  0.00    +0.000 HD
ENDROOT
BRANCH   1   6
ATOM      5  C   UNL     1       1.876   4.509  17.809  0.00  0.00    +0.000 C 
ATOM      6  C   UNL     1       2.876   5.548  18.309  0.00  0.00    +0.000 C 
BRANCH   6   7
ATOM      7  C   UNL     1       2.254   6.806  18.868  0.00  0.00    +0.000 A 
ATOM      8  C   UNL     1       2.103   7.914  18.012  0.00  0.00    +0.000 A 
ATOM      9  C   UNL     1       1.652   9.140  18.498  0.00  0.00    +0.000 A 
ATOM     10  C   UNL     1       1.336   9.267  19.847  0.00  0.00    +0.000 A 
ATOM     11 CL   UNL     1       0.825  10.790  20.458  0.00  0.00    +0.000 Cl
ATOM     12  C   UNL     1       1.448   8.175  20.705  0.00  0.00    +0.000 A 
ATOM     13  C   UNL     1       1.901   6.945  20.218  0.00  0.00    +0.000 A 
ENDBRANCH   6   7
ENDBRANCH   1   6
BRANCH   2  14
ATOM     14  C   UNL     1       5.892   5.794  18.049  0.00  0.00    +0.000 C 
BRANCH  14  15
ATOM     15  N   UNL     1       6.104   5.051  16.809  0.00  0.00    +0.000 N 
ATOM     16  N   UNL     1       5.294   3.982  16.566  0.00  0.00    +0.000 NA
ATOM     17  N   UNL     1       5.080   3.564  15.411  0.00  0.00    +0.000 NA
ATOM     18  C   UNL     1       5.884   4.015  14.365  0.00  0.00    +0.000 A 
ATOM     19  C   UNL     1       5.671   3.493  13.086  0.00  0.00    +0.000 A 
ATOM     20  C   UNL     1       6.536   3.807  12.037  0.00  0.00    +0.000 A 
ATOM     21  C   UNL     1       7.610   4.668  12.263  0.00  0.00    +0.000 A 
ATOM     22  C   UNL     1       7.799   5.243  13.521  0.00  0.00    +0.000 A 
ATOM     23  C   UNL     1       6.919   4.917  14.556  0.00  0.00    +0.000 A 
ATOM     24  C   UNL     1       6.980   5.554  15.870  0.00  0.00    +0.000 A 
ATOM     25  O   UNL     1       7.728   6.509  16.052  0.00  0.00    +0.000 OA
ENDBRANCH  14  15
ENDBRANCH   2  14
TORSDOF 4
ENDMDL
MODEL 3
REMARK VINA RESULT:      -7.7      1.850      3.125
REMARK  Name = 
REMARK  5 active torsions:
REMARK  status: ('A' for Active; 'I' for Inactive)
REMARK    1  A    between atoms: C_1  and  C_2
REMARK    2  A    between atoms: C_2  and  N_3
REMARK    3  A    between atoms: C_2  and  C_18
REMARK    4  A    between atoms: C_4  and  C_6
REMARK    5  A    between atoms: C_6  and  N_7
REMARK                            x       y       z     vdW  Elec       q    Type
REMARK                         _______ _______ _______ _____ _____    ______ ____
ROOT
ATOM      1  N   UNL     1       1.481   5.829  20.171  0.00  0.00    +0.000 N 
ATOM      2  C   UNL     1       2.034   4.619  20.494  0.00  0.00    +0.000 C 
ATOM      3  O   UNL     1       1.284   3.707  20.849  0.00  0.00    +0.000 OA
ATOM      4  H   UNL     1       0.473   5.851  20.266  0.00  0.00    +0.000 HD
ENDROOT
BRANCH   1   6
ATOM      5  C   UNL     1       2.497   7.109  18.339  0.00  0.00    +0.000 C 
ATOM      6  C   UNL     1       2.169   7.066  19.829  0.00  0.00    +0.000 C 
BRANCH   6   7
ATOM      7  C   UNL     1       1.462   8.293  20.355  0.00  0.00    +0.000 A 
ATOM      8  C   UNL     1       1.181   9.339  19.455  0.00  0.00    +0.000 A 
ATOM      9  C   UNL     1       0.644  10.545  19.902  0.00  0.00    +0.000 A 
ATOM     10  C   UNL     1       0.374  10.714  21.256  0.00  0.00    +0.000 A 
ATOM     11 CL   UNL     1      -0.243  12.217  21.816  0.00  0.00    +0.000 Cl
ATOM     12  C   UNL     1       0.615   9.681  22.159  0.00  0.00    +0.000 A 
ATOM     13  C   UNL     1       1.153   8.470  21.711  0.00  0.00    +0.000 A 
ENDBRANCH   6   7
ENDBRANCH   1   6
BRANCH   2  14
ATOM     14  C   UNL     1       3.553   4.435  20.451  0.00  0.00    +0.000 C 
BRANCH  14  15
ATOM     15  N   UNL     1       4.135   4.148  19.142  0.00  0.00    +0.000 N 
ATOM     16  N   UNL     1       3.311   3.643  18.181  0.00  0.00    +0.000 NA
ATOM     17  N   UNL     1       3.557   3.770  16.965  0.00  0.00    +0.000 NA
ATOM     18  C   UNL     1       4.824   4.198  16.569  0.00  0.00    +0.000 A 
ATOM     19  C   UNL     1       5.103   4.281  15.202  0.00  0.00    +0.000 A 
ATOM     20  C   UNL     1       6.394   4.568  14.758  0.00  0.00    +0.000 A 
ATOM     21  C   UNL     1       7.408   4.798  15.687  0.00  0.00    +0.000 A 
ATOM     22  C   UNL     1       7.128   4.778  17.054  0.00  0.00    +0.000 A 
ATOM     23  C   UNL     1       5.830   4.491  17.477  0.00  0.00    +0.000 A 
ATOM     24  C   UNL     1       5.427   4.555  18.881  0.00  0.00    +0.000 A 
ATOM     25  O   UNL     1       6.200   5.008  19.719  0.00  0.00    +0.000 OA
ENDBRANCH  14  15
ENDBRANCH   2  14
TORSDOF 4
ENDMDL
MODEL 4
REMARK VINA RESULT:      -7.6      3.215      7.391
REMARK  Name = 
REMARK  5 active torsions:
REMARK  status: ('A' for Active; 'I' for Inactive)
REMARK    1  A    between atoms: C_1  and  C_2
REMARK    2  A    between atoms: C_2  and  N_3
REMARK    3  A    between atoms: C_2  and  C_18
REMARK    4  A    between atoms: C_4  and  C_6
REMARK    5  A    between atoms: C_6  and  N_7
REMARK                            x       y       z     vdW  Elec       q    Type
REMARK                         _______ _______ _______ _____ _____    ______ ____
ROOT
ATOM      1  N   UNL     1       5.921   4.218  18.728  0.00  0.00    +0.000 N 
ATOM      2  C   UNL     1       4.753   3.646  19.155  0.00  0.00    +0.000 C 
ATOM      3  O   UNL     1       4.818   2.687  19.926  0.00  0.00    +0.000 OA
ATOM      4  H   UNL     1       6.749   3.772  19.101  0.00  0.00    +0.000 HD
ENDROOT
BRANCH   1   6
ATOM      5  C   UNL     1       7.201   6.239  18.175  0.00  0.00    +0.000 C 
ATOM      6  C   UNL     1       6.092   5.283  17.748  0.00  0.00    +0.000 C 
BRANCH   6   7
ATOM      7  C   UNL     1       6.217   4.762  16.335  0.00  0.00    +0.000 A 
ATOM      8  C   UNL     1       7.357   5.121  15.589  0.00  0.00    +0.000 A 
ATOM      9  C   UNL     1       7.471   4.777  14.244  0.00  0.00    +0.000 A 
ATOM     10  C   UNL     1       6.449   4.059  13.632  0.00  0.00    +0.000 A 
ATOM     11 CL   UNL     1       6.567   3.674  11.960  0.00  0.00    +0.000 Cl
ATOM     12  C   UNL     1       5.327   3.665  14.359  0.00  0.00    +0.000 A 
ATOM     13  C   UNL     1       5.212   4.011  15.709  0.00  0.00    +0.000 A 
ENDBRANCH   6   7
ENDBRANCH   1   6
BRANCH   2  14
ATOM     14  C   UNL     1       3.410   4.173  18.642  0.00  0.00    +0.000 C 
BRANCH  14  15
ATOM     15  N   UNL     1       3.127   5.584  18.896  0.00  0.00    +0.000 N 
ATOM     16  N   UNL     1       3.442   6.478  17.916  0.00  0.00    +0.000 NA
ATOM     17  N   UNL     1       2.875   7.584  17.824  0.00  0.00    +0.000 NA
ATOM     18  C   UNL     1       2.096   8.040  18.888  0.00  0.00    +0.000 A 
ATOM     19  C   UNL     1       1.513   9.307  18.794  0.00  0.00    +0.000 A 
ATOM     20  C   UNL     1       0.843   9.862  19.884  0.00  0.00    +0.000 A 
ATOM     21  C   UNL     1       0.734   9.137  21.069  0.00  0.00    +0.000 A 
ATOM     22  C   UNL     1       1.259   7.846  21.156  0.00  0.00    +0.000 A 
ATOM     23  C   UNL     1       1.923   7.308  20.052  0.00  0.00    +0.000 A 
ATOM     24  C   UNL     1       2.408   5.929  20.020  0.00  0.00    +0.000 A 
ATOM     25  O   UNL     1       2.110   5.155  20.925  0.00  0.00    +0.000 OA
ENDBRANCH  14  15
ENDBRANCH   2  14
TORSDOF 4
ENDMDL
MODEL 5
REMARK VINA RESULT:      -7.6      1.342      1.872
REMARK  Name = 
REMARK  5 active torsions:
REMARK  status: ('A' for Active; 'I' for Inactive)
REMARK    1  A    between atoms: C_1  and  C_2
REMARK    2  A    between atoms: C_2  and  N_3
REMARK    3  A    between atoms: C_2  and  C_18
REMARK    4  A    between atoms: C_4  and  C_6
REMARK    5  A    between atoms: C_6  and  N_7
REMARK                            x       y       z     vdW  Elec       q    Type
REMARK                         _______ _______ _______ _____ _____    ______ ____
ROOT
ATOM      1  N   UNL     1       4.488   5.890  19.748  0.00  0.00    +0.000 N 
ATOM      2  C   UNL     1       5.592   5.186  19.347  0.00  0.00    +0.000 C 
ATOM      3  O   UNL     1       6.676   5.445  19.873  0.00  0.00    +0.000 OA
ATOM      4  H   UNL     1       4.687   6.581  20.461  0.00  0.00    +0.000 HD
ENDROOT
BRANCH   1   6
ATOM      5  C   UNL     1       2.308   4.777  19.928  0.00  0.00    +0.000 C 
ATOM      6  C   UNL     1       3.139   5.830  19.202  0.00  0.00    +0.000 C 
BRANCH   6   7
ATOM      7  C   UNL     1       2.488   7.190  19.102  0.00  0.00    +0.000 A 
ATOM      8  C   UNL     1       1.838   7.704  20.242  0.00  0.00    +0.000 A 
ATOM      9  C   UNL     1       1.114   8.893  20.178  0.00  0.00    +0.000 A 
ATOM     10  C   UNL     1       1.041   9.587  18.975  0.00  0.00    +0.000 A 
ATOM     11 CL   UNL     1       0.109  11.029  18.884  0.00  0.00    +0.000 Cl
ATOM     12  C   UNL     1       1.702   9.113  17.844  0.00  0.00    +0.000 A 
ATOM     13  C   UNL     1       2.429   7.920  17.906  0.00  0.00    +0.000 A 
ENDBRANCH   6   7
ENDBRANCH   1   6
BRANCH   2  14
ATOM     14  C   UNL     1       5.469   4.137  18.238  0.00  0.00    +0.000 C 
BRANCH  14  15
ATOM     15  N   UNL     1       5.826   4.573  16.891  0.00  0.00    +0.000 N 
ATOM     16  N   UNL     1       6.710   5.603  16.773  0.00  0.00    +0.000 NA
ATOM     17  N   UNL     1       7.404   5.765  15.750  0.00  0.00    +0.000 NA
ATOM     18  C   UNL     1       7.088   5.050  14.595  0.00  0.00    +0.000 A 
ATOM     19  C   UNL     1       7.838   5.285  13.438  0.00  0.00    +0.000 A 
ATOM     20  C   UNL     1       7.474   4.700  12.225  0.00  0.00    +0.000 A 
ATOM     21  C   UNL     1       6.367   3.854  12.172  0.00  0.00    +0.000 A 
ATOM     22  C   UNL     1       5.646   3.564  13.332  0.00  0.00    +0.000 A 
ATOM     23  C   UNL     1       6.028   4.158  14.536  0.00  0.00    +0.000 A 
ATOM     24  C   UNL     1       5.398   3.827  15.812  0.00  0.00    +0.000 A 
ATOM     25  O   UNL     1       4.600   2.898  15.877  0.00  0.00    +0.000 OA
ENDBRANCH  14  15
ENDBRANCH   2  14
TORSDOF 4
ENDMDL
MODEL 6
REMARK VINA RESULT:      -7.6      1.353      2.103
REMARK  Name = 
REMARK  5 active torsions:
REMARK  status: ('A' for Active; 'I' for Inactive)
REMARK    1  A    between atoms: C_1  and  C_2
REMARK    2  A    between atoms: C_2  and  N_3
REMARK    3  A    between atoms: C_2  and  C_18
REMARK    4  A    between atoms: C_4  and  C_6
REMARK    5  A    between atoms: C_6  and  N_7
REMARK                            x       y       z     vdW  Elec       q    Type
REMARK                         _______ _______ _______ _____ _____    ______ ____
ROOT
ATOM      1  N   UNL     1       4.639   5.862  19.692  0.00  0.00    +0.000 N 
ATOM      2  C   UNL     1       5.780   5.200  19.327  0.00  0.00    +0.000 C 
ATOM      3  O   UNL     1       6.845   5.533  19.853  0.00  0.00    +0.000 OA
ATOM      4  H   UNL     1       4.795   6.588  20.381  0.00  0.00    +0.000 HD
ENDROOT
BRANCH   1   6
ATOM      5  C   UNL     1       2.553   4.573  19.821  0.00  0.00    +0.000 C 
ATOM      6  C   UNL     1       3.300   5.715  19.137  0.00  0.00    +0.000 C 
BRANCH   6   7
ATOM      7  C   UNL     1       2.543   7.021  19.082  0.00  0.00    +0.000 A 
ATOM      8  C   UNL     1       2.558   7.751  17.877  0.00  0.00    +0.000 A 
ATOM      9  C   UNL     1       1.984   9.019  17.800  0.00  0.00    +0.000 A 
ATOM     10  C   UNL     1       1.380   9.567  18.927  0.00  0.00    +0.000 A 
ATOM     11 CL   UNL     1       0.715  11.150  18.847  0.00  0.00    +0.000 Cl
ATOM     12  C   UNL     1       1.327   8.849  20.120  0.00  0.00    +0.000 A 
ATOM     13  C   UNL     1       1.902   7.577  20.198  0.00  0.00    +0.000 A 
ENDBRANCH   6   7
ENDBRANCH   1   6
BRANCH   2  14
ATOM     14  C   UNL     1       5.722   4.107  18.257  0.00  0.00    +0.000 C 
BRANCH  14  15
ATOM     15  N   UNL     1       5.998   4.527  16.885  0.00  0.00    +0.000 N 
ATOM     16  N   UNL     1       6.891   5.540  16.702  0.00  0.00    +0.000 NA
ATOM     17  N   UNL     1       7.519   5.683  15.634  0.00  0.00    +0.000 NA
ATOM     18  C   UNL     1       7.118   4.965  14.508  0.00  0.00    +0.000 A 
ATOM     19  C   UNL     1       7.795   5.178  13.304  0.00  0.00    +0.000 A 
ATOM     20  C   UNL     1       7.343   4.591  12.122  0.00  0.00    +0.000 A 
ATOM     21  C   UNL     1       6.220   3.764  12.147  0.00  0.00    +0.000 A 
ATOM     22  C   UNL     1       5.571   3.495  13.354  0.00  0.00    +0.000 A 
ATOM     23  C   UNL     1       6.041   4.091  14.525  0.00  0.00    +0.000 A 
ATOM     24  C   UNL     1       5.489   3.781  15.843  0.00  0.00    +0.000 A 
ATOM     25  O   UNL     1       4.681   2.866  15.967  0.00  0.00    +0.000 OA
ENDBRANCH  14  15
ENDBRANCH   2  14
TORSDOF 4
ENDMDL
MODEL 7
REMARK VINA RESULT:      -7.5      1.868      2.498
REMARK  Name = 
REMARK  5 active torsions:
REMARK  status: ('A' for Active; 'I' for Inactive)
REMARK    1  A    between atoms: C_1  and  C_2
REMARK    2  A    between atoms: C_2  and  N_3
REMARK    3  A    between atoms: C_2  and  C_18
REMARK    4  A    between atoms: C_4  and  C_6
REMARK    5  A    between atoms: C_6  and  N_7
REMARK                            x       y       z     vdW  Elec       q    Type
REMARK                         _______ _______ _______ _____ _____    ______ ____
ROOT
ATOM      1  N   UNL     1       5.619   3.744  18.853  0.00  0.00    +0.000 N 
ATOM      2  C   UNL     1       6.516   4.684  18.422  0.00  0.00    +0.000 C 
ATOM      3  O   UNL     1       7.674   4.626  18.843  0.00  0.00    +0.000 OA
ATOM      4  H   UNL     1       6.015   3.075  19.502  0.00  0.00    +0.000 HD
ENDROOT
BRANCH   1   6
ATOM      5  C   UNL     1       3.665   2.259  18.798  0.00  0.00    +0.000 C 
ATOM      6  C   UNL     1       4.191   3.674  18.577  0.00  0.00    +0.000 C 
BRANCH   6   7
ATOM      7  C   UNL     1       3.406   4.756  19.281  0.00  0.00    +0.000 A 
ATOM      8  C   UNL     1       2.691   4.412  20.445  0.00  0.00    +0.000 A 
ATOM      9  C   UNL     1       1.850   5.333  21.068  0.00  0.00    +0.000 A 
ATOM     10  C   UNL     1       1.723   6.613  20.538  0.00  0.00    +0.000 A 
ATOM     11 CL   UNL     1       0.651   7.734  21.277  0.00  0.00    +0.000 Cl
ATOM     12  C   UNL     1       2.446   6.984  19.405  0.00  0.00    +0.000 A 
ATOM     13  C   UNL     1       3.289   6.061  18.779  0.00  0.00    +0.000 A 
ENDBRANCH   6   7
ENDBRANCH   1   6
BRANCH   2  14
ATOM     14  C   UNL     1       6.062   5.797  17.475  0.00  0.00    +0.000 C 
BRANCH  14  15
ATOM     15  N   UNL     1       6.256   5.554  16.048  0.00  0.00    +0.000 N 
ATOM     16  N   UNL     1       7.416   5.994  15.483  0.00  0.00    +0.000 NA
ATOM     17  N   UNL     1       7.879   5.486  14.443  0.00  0.00    +0.000 NA
ATOM     18  C   UNL     1       7.075   4.634  13.686  0.00  0.00    +0.000 A 
ATOM     19  C   UNL     1       7.588   4.117  12.493  0.00  0.00    +0.000 A 
ATOM     20  C   UNL     1       6.777   3.376  11.633  0.00  0.00    +0.000 A 
ATOM     21  C   UNL     1       5.449   3.129  11.980  0.00  0.00    +0.000 A 
ATOM     22  C   UNL     1       4.942   3.588  13.197  0.00  0.00    +0.000 A 
ATOM     23  C   UNL     1       5.772   4.326  14.043  0.00  0.00    +0.000 A 
ATOM     24  C   UNL     1       5.356   4.751  15.379  0.00  0.00    +0.000 A 
ATOM     25  O   UNL     1       4.300   4.340  15.850  0.00  0.00    +0.000 OA
ENDBRANCH  14  15
ENDBRANCH   2  14
TORSDOF 4
ENDMDL
MODEL 8
REMARK VINA RESULT:      -7.2      2.768      6.849
REMARK  Name = 
REMARK  5 active torsions:
REMARK  status: ('A' for Active; 'I' for Inactive)
REMARK    1  A    between atoms: C_1  and  C_2
REMARK    2  A    between atoms: C_2  and  N_3
REMARK    3  A    between atoms: C_2  and  C_18
REMARK    4  A    between atoms: C_4  and  C_6
REMARK    5  A    between atoms: C_6  and  N_7
REMARK                            x       y       z     vdW  Elec       q    Type
REMARK                         _______ _______ _______ _____ _____    ______ ____
ROOT
ATOM      1  N   UNL     1       5.749   5.508  17.007  0.00  0.00    +0.000 N 
ATOM      2  C   UNL     1       5.454   6.831  17.202  0.00  0.00    +0.000 C 
ATOM      3  O   UNL     1       6.305   7.549  17.732  0.00  0.00    +0.000 OA
ATOM      4  H   UNL     1       6.670   5.246  17.336  0.00  0.00    +0.000 HD
ENDROOT
BRANCH   1   6
ATOM      5  C   UNL     1       5.653   3.474  15.636  0.00  0.00    +0.000 C 
ATOM      6  C   UNL     1       4.873   4.460  16.500  0.00  0.00    +0.000 C 
BRANCH   6   7
ATOM      7  C   UNL     1       4.036   3.824  17.585  0.00  0.00    +0.000 A 
ATOM      8  C   UNL     1       2.671   3.592  17.325  0.00  0.00    +0.000 A 
ATOM      9  C   UNL     1       1.820   3.124  18.325  0.00  0.00    +0.000 A 
ATOM     10  C   UNL     1       2.329   2.873  19.595  0.00  0.00    +0.000 A 
ATOM     11 CL   UNL     1       1.272   2.341  20.842  0.00  0.00    +0.000 Cl
ATOM     12  C   UNL     1       3.682   3.065  19.865  0.00  0.00    +0.000 A 
ATOM     13  C   UNL     1       4.537   3.535  18.863  0.00  0.00    +0.000 A 
ENDBRANCH   6   7
ENDBRANCH   1   6
BRANCH   2  14
ATOM     14  C   UNL     1       4.080   7.376  16.804  0.00  0.00    +0.000 C 
BRANCH  14  15
ATOM     15  N   UNL     1       3.088   7.473  17.871  0.00  0.00    +0.000 N 
ATOM     16  N   UNL     1       3.103   6.513  18.839  0.00  0.00    +0.000 NA
ATOM     17  N   UNL     1       2.637   6.715  19.977  0.00  0.00    +0.000 NA
ATOM     18  C   UNL     1       1.843   7.840  20.198  0.00  0.00    +0.000 A 
ATOM     19  C   UNL     1       1.280   8.023  21.464  0.00  0.00    +0.000 A 
ATOM     20  C   UNL     1       0.369   9.054  21.694  0.00  0.00    +0.000 A 
ATOM     21  C   UNL     1       0.036   9.924  20.657  0.00  0.00    +0.000 A 
ATOM     22  C   UNL     1       0.638   9.789  19.404  0.00  0.00    +0.000 A 
ATOM     23  C   UNL     1       1.549   8.752  19.196  0.00  0.00    +0.000 A 
ATOM     24  C   UNL     1       2.303   8.604  17.953  0.00  0.00    +0.000 A 
ATOM     25  O   UNL     1       2.256   9.486  17.101  0.00  0.00    +0.000 OA
ENDBRANCH  14  15
ENDBRANCH   2  14
TORSDOF 4
ENDMDL
MODEL 9
REMARK VINA RESULT:      -7.2      2.985      7.239
REMARK  Name = 
REMARK  5 active torsions:
REMARK  status: ('A' for Active; 'I' for Inactive)
REMARK    1  A    between atoms: C_1  and  C_2
REMARK    2  A    between atoms: C_2  and  N_3
REMARK    3  A    between atoms: C_2  and  C_18
REMARK    4  A    between atoms: C_4  and  C_6
REMARK    5  A    between atoms: C_6  and  N_7
REMARK                            x       y       z     vdW  Elec       q    Type
REMARK                         _______ _______ _______ _____ _____    ______ ____
ROOT
ATOM      1  N   UNL     1       5.427   5.685  16.856  0.00  0.00    +0.000 N 
ATOM      2  C   UNL     1       4.840   6.876  17.191  0.00  0.00    +0.000 C 
ATOM      3  O   UNL     1       5.562   7.797  17.578  0.00  0.00    +0.000 OA
ATOM      4  H   UNL     1       6.433   5.683  16.971  0.00  0.00    +0.000 HD
ENDROOT
BRANCH   1   6
ATOM      5  C   UNL     1       5.756   3.504  15.777  0.00  0.00    +0.000 C 
ATOM      6  C   UNL     1       4.774   4.439  16.477  0.00  0.00    +0.000 C 
BRANCH   6   7
ATOM      7  C   UNL     1       4.007   3.811  17.616  0.00  0.00    +0.000 A 
ATOM      8  C   UNL     1       2.638   3.534  17.428  0.00  0.00    +0.000 A 
ATOM      9  C   UNL     1       1.849   3.070  18.479  0.00  0.00    +0.000 A 
ATOM     10  C   UNL     1       2.424   2.869  19.730  0.00  0.00    +0.000 A 
ATOM     11 CL   UNL     1       1.442   2.344  21.039  0.00  0.00    +0.000 Cl
ATOM     12  C   UNL     1       3.782   3.107  19.930  0.00  0.00    +0.000 A 
ATOM     13  C   UNL     1       4.575   3.571  18.876  0.00  0.00    +0.000 A 
ENDBRANCH   6   7
ENDBRANCH   1   6
BRANCH   2  14
ATOM     14  C   UNL     1       3.318   7.026  17.121  0.00  0.00    +0.000 C 
BRANCH  14  15
ATOM     15  N   UNL     1       2.717   7.978  18.051  0.00  0.00    +0.000 N 
ATOM     16  N   UNL     1       2.399   9.214  17.573  0.00  0.00    +0.000 NA
ATOM     17  N   UNL     1       1.523   9.923  18.106  0.00  0.00    +0.000 NA
ATOM     18  C   UNL     1       1.041   9.576  19.367  0.00  0.00    +0.000 A 
ATOM     19  C   UNL     1       0.101  10.411  19.977  0.00  0.00    +0.000 A 
ATOM     20  C   UNL     1      -0.306  10.183  21.291  0.00  0.00    +0.000 A 
ATOM     21  C   UNL     1       0.212   9.096  21.995  0.00  0.00    +0.000 A 
ATOM     22  C   UNL     1       1.106   8.218  21.377  0.00  0.00    +0.000 A 
ATOM     23  C   UNL     1       1.497   8.465  20.060  0.00  0.00    +0.000 A 
ATOM     24  C   UNL     1       2.342   7.541  19.304  0.00  0.00    +0.000 A 
ATOM     25  O   UNL     1       2.614   6.440  19.772  0.00  0.00    +0.000 OA
ENDBRANCH  14  15
ENDBRANCH   2  14
TORSDOF 4
ENDMDL
