MODEL 1
REMARK VINA RESULT:      -7.3      0.000      0.000
REMARK  Name = 
REMARK  4 active torsions:
REMARK  status: ('A' for Active; 'I' for Inactive)
REMARK    1  A    between atoms: O_1  and  C_2
REMARK    2  A    between atoms: C_6  and  N_7
REMARK    3  A    between atoms: N_10  and  C_11
REMARK    4  A    between atoms: C_11  and  C_12
REMARK                            x       y       z     vdW  Elec       q    Type
REMARK                         _______ _______ _______ _____ _____    ______ ____
ROOT
ATOM      1  N   UNL     1       4.599   5.186  18.375  0.00  0.00    +0.000 N 
ATOM      2  C   UNL     1       4.335   5.060  16.931  0.00  0.00    +0.000 C 
ATOM      3  C   UNL     1       5.170   6.095  16.130  0.00  0.00    +0.000 C 
ATOM      4  N   UNL     1       6.624   6.123  16.437  0.00  0.00    +0.000 NA
ATOM      5  C   UNL     1       6.774   6.277  17.903  0.00  0.00    +0.000 C 
ATOM      6  C   UNL     1       6.031   5.215  18.746  0.00  0.00    +0.000 C 
ENDROOT
BRANCH   1  11
ATOM      7  C   UNL     1       2.306   3.616  20.862  0.00  0.00    +0.000 A 
ATOM      8  N   UNL     1       1.507   4.650  21.186  0.00  0.00    +0.000 NA
ATOM      9  N   UNL     1       1.745   5.841  20.623  0.00  0.00    +0.000 NA
ATOM     10  C   UNL     1       2.767   5.951  19.736  0.00  0.00    +0.000 A 
ATOM     11  C   UNL     1       3.636   4.923  19.345  0.00  0.00    +0.000 A 
ATOM     12  C   UNL     1       3.375   3.695  19.971  0.00  0.00    +0.000 A 
ATOM     13 CL   UNL     1       4.366   2.285  19.770  0.00  0.00    +0.000 Cl
BRANCH   7  14
ATOM     14  O   UNL     1       1.971   2.457  21.499  0.00  0.00    +0.000 OA
ATOM     15  H   UNL     1       1.942   2.750  22.427  0.00  0.00    +0.000 HD
ENDBRANCH   7  14
ENDBRANCH   1  11
BRANCH   4  16
ATOM     16  C   UNL     1       7.272   4.907  15.919  0.00  0.00    +0.000 C 
BRANCH  16  17
ATOM     17  C   UNL     1       7.082   4.672  14.435  0.00  0.00    +0.000 A 
ATOM     18  C   UNL     1       7.823   5.414  13.502  0.00  0.00    +0.000 A 
ATOM     19  C   UNL     1       7.712   5.148  12.137  0.00  0.00    +0.000 A 
ATOM     20  C   UNL     1       6.857   4.143  11.690  0.00  0.00    +0.000 A 
ATOM     21  C   UNL     1       6.099   3.415  12.606  0.00  0.00    +0.000 A 
ATOM     22  C   UNL     1       6.208   3.681  13.972  0.00  0.00    +0.000 A 
ENDBRANCH  16  17
ENDBRANCH   4  16
TORSDOF 4
ENDMDL
MODEL 2
REMARK VINA RESULT:      -7.3      1.079      1.079
REMARK  Name = 
REMARK  4 active torsions:
REMARK  status: ('A' for Active; 'I' for Inactive)
REMARK    1  A    between atoms: O_1  and  C_2
REMARK    2  A    between atoms: C_6  and  N_7
REMARK    3  A    between atoms: N_10  and  C_11
REMARK    4  A    between atoms: C_11  and  C_12
REMARK                            x       y       z     vdW  Elec       q    Type
REMARK                         _______ _______ _______ _____ _____    ______ ____
ROOT
ATOM      1  N   UNL     1       4.225   4.886  18.186  0.00  0.00    +0.000 N 
ATOM      2  C   UNL     1       4.175   5.001  16.719  0.00  0.00    +0.000 C 
ATOM      3  C   UNL     1       5.220   6.032  16.215  0.00  0.00    +0.000 C 
ATOM      4  N   UNL     1       6.605   5.842  16.718  0.00  0.00    +0.000 NA
ATOM      5  C   UNL     1       6.543   5.764  18.196  0.00  0.00    +0.000 C 
ATOM      6  C   UNL     1       5.579   4.689  18.749  0.00  0.00    +0.000 C 
ENDROOT
BRANCH   1  11
ATOM      7  C   UNL     1       1.095   3.469  19.637  0.00  0.00    +0.000 A 
ATOM      8  N   UNL     1       0.814   4.364  20.603  0.00  0.00    +0.000 NA
ATOM      9  N   UNL     1       1.657   5.385  20.791  0.00  0.00    +0.000 NA
ATOM     10  C   UNL     1       2.748   5.488  19.988  0.00  0.00    +0.000 A 
ATOM     11  C   UNL     1       3.104   4.604  18.961  0.00  0.00    +0.000 A 
ATOM     12  C   UNL     1       2.212   3.532  18.806  0.00  0.00    +0.000 A 
ATOM     13 CL   UNL     1       2.469   2.222  17.696  0.00  0.00    +0.000 Cl
BRANCH   7  14
ATOM     14  O   UNL     1       0.169   2.472  19.540  0.00  0.00    +0.000 OA
ATOM     15  H   UNL     1       0.732   1.681  19.598  0.00  0.00    +0.000 HD
ENDBRANCH   7  14
ENDBRANCH   1  11
BRANCH   4  16
ATOM     16  C   UNL     1       7.203   4.643  16.106  0.00  0.00    +0.000 C 
BRANCH  16  17
ATOM     17  C   UNL     1       7.070   4.569  14.600  0.00  0.00    +0.000 A 
ATOM     18  C   UNL     1       7.853   5.397  13.780  0.00  0.00    +0.000 A 
ATOM     19  C   UNL     1       7.793   5.279  12.390  0.00  0.00    +0.000 A 
ATOM     20  C   UNL     1       6.949   4.337  11.807  0.00  0.00    +0.000 A 
ATOM     21  C   UNL     1       6.150   3.525  12.610  0.00  0.00    +0.000 A 
ATOM     22  C   UNL     1       6.207   3.643  14.000  0.00  0.00    +0.000 A 
ENDBRANCH  16  17
ENDBRANCH   4  16
TORSDOF 4
ENDMDL
MODEL 3
REMARK VINA RESULT:      -7.1      0.122      1.061
REMARK  Name = 
REMARK  4 active torsions:
REMARK  status: ('A' for Active; 'I' for Inactive)
REMARK    1  A    between atoms: O_1  and  C_2
REMARK    2  A    between atoms: C_6  and  N_7
REMARK    3  A    between atoms: N_10  and  C_11
REMARK    4  A    between atoms: C_11  and  C_12
REMARK                            x       y       z     vdW  Elec       q    Type
REMARK                         _______ _______ _______ _____ _____    ______ ____
ROOT
ATOM      1  N   UNL     1       4.586   5.197  18.385  0.00  0.00    +0.000 N 
ATOM      2  C   UNL     1       4.313   4.980  16.954  0.00  0.00    +0.000 C 
ATOM      3  C   UNL     1       5.095   6.002  16.087  0.00  0.00    +0.000 C 
ATOM      4  N   UNL     1       6.550   6.107  16.372  0.00  0.00    +0.000 NA
ATOM      5  C   UNL     1       6.709   6.348  17.825  0.00  0.00    +0.000 C 
ATOM      6  C   UNL     1       6.019   5.306  18.735  0.00  0.00    +0.000 C 
ENDROOT
BRANCH   1  11
ATOM      7  C   UNL     1       2.397   3.679  20.995  0.00  0.00    +0.000 A 
ATOM      8  N   UNL     1       1.547   4.690  21.258  0.00  0.00    +0.000 NA
ATOM      9  N   UNL     1       1.717   5.850  20.615  0.00  0.00    +0.000 NA
ATOM     10  C   UNL     1       2.726   5.955  19.712  0.00  0.00    +0.000 A 
ATOM     11  C   UNL     1       3.645   4.950  19.381  0.00  0.00    +0.000 A 
ATOM     12  C   UNL     1       3.454   3.755  20.090  0.00  0.00    +0.000 A 
ATOM     13 CL   UNL     1       4.516   2.387  19.972  0.00  0.00    +0.000 Cl
BRANCH   7  14
ATOM     14  O   UNL     1       2.128   2.549  21.711  0.00  0.00    +0.000 OA
ATOM     15  H   UNL     1       2.864   1.972  21.441  0.00  0.00    +0.000 HD
ENDBRANCH   7  14
ENDBRANCH   1  11
BRANCH   4  16
ATOM     16  C   UNL     1       7.242   4.891  15.914  0.00  0.00    +0.000 C 
BRANCH  16  17
ATOM     17  C   UNL     1       7.113   4.611  14.432  0.00  0.00    +0.000 A 
ATOM     18  C   UNL     1       6.219   3.630  13.973  0.00  0.00    +0.000 A 
ATOM     19  C   UNL     1       6.037   3.421  12.606  0.00  0.00    +0.000 A 
ATOM     20  C   UNL     1       6.747   4.186  11.683  0.00  0.00    +0.000 A 
ATOM     21  C   UNL     1       7.654   5.148  12.127  0.00  0.00    +0.000 A 
ATOM     22  C   UNL     1       7.840   5.356  13.495  0.00  0.00    +0.000 A 
ENDBRANCH  16  17
ENDBRANCH   4  16
TORSDOF 4
ENDMDL
MODEL 4
REMARK VINA RESULT:      -7.0      1.082      1.508
REMARK  Name = 
REMARK  4 active torsions:
REMARK  status: ('A' for Active; 'I' for Inactive)
REMARK    1  A    between atoms: O_1  and  C_2
REMARK    2  A    between atoms: C_6  and  N_7
REMARK    3  A    between atoms: N_10  and  C_11
REMARK    4  A    between atoms: C_11  and  C_12
REMARK                            x       y       z     vdW  Elec       q    Type
REMARK                         _______ _______ _______ _____ _____    ______ ____
ROOT
ATOM      1  N   UNL     1       4.194   4.897  18.140  0.00  0.00    +0.000 N 
ATOM      2  C   UNL     1       4.148   4.929  16.668  0.00  0.00    +0.000 C 
ATOM      3  C   UNL     1       5.155   5.972  16.112  0.00  0.00    +0.000 C 
ATOM      4  N   UNL     1       6.544   5.864  16.630  0.00  0.00    +0.000 NA
ATOM      5  C   UNL     1       6.475   5.865  18.110  0.00  0.00    +0.000 C 
ATOM      6  C   UNL     1       5.550   4.785  18.718  0.00  0.00    +0.000 C 
ENDROOT
BRANCH   1  11
ATOM      7  C   UNL     1       1.084   3.471  19.625  0.00  0.00    +0.000 A 
ATOM      8  N   UNL     1       0.802   4.373  20.583  0.00  0.00    +0.000 NA
ATOM      9  N   UNL     1       1.637   5.403  20.755  0.00  0.00    +0.000 NA
ATOM     10  C   UNL     1       2.722   5.507  19.944  0.00  0.00    +0.000 A 
ATOM     11  C   UNL     1       3.079   4.614  18.924  0.00  0.00    +0.000 A 
ATOM     12  C   UNL     1       2.196   3.533  18.786  0.00  0.00    +0.000 A 
ATOM     13 CL   UNL     1       2.457   2.214  17.689  0.00  0.00    +0.000 Cl
BRANCH   7  14
ATOM     14  O   UNL     1       0.166   2.465  19.545  0.00  0.00    +0.000 OA
ATOM     15  H   UNL     1       0.077   2.212  20.480  0.00  0.00    +0.000 HD
ENDBRANCH   7  14
ENDBRANCH   1  11
BRANCH   4  16
ATOM     16  C   UNL     1       7.191   4.658  16.088  0.00  0.00    +0.000 C 
BRANCH  16  17
ATOM     17  C   UNL     1       7.130   4.532  14.580  0.00  0.00    +0.000 A 
ATOM     18  C   UNL     1       6.276   3.591  13.984  0.00  0.00    +0.000 A 
ATOM     19  C   UNL     1       6.155   3.523  12.595  0.00  0.00    +0.000 A 
ATOM     20  C   UNL     1       6.889   4.390  11.789  0.00  0.00    +0.000 A 
ATOM     21  C   UNL     1       7.758   5.314  12.369  0.00  0.00    +0.000 A 
ATOM     22  C   UNL     1       7.881   5.381  13.758  0.00  0.00    +0.000 A 
ENDBRANCH  16  17
ENDBRANCH   4  16
TORSDOF 4
ENDMDL
MODEL 5
REMARK VINA RESULT:      -6.9      1.574      1.727
REMARK  Name = 
REMARK  4 active torsions:
REMARK  status: ('A' for Active; 'I' for Inactive)
REMARK    1  A    between atoms: O_1  and  C_2
REMARK    2  A    between atoms: C_6  and  N_7
REMARK    3  A    between atoms: N_10  and  C_11
REMARK    4  A    between atoms: C_11  and  C_12
REMARK                            x       y       z     vdW  Elec       q    Type
REMARK                         _______ _______ _______ _____ _____    ______ ____
ROOT
ATOM      1  N   UNL     1       4.565   4.203  18.297  0.00  0.00    +0.000 N 
ATOM      2  C   UNL     1       4.362   4.145  16.839  0.00  0.00    +0.000 C 
ATOM      3  C   UNL     1       4.904   5.431  16.159  0.00  0.00    +0.000 C 
ATOM      4  N   UNL     1       6.294   5.811  16.519  0.00  0.00    +0.000 NA
ATOM      5  C   UNL     1       6.380   5.865  17.997  0.00  0.00    +0.000 C 
ATOM      6  C   UNL     1       5.933   4.573  18.720  0.00  0.00    +0.000 C 
ENDROOT
BRANCH   1  11
ATOM      7  C   UNL     1       1.597   3.075  20.251  0.00  0.00    +0.000 A 
ATOM      8  N   UNL     1       2.177   2.423  21.276  0.00  0.00    +0.000 NA
ATOM      9  N   UNL     1       3.512   2.330  21.299  0.00  0.00    +0.000 NA
ATOM     10  C   UNL     1       4.224   2.913  20.300  0.00  0.00    +0.000 A 
ATOM     11  C   UNL     1       3.694   3.610  19.206  0.00  0.00    +0.000 A 
ATOM     12  C   UNL     1       2.292   3.669  19.200  0.00  0.00    +0.000 A 
ATOM     13 CL   UNL     1       1.365   4.361  17.906  0.00  0.00    +0.000 Cl
BRANCH   7  14
ATOM     14  O   UNL     1       0.235   3.102  20.333  0.00  0.00    +0.000 OA
ATOM     15  H   UNL     1       0.091   2.782  21.241  0.00  0.00    +0.000 HD
ENDBRANCH   7  14
ENDBRANCH   1  11
BRANCH   4  16
ATOM     16  C   UNL     1       7.247   4.860  15.924  0.00  0.00    +0.000 C 
BRANCH  16  17
ATOM     17  C   UNL     1       7.103   4.673  14.428  0.00  0.00    +0.000 A 
ATOM     18  C   UNL     1       7.838   5.476  13.542  0.00  0.00    +0.000 A 
ATOM     19  C   UNL     1       7.771   5.257  12.165  0.00  0.00    +0.000 A 
ATOM     20  C   UNL     1       6.966   4.237  11.660  0.00  0.00    +0.000 A 
ATOM     21  C   UNL     1       6.214   3.448  12.530  0.00  0.00    +0.000 A 
ATOM     22  C   UNL     1       6.279   3.667  13.907  0.00  0.00    +0.000 A 
ENDBRANCH  16  17
ENDBRANCH   4  16
TORSDOF 4
ENDMDL
MODEL 6
REMARK VINA RESULT:      -6.8      1.670      1.897
REMARK  Name = 
REMARK  4 active torsions:
REMARK  status: ('A' for Active; 'I' for Inactive)
REMARK    1  A    between atoms: O_1  and  C_2
REMARK    2  A    between atoms: C_6  and  N_7
REMARK    3  A    between atoms: N_10  and  C_11
REMARK    4  A    between atoms: C_11  and  C_12
REMARK                            x       y       z     vdW  Elec       q    Type
REMARK                         _______ _______ _______ _____ _____    ______ ____
ROOT
ATOM      1  N   UNL     1       4.627   5.398  18.204  0.00  0.00    +0.000 N 
ATOM      2  C   UNL     1       4.386   5.289  16.755  0.00  0.00    +0.000 C 
ATOM      3  C   UNL     1       5.318   6.251  15.972  0.00  0.00    +0.000 C 
ATOM      4  N   UNL     1       6.763   6.165  16.310  0.00  0.00    +0.000 NA
ATOM      5  C   UNL     1       6.892   6.310  17.778  0.00  0.00    +0.000 C 
ATOM      6  C   UNL     1       6.048   5.314  18.606  0.00  0.00    +0.000 C 
ENDROOT
BRANCH   1  11
ATOM      7  C   UNL     1       1.809   5.809  20.611  0.00  0.00    +0.000 A 
ATOM      8  N   UNL     1       1.789   4.606  21.215  0.00  0.00    +0.000 NA
ATOM      9  N   UNL     1       2.660   3.675  20.811  0.00  0.00    +0.000 NA
ATOM     10  C   UNL     1       3.540   3.988  19.824  0.00  0.00    +0.000 A 
ATOM     11  C   UNL     1       3.626   5.216  19.153  0.00  0.00    +0.000 A 
ATOM     12  C   UNL     1       2.683   6.161  19.584  0.00  0.00    +0.000 A 
ATOM     13 CL   UNL     1       2.480   7.720  18.848  0.00  0.00    +0.000 Cl
BRANCH   7  14
ATOM     14  O   UNL     1       0.875   6.674  21.103  0.00  0.00    +0.000 OA
ATOM     15  H   UNL     1       0.502   6.156  21.837  0.00  0.00    +0.000 HD
ENDBRANCH   7  14
ENDBRANCH   1  11
BRANCH   4  16
ATOM     16  C   UNL     1       7.322   4.899  15.808  0.00  0.00    +0.000 C 
BRANCH  16  17
ATOM     17  C   UNL     1       7.091   4.646  14.333  0.00  0.00    +0.000 A 
ATOM     18  C   UNL     1       7.835   5.347  13.371  0.00  0.00    +0.000 A 
ATOM     19  C   UNL     1       7.684   5.062  12.013  0.00  0.00    +0.000 A 
ATOM     20  C   UNL     1       6.786   4.079  11.603  0.00  0.00    +0.000 A 
ATOM     21  C   UNL     1       6.025   3.393  12.549  0.00  0.00    +0.000 A 
ATOM     22  C   UNL     1       6.174   3.678  13.907  0.00  0.00    +0.000 A 
ENDBRANCH  16  17
ENDBRANCH   4  16
TORSDOF 4
ENDMDL
MODEL 7
REMARK VINA RESULT:      -6.8      1.569      2.017
REMARK  Name = 
REMARK  4 active torsions:
REMARK  status: ('A' for Active; 'I' for Inactive)
REMARK    1  A    between atoms: O_1  and  C_2
REMARK    2  A    between atoms: C_6  and  N_7
REMARK    3  A    between atoms: N_10  and  C_11
REMARK    4  A    between atoms: C_11  and  C_12
REMARK                            x       y       z     vdW  Elec       q    Type
REMARK                         _______ _______ _______ _____ _____    ______ ____
ROOT
ATOM      1  N   UNL     1       4.543   4.253  18.242  0.00  0.00    +0.000 N 
ATOM      2  C   UNL     1       4.386   4.106  16.785  0.00  0.00    +0.000 C 
ATOM      3  C   UNL     1       4.878   5.382  16.051  0.00  0.00    +0.000 C 
ATOM      4  N   UNL     1       6.234   5.858  16.426  0.00  0.00    +0.000 NA
ATOM      5  C   UNL     1       6.273   5.994  17.901  0.00  0.00    +0.000 C 
ATOM      6  C   UNL     1       5.875   4.720  18.681  0.00  0.00    +0.000 C 
ENDROOT
BRANCH   1  11
ATOM      7  C   UNL     1       1.589   3.132  20.224  0.00  0.00    +0.000 A 
ATOM      8  N   UNL     1       2.177   2.477  21.242  0.00  0.00    +0.000 NA
ATOM      9  N   UNL     1       3.511   2.381  21.253  0.00  0.00    +0.000 NA
ATOM     10  C   UNL     1       4.216   2.962  20.247  0.00  0.00    +0.000 A 
ATOM     11  C   UNL     1       3.678   3.662  19.159  0.00  0.00    +0.000 A 
ATOM     12  C   UNL     1       2.276   3.724  19.166  0.00  0.00    +0.000 A 
ATOM     13 CL   UNL     1       1.339   4.421  17.882  0.00  0.00    +0.000 Cl
BRANCH   7  14
ATOM     14  O   UNL     1       0.228   3.163  20.318  0.00  0.00    +0.000 OA
ATOM     15  H   UNL     1       0.102   3.121  21.282  0.00  0.00    +0.000 HD
ENDBRANCH   7  14
ENDBRANCH   1  11
BRANCH   4  16
ATOM     16  C   UNL     1       7.254   4.930  15.909  0.00  0.00    +0.000 C 
BRANCH  16  17
ATOM     17  C   UNL     1       7.178   4.673  14.419  0.00  0.00    +0.000 A 
ATOM     18  C   UNL     1       6.343   3.662  13.918  0.00  0.00    +0.000 A 
ATOM     19  C   UNL     1       6.207   3.472  12.542  0.00  0.00    +0.000 A 
ATOM     20  C   UNL     1       6.906   4.287  11.654  0.00  0.00    +0.000 A 
ATOM     21  C   UNL     1       7.755   5.280  12.140  0.00  0.00    +0.000 A 
ATOM     22  C   UNL     1       7.893   5.470  13.516  0.00  0.00    +0.000 A 
ENDBRANCH  16  17
ENDBRANCH   4  16
TORSDOF 4
ENDMDL
MODEL 8
REMARK VINA RESULT:      -6.7      3.787      5.377
REMARK  Name = 
REMARK  4 active torsions:
REMARK  status: ('A' for Active; 'I' for Inactive)
REMARK    1  A    between atoms: O_1  and  C_2
REMARK    2  A    between atoms: C_6  and  N_7
REMARK    3  A    between atoms: N_10  and  C_11
REMARK    4  A    between atoms: C_11  and  C_12
REMARK                            x       y       z     vdW  Elec       q    Type
REMARK                         _______ _______ _______ _____ _____    ______ ____
ROOT
ATOM      1  N   UNL     1       1.902   7.214  19.957  0.00  0.00    +0.000 N 
ATOM      2  C   UNL     1       1.825   5.942  20.697  0.00  0.00    +0.000 C 
ATOM      3  C   UNL     1       1.656   4.749  19.718  0.00  0.00    +0.000 C 
ATOM      4  N   UNL     1       2.632   4.692  18.600  0.00  0.00    +0.000 NA
ATOM      5  C   UNL     1       2.611   6.004  17.914  0.00  0.00    +0.000 C 
ATOM      6  C   UNL     1       2.863   7.222  18.833  0.00  0.00    +0.000 C 
ENDROOT
BRANCH   1  11
ATOM      7  C   UNL     1       0.603  10.676  20.438  0.00  0.00    +0.000 A 
ATOM      8  N   UNL     1       0.634  10.794  21.779  0.00  0.00    +0.000 NA
ATOM      9  N   UNL     1       1.039   9.745  22.503  0.00  0.00    +0.000 NA
ATOM     10  C   UNL     1       1.421   8.613  21.855  0.00  0.00    +0.000 A 
ATOM     11  C   UNL     1       1.421   8.416  20.468  0.00  0.00    +0.000 A 
ATOM     12  C   UNL     1       0.968   9.526  19.740  0.00  0.00    +0.000 A 
ATOM     13 CL   UNL     1       0.749   9.522  18.018  0.00  0.00    +0.000 Cl
BRANCH   7  14
ATOM     14  O   UNL     1       0.170  11.806  19.808  0.00  0.00    +0.000 OA
ATOM     15  H   UNL     1      -0.719  11.535  19.519  0.00  0.00    +0.000 HD
ENDBRANCH   7  14
ENDBRANCH   1  11
BRANCH   4  16
ATOM     16  C   UNL     1       3.965   4.335  19.114  0.00  0.00    +0.000 C 
BRANCH  16  17
ATOM     17  C   UNL     1       5.061   4.316  18.070  0.00  0.00    +0.000 A 
ATOM     18  C   UNL     1       4.802   3.816  16.783  0.00  0.00    +0.000 A 
ATOM     19  C   UNL     1       5.783   3.868  15.792  0.00  0.00    +0.000 A 
ATOM     20  C   UNL     1       7.033   4.415  16.077  0.00  0.00    +0.000 A 
ATOM     21  C   UNL     1       7.309   4.893  17.357  0.00  0.00    +0.000 A 
ATOM     22  C   UNL     1       6.329   4.840  18.350  0.00  0.00    +0.000 A 
ENDBRANCH  16  17
ENDBRANCH   4  16
TORSDOF 4
ENDMDL
MODEL 9
REMARK VINA RESULT:      -6.7      3.763      5.302
REMARK  Name = 
REMARK  4 active torsions:
REMARK  status: ('A' for Active; 'I' for Inactive)
REMARK    1  A    between atoms: O_1  and  C_2
REMARK    2  A    between atoms: C_6  and  N_7
REMARK    3  A    between atoms: N_10  and  C_11
REMARK    4  A    between atoms: C_11  and  C_12
REMARK                            x       y       z     vdW  Elec       q    Type
REMARK                         _______ _______ _______ _____ _____    ______ ____
ROOT
ATOM      1  N   UNL     1       1.915   7.164  19.949  0.00  0.00    +0.000 N 
ATOM      2  C   UNL     1       1.865   5.908  20.716  0.00  0.00    +0.000 C 
ATOM      3  C   UNL     1       1.659   4.696  19.767  0.00  0.00    +0.000 C 
ATOM      4  N   UNL     1       2.593   4.616  18.615  0.00  0.00    +0.000 NA
ATOM      5  C   UNL     1       2.546   5.915  17.904  0.00  0.00    +0.000 C 
ATOM      6  C   UNL     1       2.832   7.150  18.789  0.00  0.00    +0.000 C 
ENDROOT
BRANCH   1  11
ATOM      7  C   UNL     1       0.674  10.650  20.415  0.00  0.00    +0.000 A 
ATOM      8  N   UNL     1       0.704  10.773  21.755  0.00  0.00    +0.000 NA
ATOM      9  N   UNL     1       1.091   9.720  22.483  0.00  0.00    +0.000 NA
ATOM     10  C   UNL     1       1.453   8.579  21.841  0.00  0.00    +0.000 A 
ATOM     11  C   UNL     1       1.454   8.377  20.454  0.00  0.00    +0.000 A 
ATOM     12  C   UNL     1       1.021   9.492  19.721  0.00  0.00    +0.000 A 
ATOM     13 CL   UNL     1       0.805   9.485  17.999  0.00  0.00    +0.000 Cl
BRANCH   7  14
ATOM     14  O   UNL     1       0.262  11.785  19.779  0.00  0.00    +0.000 OA
ATOM     15  H   UNL     1       1.064  12.334  19.829  0.00  0.00    +0.000 HD
ENDBRANCH   7  14
ENDBRANCH   1  11
BRANCH   4  16
ATOM     16  C   UNL     1       3.944   4.268  19.085  0.00  0.00    +0.000 C 
BRANCH  16  17
ATOM     17  C   UNL     1       5.023   4.356  18.026  0.00  0.00    +0.000 A 
ATOM     18  C   UNL     1       6.277   4.905  18.340  0.00  0.00    +0.000 A 
ATOM     19  C   UNL     1       7.302   4.916  17.393  0.00  0.00    +0.000 A 
ATOM     20  C   UNL     1       7.084   4.385  16.124  0.00  0.00    +0.000 A 
ATOM     21  C   UNL     1       5.836   3.858  15.794  0.00  0.00    +0.000 A 
ATOM     22  C   UNL     1       4.809   3.847  16.739  0.00  0.00    +0.000 A 
ENDBRANCH  16  17
ENDBRANCH   4  16
TORSDOF 4
ENDMDL
