MODEL 1
REMARK VINA RESULT:      -7.4      0.000      0.000
REMARK  Name = 
REMARK  8 active torsions:
REMARK  status: ('A' for Active; 'I' for Inactive)
REMARK    1  A    between atoms: C_1  and  C_2
REMARK    2  A    between atoms: C_2  and  C_3
REMARK    3  A    between atoms: C_3  and  C_4
REMARK    4  A    between atoms: C_3  and  C_11
REMARK    5  A    between atoms: C_4  and  C_6
REMARK    6  A    between atoms: C_11  and  O_12
REMARK    7  A    between atoms: C_11  and  C_13
REMARK    8  A    between atoms: C_11  and  C_17
REMARK                            x       y       z     vdW  Elec       q    Type
REMARK                         _______ _______ _______ _____ _____    ______ ____
ROOT
ATOM      1  C   UNL     1       2.563   3.711  19.319  0.00  0.00    +0.000 C 
ENDROOT
BRANCH   1   2
ATOM      2  C   UNL     1       1.671   3.846  20.574  0.00  0.00    +0.000 C 
ATOM      3  F   UNL     1       0.549   4.560  20.390  0.00  0.00    +0.000 F 
ATOM      4  F   UNL     1       1.325   2.707  21.191  0.00  0.00    +0.000 F 
ATOM      5  F   UNL     1       2.386   4.555  21.506  0.00  0.00    +0.000 F 
ENDBRANCH   1   2
BRANCH   1   6
ATOM      6  C   UNL     1       1.687   3.400  18.087  0.00  0.00    +0.000 C 
ATOM      7  F   UNL     1       2.396   2.852  17.082  0.00  0.00    +0.000 F 
ATOM      8  F   UNL     1       0.730   2.483  18.394  0.00  0.00    +0.000 F 
ATOM      9  F   UNL     1       1.036   4.441  17.543  0.00  0.00    +0.000 F 
ENDBRANCH   1   6
BRANCH   1  10
ATOM     10  O   UNL     1       3.469   2.537  19.528  0.00  0.00    +0.000 OA
ATOM     11  H   UNL     1       3.396   2.271  20.469  0.00  0.00    +0.000 HD
ENDBRANCH   1  10
BRANCH   1  12
ATOM     12  C   UNL     1       3.597   4.878  19.080  0.00  0.00    +0.000 C 
BRANCH  12  14
ATOM     13  C   UNL     1       2.548   7.217  18.661  0.00  0.00    +0.000 C 
ATOM     14  C   UNL     1       3.063   5.915  18.052  0.00  0.00    +0.000 C 
ENDBRANCH  12  14
BRANCH  12  15
ATOM     15  C   UNL     1       5.006   4.399  18.668  0.00  0.00    +0.000 C 
ATOM     16  O   UNL     1       5.704   3.846  19.518  0.00  0.00    +0.000 OA
BRANCH  15  17
ATOM     17  C   UNL     1       5.497   4.565  17.296  0.00  0.00    +0.000 A 
ATOM     18  C   UNL     1       5.141   3.766  16.212  0.00  0.00    +0.000 A 
ATOM     19  C   UNL     1       5.969   3.988  15.075  0.00  0.00    +0.000 A 
ATOM     20  C   UNL     1       6.900   4.975  15.311  0.00  0.00    +0.000 A 
ATOM     21  S   UNL     1       6.631   5.745  16.810  0.00  0.00    +0.000 S 
ENDBRANCH  15  17
ENDBRANCH  12  15
ENDBRANCH   1  12
TORSDOF 7
ENDMDL
MODEL 2
REMARK VINA RESULT:      -7.2      0.735      1.161
REMARK  Name = 
REMARK  8 active torsions:
REMARK  status: ('A' for Active; 'I' for Inactive)
REMARK    1  A    between atoms: C_1  and  C_2
REMARK    2  A    between atoms: C_2  and  C_3
REMARK    3  A    between atoms: C_3  and  C_4
REMARK    4  A    between atoms: C_3  and  C_11
REMARK    5  A    between atoms: C_4  and  C_6
REMARK    6  A    between atoms: C_11  and  O_12
REMARK    7  A    between atoms: C_11  and  C_13
REMARK    8  A    between atoms: C_11  and  C_17
REMARK                            x       y       z     vdW  Elec       q    Type
REMARK                         _______ _______ _______ _____ _____    ______ ____
ROOT
ATOM      1  C   UNL     1       2.655   3.356  19.688  0.00  0.00    +0.000 C 
ENDROOT
BRANCH   1   2
ATOM      2  C   UNL     1       1.482   3.532  20.678  0.00  0.00    +0.000 C 
ATOM      3  F   UNL     1       0.376   4.075  20.145  0.00  0.00    +0.000 F 
ATOM      4  F   UNL     1       1.104   2.441  21.362  0.00  0.00    +0.000 F 
ATOM      5  F   UNL     1       1.887   4.430  21.633  0.00  0.00    +0.000 F 
ENDBRANCH   1   2
BRANCH   1   6
ATOM      6  C   UNL     1       2.179   2.574  18.446  0.00  0.00    +0.000 C 
ATOM      7  F   UNL     1       1.081   1.836  18.698  0.00  0.00    +0.000 F 
ATOM      8  F   UNL     1       1.820   3.424  17.447  0.00  0.00    +0.000 F 
ATOM      9  F   UNL     1       3.066   1.724  17.903  0.00  0.00    +0.000 F 
ENDBRANCH   1   6
BRANCH   1  10
ATOM     10  O   UNL     1       3.701   2.522  20.363  0.00  0.00    +0.000 OA
ATOM     11  H   UNL     1       4.110   1.950  19.680  0.00  0.00    +0.000 HD
ENDBRANCH   1  10
BRANCH   1  12
ATOM     12  C   UNL     1       3.463   4.665  19.339  0.00  0.00    +0.000 C 
BRANCH  12  14
ATOM     13  C   UNL     1       2.550   7.073  18.997  0.00  0.00    +0.000 C 
ATOM     14  C   UNL     1       2.623   5.641  18.469  0.00  0.00    +0.000 C 
ENDBRANCH  12  14
BRANCH  12  15
ATOM     15  C   UNL     1       4.831   4.404  18.671  0.00  0.00    +0.000 C 
ATOM     16  O   UNL     1       5.731   3.922  19.360  0.00  0.00    +0.000 OA
BRANCH  15  17
ATOM     17  C   UNL     1       5.055   4.690  17.250  0.00  0.00    +0.000 A 
ATOM     18  C   UNL     1       4.914   3.770  16.214  0.00  0.00    +0.000 A 
ATOM     19  C   UNL     1       5.450   4.248  14.984  0.00  0.00    +0.000 A 
ATOM     20  C   UNL     1       5.943   5.528  15.110  0.00  0.00    +0.000 A 
ATOM     21  S   UNL     1       5.573   6.196  16.636  0.00  0.00    +0.000 S 
ENDBRANCH  15  17
ENDBRANCH  12  15
ENDBRANCH   1  12
TORSDOF 7
ENDMDL
MODEL 3
REMARK VINA RESULT:      -7.1      0.158      1.157
REMARK  Name = 
REMARK  8 active torsions:
REMARK  status: ('A' for Active; 'I' for Inactive)
REMARK    1  A    between atoms: C_1  and  C_2
REMARK    2  A    between atoms: C_2  and  C_3
REMARK    3  A    between atoms: C_3  and  C_4
REMARK    4  A    between atoms: C_3  and  C_11
REMARK    5  A    between atoms: C_4  and  C_6
REMARK    6  A    between atoms: C_11  and  O_12
REMARK    7  A    between atoms: C_11  and  C_13
REMARK    8  A    between atoms: C_11  and  C_17
REMARK                            x       y       z     vdW  Elec       q    Type
REMARK                         _______ _______ _______ _____ _____    ______ ____
ROOT
ATOM      1  C   UNL     1       2.533   3.597  19.397  0.00  0.00    +0.000 C 
ENDROOT
BRANCH   1   2
ATOM      2  C   UNL     1       1.687   3.729  20.683  0.00  0.00    +0.000 C 
ATOM      3  F   UNL     1       1.132   2.583  21.108  0.00  0.00    +0.000 F 
ATOM      4  F   UNL     1       2.285   4.300  21.740  0.00  0.00    +0.000 F 
ATOM      5  F   UNL     1       0.624   4.544  20.390  0.00  0.00    +0.000 F 
ENDBRANCH   1   2
BRANCH   1   6
ATOM      6  C   UNL     1       1.618   3.244  18.204  0.00  0.00    +0.000 C 
ATOM      7  F   UNL     1       1.034   4.332  17.668  0.00  0.00    +0.000 F 
ATOM      8  F   UNL     1       2.337   2.685  17.193  0.00  0.00    +0.000 F 
ATOM      9  F   UNL     1       0.616   2.386  18.459  0.00  0.00    +0.000 F 
ENDBRANCH   1   6
BRANCH   1  10
ATOM     10  O   UNL     1       3.476   2.450  19.587  0.00  0.00    +0.000 OA
ATOM     11  H   UNL     1       3.447   2.196  20.534  0.00  0.00    +0.000 HD
ENDBRANCH   1  10
BRANCH   1  12
ATOM     12  C   UNL     1       3.526   4.786  19.100  0.00  0.00    +0.000 C 
BRANCH  12  14
ATOM     13  C   UNL     1       2.613   7.160  18.572  0.00  0.00    +0.000 C 
ATOM     14  C   UNL     1       2.946   5.767  18.043  0.00  0.00    +0.000 C 
ENDBRANCH  12  14
BRANCH  12  15
ATOM     15  C   UNL     1       4.944   4.336  18.686  0.00  0.00    +0.000 C 
ATOM     16  O   UNL     1       5.648   3.781  19.530  0.00  0.00    +0.000 OA
BRANCH  15  17
ATOM     17  C   UNL     1       5.438   4.533  17.319  0.00  0.00    +0.000 A 
ATOM     18  C   UNL     1       5.117   3.732  16.225  0.00  0.00    +0.000 A 
ATOM     19  C   UNL     1       5.944   3.994  15.096  0.00  0.00    +0.000 A 
ATOM     20  C   UNL     1       6.837   5.011  15.347  0.00  0.00    +0.000 A 
ATOM     21  S   UNL     1       6.531   5.757  16.852  0.00  0.00    +0.000 S 
ENDBRANCH  15  17
ENDBRANCH  12  15
ENDBRANCH   1  12
TORSDOF 7
ENDMDL
MODEL 4
REMARK VINA RESULT:      -7.1      3.173      5.394
REMARK  Name = 
REMARK  8 active torsions:
REMARK  status: ('A' for Active; 'I' for Inactive)
REMARK    1  A    between atoms: C_1  and  C_2
REMARK    2  A    between atoms: C_2  and  C_3
REMARK    3  A    between atoms: C_3  and  C_4
REMARK    4  A    between atoms: C_3  and  C_11
REMARK    5  A    between atoms: C_4  and  C_6
REMARK    6  A    between atoms: C_11  and  O_12
REMARK    7  A    between atoms: C_11  and  C_13
REMARK    8  A    between atoms: C_11  and  C_17
REMARK                            x       y       z     vdW  Elec       q    Type
REMARK                         _______ _______ _______ _____ _____    ______ ____
ROOT
ATOM      1  C   UNL     1       5.092   4.730  17.075  0.00  0.00    +0.000 C 
ENDROOT
BRANCH   1   2
ATOM      2  C   UNL     1       5.574   5.320  15.731  0.00  0.00    +0.000 C 
ATOM      3  F   UNL     1       5.096   6.544  15.452  0.00  0.00    +0.000 F 
ATOM      4  F   UNL     1       6.900   5.352  15.529  0.00  0.00    +0.000 F 
ATOM      5  F   UNL     1       5.080   4.518  14.734  0.00  0.00    +0.000 F 
ENDBRANCH   1   2
BRANCH   1   6
ATOM      6  C   UNL     1       6.108   5.064  18.187  0.00  0.00    +0.000 C 
ATOM      7  F   UNL     1       7.266   4.394  18.039  0.00  0.00    +0.000 F 
ATOM      8  F   UNL     1       6.448   6.381  18.153  0.00  0.00    +0.000 F 
ATOM      9  F   UNL     1       5.711   4.821  19.447  0.00  0.00    +0.000 F 
ENDBRANCH   1   6
BRANCH   1  10
ATOM     10  O   UNL     1       5.062   3.239  16.934  0.00  0.00    +0.000 OA
ATOM     11  H   UNL     1       5.253   2.855  17.816  0.00  0.00    +0.000 HD
ENDBRANCH   1  10
BRANCH   1  12
ATOM     12  C   UNL     1       3.598   5.046  17.469  0.00  0.00    +0.000 C 
BRANCH  12  14
ATOM     13  C   UNL     1       2.591   7.215  18.484  0.00  0.00    +0.000 C 
ATOM     14  C   UNL     1       3.518   6.017  18.680  0.00  0.00    +0.000 C 
ENDBRANCH  12  14
BRANCH  12  15
ATOM     15  C   UNL     1       2.736   3.793  17.737  0.00  0.00    +0.000 C 
ATOM     16  O   UNL     1       2.337   3.144  16.769  0.00  0.00    +0.000 OA
BRANCH  15  17
ATOM     17  C   UNL     1       2.421   3.360  19.102  0.00  0.00    +0.000 A 
ATOM     18  C   UNL     1       1.215   3.592  19.760  0.00  0.00    +0.000 A 
ATOM     19  C   UNL     1       1.288   3.300  21.151  0.00  0.00    +0.000 A 
ATOM     20  C   UNL     1       2.528   2.816  21.503  0.00  0.00    +0.000 A 
ATOM     21  S   UNL     1       3.505   2.537  20.132  0.00  0.00    +0.000 S 
ENDBRANCH  15  17
ENDBRANCH  12  15
ENDBRANCH   1  12
TORSDOF 7
ENDMDL
MODEL 5
REMARK VINA RESULT:      -7.0      1.137      2.545
REMARK  Name = 
REMARK  8 active torsions:
REMARK  status: ('A' for Active; 'I' for Inactive)
REMARK    1  A    between atoms: C_1  and  C_2
REMARK    2  A    between atoms: C_2  and  C_3
REMARK    3  A    between atoms: C_3  and  C_4
REMARK    4  A    between atoms: C_3  and  C_11
REMARK    5  A    between atoms: C_4  and  C_6
REMARK    6  A    between atoms: C_11  and  O_12
REMARK    7  A    between atoms: C_11  and  C_13
REMARK    8  A    between atoms: C_11  and  C_17
REMARK                            x       y       z     vdW  Elec       q    Type
REMARK                         _______ _______ _______ _____ _____    ______ ____
ROOT
ATOM      1  C   UNL     1       2.290   3.554  19.558  0.00  0.00    +0.000 C 
ENDROOT
BRANCH   1   2
ATOM      2  C   UNL     1       2.320   2.306  18.649  0.00  0.00    +0.000 C 
ATOM      3  F   UNL     1       2.311   2.571  17.332  0.00  0.00    +0.000 F 
ATOM      4  F   UNL     1       3.304   1.422  18.872  0.00  0.00    +0.000 F 
ATOM      5  F   UNL     1       1.158   1.611  18.872  0.00  0.00    +0.000 F 
ENDBRANCH   1   2
BRANCH   1   6
ATOM      6  C   UNL     1       2.355   3.124  21.039  0.00  0.00    +0.000 C 
ATOM      7  F   UNL     1       2.469   4.175  21.872  0.00  0.00    +0.000 F 
ATOM      8  F   UNL     1       1.209   2.493  21.411  0.00  0.00    +0.000 F 
ATOM      9  F   UNL     1       3.356   2.291  21.372  0.00  0.00    +0.000 F 
ENDBRANCH   1   6
BRANCH   1  10
ATOM     10  O   UNL     1       0.972   4.236  19.353  0.00  0.00    +0.000 OA
ATOM     11  H   UNL     1       1.057   4.812  18.563  0.00  0.00    +0.000 HD
ENDBRANCH   1  10
BRANCH   1  12
ATOM     12  C   UNL     1       3.307   4.700  19.188  0.00  0.00    +0.000 C 
BRANCH  12  14
ATOM     13  C   UNL     1       2.781   7.121  18.408  0.00  0.00    +0.000 C 
ATOM     14  C   UNL     1       2.743   5.631  18.078  0.00  0.00    +0.000 C 
ENDBRANCH  12  14
BRANCH  12  15
ATOM     15  C   UNL     1       4.712   4.195  18.793  0.00  0.00    +0.000 C 
ATOM     16  O   UNL     1       5.335   3.513  19.607  0.00  0.00    +0.000 OA
BRANCH  15  17
ATOM     17  C   UNL     1       5.286   4.487  17.475  0.00  0.00    +0.000 A 
ATOM     18  C   UNL     1       5.090   3.724  16.326  0.00  0.00    +0.000 A 
ATOM     19  C   UNL     1       5.975   4.089  15.272  0.00  0.00    +0.000 A 
ATOM     20  C   UNL     1       6.785   5.142  15.632  0.00  0.00    +0.000 A 
ATOM     21  S   UNL     1       6.332   5.794  17.143  0.00  0.00    +0.000 S 
ENDBRANCH  15  17
ENDBRANCH  12  15
ENDBRANCH   1  12
TORSDOF 7
ENDMDL
MODEL 6
REMARK VINA RESULT:      -6.9      3.147      5.369
REMARK  Name = 
REMARK  8 active torsions:
REMARK  status: ('A' for Active; 'I' for Inactive)
REMARK    1  A    between atoms: C_1  and  C_2
REMARK    2  A    between atoms: C_2  and  C_3
REMARK    3  A    between atoms: C_3  and  C_4
REMARK    4  A    between atoms: C_3  and  C_11
REMARK    5  A    between atoms: C_4  and  C_6
REMARK    6  A    between atoms: C_11  and  O_12
REMARK    7  A    between atoms: C_11  and  C_13
REMARK    8  A    between atoms: C_11  and  C_17
REMARK                            x       y       z     vdW  Elec       q    Type
REMARK                         _______ _______ _______ _____ _____    ______ ____
ROOT
ATOM      1  C   UNL     1       4.989   4.771  17.054  0.00  0.00    +0.000 C 
ENDROOT
BRANCH   1   2
ATOM      2  C   UNL     1       5.454   5.351  15.700  0.00  0.00    +0.000 C 
ATOM      3  F   UNL     1       5.078   4.637  14.626  0.00  0.00    +0.000 F 
ATOM      4  F   UNL     1       5.144   6.633  15.457  0.00  0.00    +0.000 F 
ATOM      5  F   UNL     1       6.824   5.305  15.687  0.00  0.00    +0.000 F 
ENDBRANCH   1   2
BRANCH   1   6
ATOM      6  C   UNL     1       5.964   5.201  18.170  0.00  0.00    +0.000 C 
ATOM      7  F   UNL     1       5.458   4.993  19.400  0.00  0.00    +0.000 F 
ATOM      8  F   UNL     1       7.108   4.465  18.123  0.00  0.00    +0.000 F 
ATOM      9  F   UNL     1       6.355   6.486  18.154  0.00  0.00    +0.000 F 
ENDBRANCH   1   6
BRANCH   1  10
ATOM     10  O   UNL     1       5.056   3.277  16.958  0.00  0.00    +0.000 OA
ATOM     11  H   UNL     1       5.806   3.052  16.368  0.00  0.00    +0.000 HD
ENDBRANCH   1  10
BRANCH   1  12
ATOM     12  C   UNL     1       3.472   5.002  17.418  0.00  0.00    +0.000 C 
BRANCH  12  14
ATOM     13  C   UNL     1       2.810   7.395  18.179  0.00  0.00    +0.000 C 
ATOM     14  C   UNL     1       3.311   6.012  18.589  0.00  0.00    +0.000 C 
ENDBRANCH  12  14
BRANCH  12  15
ATOM     15  C   UNL     1       2.691   3.705  17.725  0.00  0.00    +0.000 C 
ATOM     16  O   UNL     1       2.337   3.002  16.778  0.00  0.00    +0.000 OA
BRANCH  15  17
ATOM     17  C   UNL     1       2.399   3.298  19.104  0.00  0.00    +0.000 A 
ATOM     18  C   UNL     1       1.185   3.494  19.759  0.00  0.00    +0.000 A 
ATOM     19  C   UNL     1       1.276   3.245  21.158  0.00  0.00    +0.000 A 
ATOM     20  C   UNL     1       2.537   2.828  21.519  0.00  0.00    +0.000 A 
ATOM     21  S   UNL     1       3.522   2.554  20.151  0.00  0.00    +0.000 S 
ENDBRANCH  15  17
ENDBRANCH  12  15
ENDBRANCH   1  12
TORSDOF 7
ENDMDL
MODEL 7
REMARK VINA RESULT:      -6.9      3.172      5.394
REMARK  Name = 
REMARK  8 active torsions:
REMARK  status: ('A' for Active; 'I' for Inactive)
REMARK    1  A    between atoms: C_1  and  C_2
REMARK    2  A    between atoms: C_2  and  C_3
REMARK    3  A    between atoms: C_3  and  C_4
REMARK    4  A    between atoms: C_3  and  C_11
REMARK    5  A    between atoms: C_4  and  C_6
REMARK    6  A    between atoms: C_11  and  O_12
REMARK    7  A    between atoms: C_11  and  C_13
REMARK    8  A    between atoms: C_11  and  C_17
REMARK                            x       y       z     vdW  Elec       q    Type
REMARK                         _______ _______ _______ _____ _____    ______ ____
ROOT
ATOM      1  C   UNL     1       5.089   4.733  17.022  0.00  0.00    +0.000 C 
ENDROOT
BRANCH   1   2
ATOM      2  C   UNL     1       5.568   5.297  15.665  0.00  0.00    +0.000 C 
ATOM      3  F   UNL     1       6.898   5.454  15.562  0.00  0.00    +0.000 F 
ATOM      4  F   UNL     1       5.154   4.651  14.565  0.00  0.00    +0.000 F 
ATOM      5  F   UNL     1       5.058   6.565  15.549  0.00  0.00    +0.000 F 
ENDBRANCH   1   2
BRANCH   1   6
ATOM      6  C   UNL     1       6.100   5.103  18.128  0.00  0.00    +0.000 C 
ATOM      7  F   UNL     1       6.375   6.421  18.149  0.00  0.00    +0.000 F 
ATOM      8  F   UNL     1       5.594   4.821  19.359  0.00  0.00    +0.000 F 
ATOM      9  F   UNL     1       7.293   4.487  18.072  0.00  0.00    +0.000 F 
ENDBRANCH   1   6
BRANCH   1  10
ATOM     10  O   UNL     1       5.076   3.239  16.915  0.00  0.00    +0.000 OA
ATOM     11  H   UNL     1       5.850   2.900  17.413  0.00  0.00    +0.000 HD
ENDBRANCH   1  10
BRANCH   1  12
ATOM     12  C   UNL     1       3.591   5.043  17.405  0.00  0.00    +0.000 C 
BRANCH  12  14
ATOM     13  C   UNL     1       2.754   7.339  18.284  0.00  0.00    +0.000 C 
ATOM     14  C   UNL     1       3.499   6.042  18.593  0.00  0.00    +0.000 C 
ENDBRANCH  12  14
BRANCH  12  15
ATOM     15  C   UNL     1       2.743   3.787  17.702  0.00  0.00    +0.000 C 
ATOM     16  O   UNL     1       2.366   3.101  16.751  0.00  0.00    +0.000 OA
BRANCH  15  17
ATOM     17  C   UNL     1       2.414   3.395  19.077  0.00  0.00    +0.000 A 
ATOM     18  C   UNL     1       1.213   3.673  19.726  0.00  0.00    +0.000 A 
ATOM     19  C   UNL     1       1.276   3.412  21.124  0.00  0.00    +0.000 A 
ATOM     20  C   UNL     1       2.502   2.906  21.491  0.00  0.00    +0.000 A 
ATOM     21  S   UNL     1       3.474   2.570  20.128  0.00  0.00    +0.000 S 
ENDBRANCH  15  17
ENDBRANCH  12  15
ENDBRANCH   1  12
TORSDOF 7
ENDMDL
MODEL 8
REMARK VINA RESULT:      -6.8      1.157      1.330
REMARK  Name = 
REMARK  8 active torsions:
REMARK  status: ('A' for Active; 'I' for Inactive)
REMARK    1  A    between atoms: C_1  and  C_2
REMARK    2  A    between atoms: C_2  and  C_3
REMARK    3  A    between atoms: C_3  and  C_4
REMARK    4  A    between atoms: C_3  and  C_11
REMARK    5  A    between atoms: C_4  and  C_6
REMARK    6  A    between atoms: C_11  and  O_12
REMARK    7  A    between atoms: C_11  and  C_13
REMARK    8  A    between atoms: C_11  and  C_17
REMARK                            x       y       z     vdW  Elec       q    Type
REMARK                         _______ _______ _______ _____ _____    ______ ____
ROOT
ATOM      1  C   UNL     1       2.614   3.390  19.887  0.00  0.00    +0.000 C 
ENDROOT
BRANCH   1   2
ATOM      2  C   UNL     1       1.392   3.607  20.807  0.00  0.00    +0.000 C 
ATOM      3  F   UNL     1       0.274   3.994  20.172  0.00  0.00    +0.000 F 
ATOM      4  F   UNL     1       1.060   2.590  21.617  0.00  0.00    +0.000 F 
ATOM      5  F   UNL     1       1.694   4.649  21.646  0.00  0.00    +0.000 F 
ENDBRANCH   1   2
BRANCH   1   6
ATOM      6  C   UNL     1       2.187   2.606  18.628  0.00  0.00    +0.000 C 
ATOM      7  F   UNL     1       3.223   1.975  18.044  0.00  0.00    +0.000 F 
ATOM      8  F   UNL     1       1.299   1.626  18.945  0.00  0.00    +0.000 F 
ATOM      9  F   UNL     1       1.607   3.324  17.651  0.00  0.00    +0.000 F 
ENDBRANCH   1   6
BRANCH   1  10
ATOM     10  O   UNL     1       3.596   2.536  20.629  0.00  0.00    +0.000 OA
ATOM     11  H   UNL     1       4.072   1.990  19.967  0.00  0.00    +0.000 HD
ENDBRANCH   1  10
BRANCH   1  12
ATOM     12  C   UNL     1       3.475   4.672  19.572  0.00  0.00    +0.000 C 
BRANCH  12  14
ATOM     13  C   UNL     1       2.489   7.065  19.344  0.00  0.00    +0.000 C 
ATOM     14  C   UNL     1       2.686   5.693  18.704  0.00  0.00    +0.000 C 
ENDBRANCH  12  14
BRANCH  12  15
ATOM     15  C   UNL     1       4.844   4.371  18.925  0.00  0.00    +0.000 C 
ATOM     16  O   UNL     1       5.613   3.613  19.516  0.00  0.00    +0.000 OA
BRANCH  15  17
ATOM     17  C   UNL     1       5.217   4.943  17.626  0.00  0.00    +0.000 A 
ATOM     18  C   UNL     1       5.644   6.252  17.418  0.00  0.00    +0.000 A 
ATOM     19  C   UNL     1       5.677   6.601  16.038  0.00  0.00    +0.000 A 
ATOM     20  C   UNL     1       5.317   5.540  15.237  0.00  0.00    +0.000 A 
ATOM     21  S   UNL     1       5.143   4.103  16.142  0.00  0.00    +0.000 S 
ENDBRANCH  15  17
ENDBRANCH  12  15
ENDBRANCH   1  12
TORSDOF 7
ENDMDL
MODEL 9
REMARK VINA RESULT:      -6.7      1.582      1.830
REMARK  Name = 
REMARK  8 active torsions:
REMARK  status: ('A' for Active; 'I' for Inactive)
REMARK    1  A    between atoms: C_1  and  C_2
REMARK    2  A    between atoms: C_2  and  C_3
REMARK    3  A    between atoms: C_3  and  C_4
REMARK    4  A    between atoms: C_3  and  C_11
REMARK    5  A    between atoms: C_4  and  C_6
REMARK    6  A    between atoms: C_11  and  O_12
REMARK    7  A    between atoms: C_11  and  C_13
REMARK    8  A    between atoms: C_11  and  C_17
REMARK                            x       y       z     vdW  Elec       q    Type
REMARK                         _______ _______ _______ _____ _____    ______ ____
ROOT
ATOM      1  C   UNL     1       2.475   3.968  19.213  0.00  0.00    +0.000 C 
ENDROOT
BRANCH   1   2
ATOM      2  C   UNL     1       1.731   4.008  20.566  0.00  0.00    +0.000 C 
ATOM      3  F   UNL     1       0.521   4.589  20.523  0.00  0.00    +0.000 F 
ATOM      4  F   UNL     1       1.591   2.839  21.210  0.00  0.00    +0.000 F 
ATOM      5  F   UNL     1       2.467   4.797  21.412  0.00  0.00    +0.000 F 
ENDBRANCH   1   2
BRANCH   1   6
ATOM      6  C   UNL     1       1.564   3.345  18.133  0.00  0.00    +0.000 C 
ATOM      7  F   UNL     1       2.221   2.458  17.362  0.00  0.00    +0.000 F 
ATOM      8  F   UNL     1       0.548   2.643  18.704  0.00  0.00    +0.000 F 
ATOM      9  F   UNL     1       0.982   4.203  17.280  0.00  0.00    +0.000 F 
ENDBRANCH   1   6
BRANCH   1  10
ATOM     10  O   UNL     1       3.659   3.065  19.369  0.00  0.00    +0.000 OA
ATOM     11  H   UNL     1       4.430   3.625  19.604  0.00  0.00    +0.000 HD
ENDBRANCH   1  10
BRANCH   1  12
ATOM     12  C   UNL     1       3.156   5.317  18.762  0.00  0.00    +0.000 C 
BRANCH  12  14
ATOM     13  C   UNL     1       2.449   7.775  18.307  0.00  0.00    +0.000 C 
ATOM     14  C   UNL     1       2.127   6.293  18.124  0.00  0.00    +0.000 C 
ENDBRANCH  12  14
BRANCH  12  15
ATOM     15  C   UNL     1       4.365   5.131  17.819  0.00  0.00    +0.000 C 
ATOM     16  O   UNL     1       4.241   4.369  16.860  0.00  0.00    +0.000 OA
BRANCH  15  17
ATOM     17  C   UNL     1       5.620   5.859  18.033  0.00  0.00    +0.000 A 
ATOM     18  C   UNL     1       6.070   6.928  17.262  0.00  0.00    +0.000 A 
ATOM     19  C   UNL     1       7.429   7.259  17.529  0.00  0.00    +0.000 A 
ATOM     20  C   UNL     1       7.958   6.465  18.521  0.00  0.00    +0.000 A 
ATOM     21  S   UNL     1       6.763   5.482  19.242  0.00  0.00    +0.000 S 
ENDBRANCH  15  17
ENDBRANCH  12  15
ENDBRANCH   1  12
TORSDOF 7
ENDMDL
