MODEL 1
REMARK VINA RESULT:      -6.4      0.000      0.000
REMARK  Name = 
REMARK  5 active torsions:
REMARK  status: ('A' for Active; 'I' for Inactive)
REMARK    1  A    between atoms: C_1  and  O_2
REMARK    2  A    between atoms: O_2  and  C_3
REMARK    3  A    between atoms: C_8  and  C_9
REMARK    4  A    between atoms: C_10  and  N_11
REMARK    5  A    between atoms: C_12  and  C_13
REMARK                            x       y       z     vdW  Elec       q    Type
REMARK                         _______ _______ _______ _____ _____    ______ ____
ROOT
ATOM      1  C   UNL     1       2.414   4.912  19.459  0.00  0.00    +0.000 A 
ATOM      2  C   UNL     1       1.394   4.362  20.253  0.00  0.00    +0.000 A 
ATOM      3  C   UNL     1       0.807   3.141  19.917  0.00  0.00    +0.000 A 
ATOM      4  C   UNL     1       1.235   2.453  18.789  0.00  0.00    +0.000 A 
ATOM      5  C   UNL     1       2.223   3.005  17.973  0.00  0.00    +0.000 A 
ATOM      6  C   UNL     1       2.802   4.254  18.270  0.00  0.00    +0.000 A 
ENDROOT
BRANCH   1   8
ATOM      7  C   UNL     1       2.230   7.274  19.646  0.00  0.00    +0.000 C 
ATOM      8  O   UNL     1       3.026   6.100  19.779  0.00  0.00    +0.000 OA
ENDBRANCH   1   8
BRANCH   6   9
ATOM      9  C   UNL     1       3.787   4.754  17.283  0.00  0.00    +0.000 C 
ATOM     10  C   UNL     1       4.625   3.982  16.576  0.00  0.00    +0.000 C 
BRANCH  10  11
ATOM     11  N   UNL     1       5.592   4.513  15.763  0.00  0.00    +0.000 N 
ATOM     12  C   UNL     1       6.878   4.876  16.065  0.00  0.00    +0.000 C 
ATOM     13  C   UNL     1       7.461   4.569  17.423  0.00  0.00    +0.000 C 
ATOM     14  O   UNL     1       7.552   5.451  15.211  0.00  0.00    +0.000 OA
ATOM     15  H   UNL     1       5.343   4.744  14.810  0.00  0.00    +0.000 HD
ENDBRANCH  10  11
ENDBRANCH   6   9
TORSDOF 3
ENDMDL
MODEL 2
REMARK VINA RESULT:      -6.3      2.620      5.751
REMARK  Name = 
REMARK  5 active torsions:
REMARK  status: ('A' for Active; 'I' for Inactive)
REMARK    1  A    between atoms: C_1  and  O_2
REMARK    2  A    between atoms: O_2  and  C_3
REMARK    3  A    between atoms: C_8  and  C_9
REMARK    4  A    between atoms: C_10  and  N_11
REMARK    5  A    between atoms: C_12  and  C_13
REMARK                            x       y       z     vdW  Elec       q    Type
REMARK                         _______ _______ _______ _____ _____    ______ ____
ROOT
ATOM      1  C   UNL     1       6.767   4.563  17.599  0.00  0.00    +0.000 A 
ATOM      2  C   UNL     1       7.198   4.777  16.281  0.00  0.00    +0.000 A 
ATOM      3  C   UNL     1       6.307   4.677  15.212  0.00  0.00    +0.000 A 
ATOM      4  C   UNL     1       4.974   4.367  15.448  0.00  0.00    +0.000 A 
ATOM      5  C   UNL     1       4.539   4.118  16.750  0.00  0.00    +0.000 A 
ATOM      6  C   UNL     1       5.429   4.174  17.840  0.00  0.00    +0.000 A 
ENDROOT
BRANCH   1   8
ATOM      7  C   UNL     1       7.904   6.005  19.109  0.00  0.00    +0.000 C 
ATOM      8  O   UNL     1       7.617   4.679  18.674  0.00  0.00    +0.000 OA
ENDBRANCH   1   8
BRANCH   6   9
ATOM      9  C   UNL     1       4.851   3.820  19.157  0.00  0.00    +0.000 C 
ATOM     10  C   UNL     1       3.959   2.841  19.366  0.00  0.00    +0.000 C 
BRANCH  10  11
ATOM     11  N   UNL     1       3.377   2.636  20.589  0.00  0.00    +0.000 N 
ATOM     12  C   UNL     1       2.141   3.019  21.037  0.00  0.00    +0.000 C 
ATOM     13  C   UNL     1       1.143   3.644  20.093  0.00  0.00    +0.000 C 
ATOM     14  O   UNL     1       1.853   2.840  22.221  0.00  0.00    +0.000 OA
ATOM     15  H   UNL     1       3.929   2.198  21.315  0.00  0.00    +0.000 HD
ENDBRANCH  10  11
ENDBRANCH   6   9
TORSDOF 3
ENDMDL
MODEL 3
REMARK VINA RESULT:      -6.2      2.814      4.057
REMARK  Name = 
REMARK  5 active torsions:
REMARK  status: ('A' for Active; 'I' for Inactive)
REMARK    1  A    between atoms: C_1  and  O_2
REMARK    2  A    between atoms: O_2  and  C_3
REMARK    3  A    between atoms: C_8  and  C_9
REMARK    4  A    between atoms: C_10  and  N_11
REMARK    5  A    between atoms: C_12  and  C_13
REMARK                            x       y       z     vdW  Elec       q    Type
REMARK                         _______ _______ _______ _____ _____    ______ ____
ROOT
ATOM      1  C   UNL     1       4.964   6.026  16.883  0.00  0.00    +0.000 A 
ATOM      2  C   UNL     1       4.038   6.599  17.770  0.00  0.00    +0.000 A 
ATOM      3  C   UNL     1       2.963   5.857  18.258  0.00  0.00    +0.000 A 
ATOM      4  C   UNL     1       2.801   4.533  17.872  0.00  0.00    +0.000 A 
ATOM      5  C   UNL     1       3.694   3.961  16.965  0.00  0.00    +0.000 A 
ATOM      6  C   UNL     1       4.764   4.702  16.428  0.00  0.00    +0.000 A 
ENDROOT
BRANCH   1   8
ATOM      7  C   UNL     1       7.085   6.996  17.342  0.00  0.00    +0.000 C 
ATOM      8  O   UNL     1       6.046   6.725  16.405  0.00  0.00    +0.000 OA
ENDBRANCH   1   8
BRANCH   6   9
ATOM      9  C   UNL     1       5.593   3.996  15.424  0.00  0.00    +0.000 C 
ATOM     10  C   UNL     1       5.626   4.285  14.115  0.00  0.00    +0.000 C 
BRANCH  10  11
ATOM     11  N   UNL     1       6.327   3.522  13.218  0.00  0.00    +0.000 N 
ATOM     12  C   UNL     1       5.900   2.938  12.055  0.00  0.00    +0.000 C 
ATOM     13  C   UNL     1       4.518   3.219  11.519  0.00  0.00    +0.000 C 
ATOM     14  O   UNL     1       6.664   2.185  11.451  0.00  0.00    +0.000 OA
ATOM     15  H   UNL     1       7.283   3.278  13.441  0.00  0.00    +0.000 HD
ENDBRANCH  10  11
ENDBRANCH   6   9
TORSDOF 3
ENDMDL
MODEL 4
REMARK VINA RESULT:      -6.2      0.793      1.035
REMARK  Name = 
REMARK  5 active torsions:
REMARK  status: ('A' for Active; 'I' for Inactive)
REMARK    1  A    between atoms: C_1  and  O_2
REMARK    2  A    between atoms: O_2  and  C_3
REMARK    3  A    between atoms: C_8  and  C_9
REMARK    4  A    between atoms: C_10  and  N_11
REMARK    5  A    between atoms: C_12  and  C_13
REMARK                            x       y       z     vdW  Elec       q    Type
REMARK                         _______ _______ _______ _____ _____    ______ ____
ROOT
ATOM      1  C   UNL     1       2.449   4.869  19.382  0.00  0.00    +0.000 A 
ATOM      2  C   UNL     1       1.375   4.257  20.047  0.00  0.00    +0.000 A 
ATOM      3  C   UNL     1       0.835   3.058  19.581  0.00  0.00    +0.000 A 
ATOM      4  C   UNL     1       1.364   2.454  18.448  0.00  0.00    +0.000 A 
ATOM      5  C   UNL     1       2.409   3.069  17.757  0.00  0.00    +0.000 A 
ATOM      6  C   UNL     1       2.944   4.299  18.186  0.00  0.00    +0.000 A 
ENDROOT
BRANCH   1   8
ATOM      7  C   UNL     1       2.224   7.214  19.701  0.00  0.00    +0.000 C 
ATOM      8  O   UNL     1       3.017   6.037  19.832  0.00  0.00    +0.000 OA
ENDBRANCH   1   8
BRANCH   6   9
ATOM      9  C   UNL     1       4.000   4.875  17.322  0.00  0.00    +0.000 C 
ATOM     10  C   UNL     1       5.295   4.529  17.360  0.00  0.00    +0.000 C 
BRANCH  10  11
ATOM     11  N   UNL     1       6.244   5.180  16.614  0.00  0.00    +0.000 N 
ATOM     12  C   UNL     1       6.707   4.893  15.358  0.00  0.00    +0.000 C 
ATOM     13  C   UNL     1       6.059   3.810  14.531  0.00  0.00    +0.000 C 
ATOM     14  O   UNL     1       7.657   5.536  14.911  0.00  0.00    +0.000 OA
ATOM     15  H   UNL     1       6.742   5.950  17.040  0.00  0.00    +0.000 HD
ENDBRANCH  10  11
ENDBRANCH   6   9
TORSDOF 3
ENDMDL
MODEL 5
REMARK VINA RESULT:      -6.2      1.685      1.862
REMARK  Name = 
REMARK  5 active torsions:
REMARK  status: ('A' for Active; 'I' for Inactive)
REMARK    1  A    between atoms: C_1  and  O_2
REMARK    2  A    between atoms: O_2  and  C_3
REMARK    3  A    between atoms: C_8  and  C_9
REMARK    4  A    between atoms: C_10  and  N_11
REMARK    5  A    between atoms: C_12  and  C_13
REMARK                            x       y       z     vdW  Elec       q    Type
REMARK                         _______ _______ _______ _____ _____    ______ ____
ROOT
ATOM      1  C   UNL     1       2.192   4.274  19.156  0.00  0.00    +0.000 A 
ATOM      2  C   UNL     1       1.135   4.124  20.068  0.00  0.00    +0.000 A 
ATOM      3  C   UNL     1       1.258   3.282  21.173  0.00  0.00    +0.000 A 
ATOM      4  C   UNL     1       2.440   2.583  21.383  0.00  0.00    +0.000 A 
ATOM      5  C   UNL     1       3.486   2.695  20.466  0.00  0.00    +0.000 A 
ATOM      6  C   UNL     1       3.369   3.509  19.323  0.00  0.00    +0.000 A 
ENDROOT
BRANCH   1   8
ATOM      7  C   UNL     1       2.488   6.470  18.295  0.00  0.00    +0.000 C 
ATOM      8  O   UNL     1       2.107   5.115  18.072  0.00  0.00    +0.000 OA
ENDBRANCH   1   8
BRANCH   6   9
ATOM      9  C   UNL     1       4.525   3.482  18.397  0.00  0.00    +0.000 C 
ATOM     10  C   UNL     1       5.580   4.307  18.464  0.00  0.00    +0.000 C 
BRANCH  10  11
ATOM     11  N   UNL     1       6.564   4.308  17.509  0.00  0.00    +0.000 N 
ATOM     12  C   UNL     1       6.599   4.947  16.299  0.00  0.00    +0.000 C 
ATOM     13  C   UNL     1       5.513   5.922  15.916  0.00  0.00    +0.000 C 
ATOM     14  O   UNL     1       7.533   4.719  15.530  0.00  0.00    +0.000 OA
ATOM     15  H   UNL     1       7.371   3.714  17.653  0.00  0.00    +0.000 HD
ENDBRANCH  10  11
ENDBRANCH   6   9
TORSDOF 3
ENDMDL
MODEL 6
REMARK VINA RESULT:      -6.1      1.538      2.627
REMARK  Name = 
REMARK  5 active torsions:
REMARK  status: ('A' for Active; 'I' for Inactive)
REMARK    1  A    between atoms: C_1  and  O_2
REMARK    2  A    between atoms: O_2  and  C_3
REMARK    3  A    between atoms: C_8  and  C_9
REMARK    4  A    between atoms: C_10  and  N_11
REMARK    5  A    between atoms: C_12  and  C_13
REMARK                            x       y       z     vdW  Elec       q    Type
REMARK                         _______ _______ _______ _____ _____    ______ ____
ROOT
ATOM      1  C   UNL     1       2.340   3.749  18.548  0.00  0.00    +0.000 A 
ATOM      2  C   UNL     1       1.448   3.458  19.592  0.00  0.00    +0.000 A 
ATOM      3  C   UNL     1       1.149   4.415  20.563  0.00  0.00    +0.000 A 
ATOM      4  C   UNL     1       1.731   5.673  20.499  0.00  0.00    +0.000 A 
ATOM      5  C   UNL     1       2.646   5.965  19.485  0.00  0.00    +0.000 A 
ATOM      6  C   UNL     1       2.993   5.003  18.518  0.00  0.00    +0.000 A 
ENDROOT
BRANCH   1   8
ATOM      7  C   UNL     1       3.451   1.734  17.953  0.00  0.00    +0.000 C 
ATOM      8  O   UNL     1       2.635   2.835  17.564  0.00  0.00    +0.000 OA
ENDBRANCH   1   8
BRANCH   6   9
ATOM      9  C   UNL     1       4.027   5.420  17.542  0.00  0.00    +0.000 C 
ATOM     10  C   UNL     1       5.311   5.036  17.574  0.00  0.00    +0.000 C 
BRANCH  10  11
ATOM     11  N   UNL     1       6.244   5.546  16.709  0.00  0.00    +0.000 N 
ATOM     12  C   UNL     1       6.699   5.036  15.523  0.00  0.00    +0.000 C 
ATOM     13  C   UNL     1       6.057   3.810  14.920  0.00  0.00    +0.000 C 
ATOM     14  O   UNL     1       7.637   5.594  14.953  0.00  0.00    +0.000 OA
ATOM     15  H   UNL     1       6.737   6.388  16.979  0.00  0.00    +0.000 HD
ENDBRANCH  10  11
ENDBRANCH   6   9
TORSDOF 3
ENDMDL
MODEL 7
REMARK VINA RESULT:      -6.0      1.998      2.595
REMARK  Name = 
REMARK  5 active torsions:
REMARK  status: ('A' for Active; 'I' for Inactive)
REMARK    1  A    between atoms: C_1  and  O_2
REMARK    2  A    between atoms: O_2  and  C_3
REMARK    3  A    between atoms: C_8  and  C_9
REMARK    4  A    between atoms: C_10  and  N_11
REMARK    5  A    between atoms: C_12  and  C_13
REMARK                            x       y       z     vdW  Elec       q    Type
REMARK                         _______ _______ _______ _____ _____    ______ ____
ROOT
ATOM      1  C   UNL     1       3.760   3.056  19.211  0.00  0.00    +0.000 A 
ATOM      2  C   UNL     1       2.530   2.733  19.805  0.00  0.00    +0.000 A 
ATOM      3  C   UNL     1       1.329   3.154  19.234  0.00  0.00    +0.000 A 
ATOM      4  C   UNL     1       1.342   3.896  18.061  0.00  0.00    +0.000 A 
ATOM      5  C   UNL     1       2.558   4.253  17.478  0.00  0.00    +0.000 A 
ATOM      6  C   UNL     1       3.784   3.874  18.059  0.00  0.00    +0.000 A 
ENDROOT
BRANCH   1   8
ATOM      7  C   UNL     1       4.885   1.611  20.727  0.00  0.00    +0.000 C 
ATOM      8  O   UNL     1       4.958   2.634  19.739  0.00  0.00    +0.000 OA
ENDBRANCH   1   8
BRANCH   6   9
ATOM      9  C   UNL     1       4.999   4.378  17.377  0.00  0.00    +0.000 C 
ATOM     10  C   UNL     1       5.009   5.325  16.429  0.00  0.00    +0.000 C 
BRANCH  10  11
ATOM     11  N   UNL     1       6.153   5.668  15.755  0.00  0.00    +0.000 N 
ATOM     12  C   UNL     1       6.747   5.054  14.684  0.00  0.00    +0.000 C 
ATOM     13  C   UNL     1       6.061   3.908  13.981  0.00  0.00    +0.000 C 
ATOM     14  O   UNL     1       7.845   5.455  14.300  0.00  0.00    +0.000 OA
ATOM     15  H   UNL     1       6.702   6.442  16.106  0.00  0.00    +0.000 HD
ENDBRANCH  10  11
ENDBRANCH   6   9
TORSDOF 3
ENDMDL
MODEL 8
REMARK VINA RESULT:      -6.0      1.799      2.711
REMARK  Name = 
REMARK  5 active torsions:
REMARK  status: ('A' for Active; 'I' for Inactive)
REMARK    1  A    between atoms: C_1  and  O_2
REMARK    2  A    between atoms: O_2  and  C_3
REMARK    3  A    between atoms: C_8  and  C_9
REMARK    4  A    between atoms: C_10  and  N_11
REMARK    5  A    between atoms: C_12  and  C_13
REMARK                            x       y       z     vdW  Elec       q    Type
REMARK                         _______ _______ _______ _____ _____    ______ ____
ROOT
ATOM      1  C   UNL     1       2.022   3.783  18.420  0.00  0.00    +0.000 A 
ATOM      2  C   UNL     1       1.131   3.318  19.400  0.00  0.00    +0.000 A 
ATOM      3  C   UNL     1       0.862   4.077  20.539  0.00  0.00    +0.000 A 
ATOM      4  C   UNL     1       1.474   5.311  20.710  0.00  0.00    +0.000 A 
ATOM      5  C   UNL     1       2.389   5.770  19.761  0.00  0.00    +0.000 A 
ATOM      6  C   UNL     1       2.706   5.004  18.624  0.00  0.00    +0.000 A 
ENDROOT
BRANCH   1   8
ATOM      7  C   UNL     1       3.147   1.941  17.425  0.00  0.00    +0.000 C 
ATOM      8  O   UNL     1       2.288   3.068  17.276  0.00  0.00    +0.000 OA
ENDBRANCH   1   8
BRANCH   6   9
ATOM      9  C   UNL     1       3.744   5.576  17.734  0.00  0.00    +0.000 C 
ATOM     10  C   UNL     1       5.064   5.400  17.883  0.00  0.00    +0.000 C 
BRANCH  10  11
ATOM     11  N   UNL     1       5.978   6.049  17.094  0.00  0.00    +0.000 N 
ATOM     12  C   UNL     1       7.218   6.531  17.419  0.00  0.00    +0.000 C 
ATOM     13  C   UNL     1       7.820   6.246  18.773  0.00  0.00    +0.000 C 
ATOM     14  O   UNL     1       7.837   7.195  16.587  0.00  0.00    +0.000 OA
ATOM     15  H   UNL     1       5.713   6.281  16.146  0.00  0.00    +0.000 HD
ENDBRANCH  10  11
ENDBRANCH   6   9
TORSDOF 3
ENDMDL
MODEL 9
REMARK VINA RESULT:      -6.0      2.990      4.304
REMARK  Name = 
REMARK  5 active torsions:
REMARK  status: ('A' for Active; 'I' for Inactive)
REMARK    1  A    between atoms: C_1  and  O_2
REMARK    2  A    between atoms: O_2  and  C_3
REMARK    3  A    between atoms: C_8  and  C_9
REMARK    4  A    between atoms: C_10  and  N_11
REMARK    5  A    between atoms: C_12  and  C_13
REMARK                            x       y       z     vdW  Elec       q    Type
REMARK                         _______ _______ _______ _____ _____    ______ ____
ROOT
ATOM      1  C   UNL     1       3.789   4.244  17.261  0.00  0.00    +0.000 A 
ATOM      2  C   UNL     1       3.198   5.099  18.203  0.00  0.00    +0.000 A 
ATOM      3  C   UNL     1       3.487   6.464  18.210  0.00  0.00    +0.000 A 
ATOM      4  C   UNL     1       4.366   6.991  17.273  0.00  0.00    +0.000 A 
ATOM      5  C   UNL     1       4.988   6.147  16.352  0.00  0.00    +0.000 A 
ATOM      6  C   UNL     1       4.741   4.760  16.352  0.00  0.00    +0.000 A 
ENDROOT
BRANCH   1   8
ATOM      7  C   UNL     1       3.641   2.185  18.440  0.00  0.00    +0.000 C 
ATOM      8  O   UNL     1       3.504   2.899  17.215  0.00  0.00    +0.000 OA
ENDBRANCH   1   8
BRANCH   6   9
ATOM      9  C   UNL     1       5.519   3.972  15.368  0.00  0.00    +0.000 C 
ATOM     10  C   UNL     1       5.682   4.299  14.079  0.00  0.00    +0.000 C 
BRANCH  10  11
ATOM     11  N   UNL     1       6.317   3.470  13.192  0.00  0.00    +0.000 N 
ATOM     12  C   UNL     1       5.835   2.885  12.051  0.00  0.00    +0.000 C 
ATOM     13  C   UNL     1       4.465   3.240  11.529  0.00  0.00    +0.000 C 
ATOM     14  O   UNL     1       6.539   2.070  11.455  0.00  0.00    +0.000 OA
ATOM     15  H   UNL     1       7.260   3.171  13.407  0.00  0.00    +0.000 HD
ENDBRANCH  10  11
ENDBRANCH   6   9
TORSDOF 3
ENDMDL
