MODEL 1
REMARK VINA RESULT:      -7.6      0.000      0.000
REMARK  Name = 
REMARK  9 active torsions:
REMARK  status: ('A' for Active; 'I' for Inactive)
REMARK    1  A    between atoms: C_1  and  O_2
REMARK    2  A    between atoms: O_2  and  C_3
REMARK    3  A    between atoms: C_6  and  C_7
REMARK    4  A    between atoms: C_7  and  N_8
REMARK    5  A    between atoms: C_9  and  C_11
REMARK    6  A    between atoms: C_11  and  O_12
REMARK    7  A    between atoms: O_12  and  C_13
REMARK    8  A    between atoms: C_16  and  S_17
REMARK    9  A    between atoms: S_17  and  N_20
REMARK                            x       y       z     vdW  Elec       q    Type
REMARK                         _______ _______ _______ _____ _____    ______ ____
ROOT
ATOM      1  O   UNL     1       1.949   5.484  20.950  0.00  0.00    +0.000 OA
ENDROOT
BRANCH   1   2
ATOM      2  C   UNL     1       1.655   6.748  20.525  0.00  0.00    +0.000 A 
ATOM      3  C   UNL     1       0.839   7.478  21.392  0.00  0.00    +0.000 A 
ATOM      4  C   UNL     1       0.490   8.799  21.105  0.00  0.00    +0.000 A 
ATOM      5  C   UNL     1       0.996   9.413  19.953  0.00  0.00    +0.000 A 
ATOM      6  C   UNL     1       1.802   8.686  19.069  0.00  0.00    +0.000 A 
ATOM      7  C   UNL     1       2.138   7.352  19.359  0.00  0.00    +0.000 A 
BRANCH   5   8
ATOM      8  S   UNL     1       0.481  11.085  19.559  0.00  0.00    +0.000 S 
ATOM      9  O   UNL     1       0.433  11.820  20.808  0.00  0.00    +0.000 OA
ATOM     10  O   UNL     1       1.312  11.533  18.462  0.00  0.00    +0.000 OA
BRANCH   8  11
ATOM     11  N   UNL     1      -1.123  10.917  18.974  0.00  0.00    +0.000 NA
ATOM     12  C   UNL     1      -1.964  12.138  19.057  0.00  0.00    +0.000 C 
ATOM     13  C   UNL     1      -3.423  11.840  18.724  0.00  0.00    +0.000 C 
ATOM     14  C   UNL     1      -3.548  11.131  17.383  0.00  0.00    +0.000 C 
ATOM     15  C   UNL     1      -2.738   9.844  17.416  0.00  0.00    +0.000 C 
ATOM     16  C   UNL     1      -1.271  10.118  17.734  0.00  0.00    +0.000 C 
ENDBRANCH   8  11
ENDBRANCH   5   8
ENDBRANCH   1   2
BRANCH   1  17
ATOM     17  C   UNL     1       1.404   4.411  20.181  0.00  0.00    +0.000 C 
BRANCH  17  19
ATOM     18  N   UNL     1       2.402   4.091  17.971  0.00  0.00    +0.000 N 
ATOM     19  C   UNL     1       2.496   3.784  19.312  0.00  0.00    +0.000 C 
ATOM     20  O   UNL     1       3.329   3.007  19.769  0.00  0.00    +0.000 OA
ATOM     21  H   UNL     1       1.876   4.927  17.734  0.00  0.00    +0.000 HD
BRANCH  18  22
ATOM     22  C   UNL     1       3.372   3.596  17.021  0.00  0.00    +0.000 C 
BRANCH  22  26
ATOM     23  C   UNL     1       6.810   6.212  16.721  0.00  0.00    +0.000 A 
ATOM     24  C   UNL     1       5.529   6.731  16.905  0.00  0.00    +0.000 A 
ATOM     25  C   UNL     1       4.426   5.878  16.997  0.00  0.00    +0.000 A 
ATOM     26  C   UNL     1       4.581   4.489  16.877  0.00  0.00    +0.000 A 
ATOM     27  C   UNL     1       5.876   3.978  16.707  0.00  0.00    +0.000 A 
ATOM     28  C   UNL     1       6.983   4.834  16.619  0.00  0.00    +0.000 A 
BRANCH  23  30
ATOM     29  C   UNL     1       7.868   8.095  17.682  0.00  0.00    +0.000 C 
ATOM     30  O   UNL     1       7.809   7.146  16.624  0.00  0.00    +0.000 OA
ENDBRANCH  23  30
ENDBRANCH  22  26
ENDBRANCH  18  22
ENDBRANCH  17  19
ENDBRANCH   1  17
TORSDOF 8
ENDMDL
MODEL 2
REMARK VINA RESULT:      -7.5      2.548      8.699
REMARK  Name = 
REMARK  9 active torsions:
REMARK  status: ('A' for Active; 'I' for Inactive)
REMARK    1  A    between atoms: C_1  and  O_2
REMARK    2  A    between atoms: O_2  and  C_3
REMARK    3  A    between atoms: C_6  and  C_7
REMARK    4  A    between atoms: C_7  and  N_8
REMARK    5  A    between atoms: C_9  and  C_11
REMARK    6  A    between atoms: C_11  and  O_12
REMARK    7  A    between atoms: O_12  and  C_13
REMARK    8  A    between atoms: C_16  and  S_17
REMARK    9  A    between atoms: S_17  and  N_20
REMARK                            x       y       z     vdW  Elec       q    Type
REMARK                         _______ _______ _______ _____ _____    ______ ____
ROOT
ATOM      1  O   UNL     1       0.787   7.537  21.498  0.00  0.00    +0.000 OA
ENDROOT
BRANCH   1   2
ATOM      2  C   UNL     1       1.614   6.846  20.659  0.00  0.00    +0.000 A 
ATOM      3  C   UNL     1       1.776   5.497  20.983  0.00  0.00    +0.000 A 
ATOM      4  C   UNL     1       2.562   4.660  20.189  0.00  0.00    +0.000 A 
ATOM      5  C   UNL     1       3.165   5.169  19.034  0.00  0.00    +0.000 A 
ATOM      6  C   UNL     1       3.024   6.523  18.709  0.00  0.00    +0.000 A 
ATOM      7  C   UNL     1       2.241   7.363  19.520  0.00  0.00    +0.000 A 
BRANCH   5   8
ATOM      8  S   UNL     1       4.231   4.101  18.065  0.00  0.00    +0.000 S 
ATOM      9  O   UNL     1       4.418   2.882  18.827  0.00  0.00    +0.000 OA
ATOM     10  O   UNL     1       3.686   4.066  16.725  0.00  0.00    +0.000 OA
BRANCH   8  11
ATOM     11  N   UNL     1       5.733   4.929  18.003  0.00  0.00    +0.000 NA
ATOM     12  C   UNL     1       5.836   5.989  16.969  0.00  0.00    +0.000 C 
ATOM     13  C   UNL     1       7.263   6.514  16.841  0.00  0.00    +0.000 C 
ATOM     14  C   UNL     1       7.810   6.956  18.190  0.00  0.00    +0.000 C 
ATOM     15  C   UNL     1       7.760   5.786  19.161  0.00  0.00    +0.000 C 
ATOM     16  C   UNL     1       6.339   5.252  19.317  0.00  0.00    +0.000 C 
ENDBRANCH   8  11
ENDBRANCH   5   8
ENDBRANCH   1   2
BRANCH   1  17
ATOM     17  C   UNL     1       1.226   8.836  21.898  0.00  0.00    +0.000 C 
BRANCH  17  19
ATOM     18  N   UNL     1       0.178  10.646  20.630  0.00  0.00    +0.000 N 
ATOM     19  C   UNL     1       0.085   9.843  21.747  0.00  0.00    +0.000 C 
ATOM     20  O   UNL     1      -0.790   9.973  22.599  0.00  0.00    +0.000 OA
ATOM     21  H   UNL     1       0.752  10.297  19.868  0.00  0.00    +0.000 HD
BRANCH  18  22
ATOM     22  C   UNL     1      -0.835  11.632  20.331  0.00  0.00    +0.000 C 
BRANCH  22  26
ATOM     23  C   UNL     1      -3.222  10.793  16.816  0.00  0.00    +0.000 A 
ATOM     24  C   UNL     1      -3.705  11.620  17.829  0.00  0.00    +0.000 A 
ATOM     25  C   UNL     1      -2.928  11.882  18.961  0.00  0.00    +0.000 A 
ATOM     26  C   UNL     1      -1.662  11.295  19.113  0.00  0.00    +0.000 A 
ATOM     27  C   UNL     1      -1.182  10.476  18.081  0.00  0.00    +0.000 A 
ATOM     28  C   UNL     1      -1.960  10.218  16.944  0.00  0.00    +0.000 A 
BRANCH  23  30
ATOM     29  C   UNL     1      -3.489  10.095  14.574  0.00  0.00    +0.000 C 
ATOM     30  O   UNL     1      -4.082  10.593  15.768  0.00  0.00    +0.000 OA
ENDBRANCH  23  30
ENDBRANCH  22  26
ENDBRANCH  18  22
ENDBRANCH  17  19
ENDBRANCH   1  17
TORSDOF 8
ENDMDL
MODEL 3
REMARK VINA RESULT:      -7.5      2.602      9.076
REMARK  Name = 
REMARK  9 active torsions:
REMARK  status: ('A' for Active; 'I' for Inactive)
REMARK    1  A    between atoms: C_1  and  O_2
REMARK    2  A    between atoms: O_2  and  C_3
REMARK    3  A    between atoms: C_6  and  C_7
REMARK    4  A    between atoms: C_7  and  N_8
REMARK    5  A    between atoms: C_9  and  C_11
REMARK    6  A    between atoms: C_11  and  O_12
REMARK    7  A    between atoms: O_12  and  C_13
REMARK    8  A    between atoms: C_16  and  S_17
REMARK    9  A    between atoms: S_17  and  N_20
REMARK                            x       y       z     vdW  Elec       q    Type
REMARK                         _______ _______ _______ _____ _____    ______ ____
ROOT
ATOM      1  O   UNL     1       0.697   7.700  21.003  0.00  0.00    +0.000 OA
ENDROOT
BRANCH   1   2
ATOM      2  C   UNL     1       1.608   6.885  20.396  0.00  0.00    +0.000 A 
ATOM      3  C   UNL     1       1.700   5.604  20.944  0.00  0.00    +0.000 A 
ATOM      4  C   UNL     1       2.562   4.651  20.398  0.00  0.00    +0.000 A 
ATOM      5  C   UNL     1       3.316   4.971  19.264  0.00  0.00    +0.000 A 
ATOM      6  C   UNL     1       3.245   6.256  18.715  0.00  0.00    +0.000 A 
ATOM      7  C   UNL     1       2.384   7.215  19.279  0.00  0.00    +0.000 A 
BRANCH   5   8
ATOM      8  S   UNL     1       4.473   3.762  18.618  0.00  0.00    +0.000 S 
ATOM      9  O   UNL     1       4.792   2.857  19.704  0.00  0.00    +0.000 OA
ATOM     10  O   UNL     1       3.917   3.269  17.376  0.00  0.00    +0.000 OA
BRANCH   8  11
ATOM     11  N   UNL     1       5.881   4.668  18.244  0.00  0.00    +0.000 NA
ATOM     12  C   UNL     1       5.869   5.352  16.926  0.00  0.00    +0.000 C 
ATOM     13  C   UNL     1       7.234   5.944  16.586  0.00  0.00    +0.000 C 
ATOM     14  C   UNL     1       7.740   6.839  17.707  0.00  0.00    +0.000 C 
ATOM     15  C   UNL     1       7.816   6.037  18.998  0.00  0.00    +0.000 C 
ATOM     16  C   UNL     1       6.458   5.446  19.366  0.00  0.00    +0.000 C 
ENDBRANCH   8  11
ENDBRANCH   5   8
ENDBRANCH   1   2
BRANCH   1  17
ATOM     17  C   UNL     1       1.223   8.733  21.838  0.00  0.00    +0.000 C 
BRANCH  17  19
ATOM     18  N   UNL     1       0.418  10.270  20.114  0.00  0.00    +0.000 N 
ATOM     19  C   UNL     1       0.592  10.076  21.469  0.00  0.00    +0.000 C 
ATOM     20  O   UNL     1       0.344  10.936  22.310  0.00  0.00    +0.000 OA
ATOM     21  H   UNL     1       0.392   9.435  19.537  0.00  0.00    +0.000 HD
BRANCH  18  22
ATOM     22  C   UNL     1      -0.188  11.478  19.604  0.00  0.00    +0.000 C 
BRANCH  22  26
ATOM     23  C   UNL     1      -4.180  11.001  17.995  0.00  0.00    +0.000 A 
ATOM     24  C   UNL     1      -3.892  12.014  18.909  0.00  0.00    +0.000 A 
ATOM     25  C   UNL     1      -2.601  12.157  19.424  0.00  0.00    +0.000 A 
ATOM     26  C   UNL     1      -1.579  11.268  19.057  0.00  0.00    +0.000 A 
ATOM     27  C   UNL     1      -1.877  10.263  18.127  0.00  0.00    +0.000 A 
ATOM     28  C   UNL     1      -3.172  10.123  17.607  0.00  0.00    +0.000 A 
BRANCH  23  30
ATOM     29  C   UNL     1      -6.437  10.616  18.580  0.00  0.00    +0.000 C 
ATOM     30  O   UNL     1      -5.484  10.947  17.577  0.00  0.00    +0.000 OA
ENDBRANCH  23  30
ENDBRANCH  22  26
ENDBRANCH  18  22
ENDBRANCH  17  19
ENDBRANCH   1  17
TORSDOF 8
ENDMDL
MODEL 4
REMARK VINA RESULT:      -7.4      3.344     10.064
REMARK  Name = 
REMARK  9 active torsions:
REMARK  status: ('A' for Active; 'I' for Inactive)
REMARK    1  A    between atoms: C_1  and  O_2
REMARK    2  A    between atoms: O_2  and  C_3
REMARK    3  A    between atoms: C_6  and  C_7
REMARK    4  A    between atoms: C_7  and  N_8
REMARK    5  A    between atoms: C_9  and  C_11
REMARK    6  A    between atoms: C_11  and  O_12
REMARK    7  A    between atoms: O_12  and  C_13
REMARK    8  A    between atoms: C_16  and  S_17
REMARK    9  A    between atoms: S_17  and  N_20
REMARK                            x       y       z     vdW  Elec       q    Type
REMARK                         _______ _______ _______ _____ _____    ______ ____
ROOT
ATOM      1  O   UNL     1       1.403   8.700  20.548  0.00  0.00    +0.000 OA
ENDROOT
BRANCH   1   2
ATOM      2  C   UNL     1       1.853   7.582  19.906  0.00  0.00    +0.000 A 
ATOM      3  C   UNL     1       1.730   6.400  20.640  0.00  0.00    +0.000 A 
ATOM      4  C   UNL     1       2.113   5.174  20.093  0.00  0.00    +0.000 A 
ATOM      5  C   UNL     1       2.591   5.123  18.779  0.00  0.00    +0.000 A 
ATOM      6  C   UNL     1       2.733   6.302  18.039  0.00  0.00    +0.000 A 
ATOM      7  C   UNL     1       2.358   7.535  18.601  0.00  0.00    +0.000 A 
BRANCH   5   8
ATOM      8  S   UNL     1       3.147   3.553  18.115  0.00  0.00    +0.000 S 
ATOM      9  O   UNL     1       3.230   2.626  19.227  0.00  0.00    +0.000 OA
ATOM     10  O   UNL     1       2.318   3.264  16.964  0.00  0.00    +0.000 OA
BRANCH   8  11
ATOM     11  N   UNL     1       4.740   3.860  17.554  0.00  0.00    +0.000 NA
ATOM     12  C   UNL     1       4.856   4.193  16.112  0.00  0.00    +0.000 C 
ATOM     13  C   UNL     1       6.313   4.232  15.659  0.00  0.00    +0.000 C 
ATOM     14  C   UNL     1       7.139   5.155  16.542  0.00  0.00    +0.000 C 
ATOM     15  C   UNL     1       7.045   4.687  17.987  0.00  0.00    +0.000 C 
ATOM     16  C   UNL     1       5.597   4.653  18.467  0.00  0.00    +0.000 C 
ENDBRANCH   8  11
ENDBRANCH   5   8
ENDBRANCH   1   2
BRANCH   1  17
ATOM     17  C   UNL     1       0.381   8.504  21.526  0.00  0.00    +0.000 C 
BRANCH  17  19
ATOM     18  N   UNL     1      -0.295  10.855  21.519  0.00  0.00    +0.000 N 
ATOM     19  C   UNL     1       0.140   9.803  22.297  0.00  0.00    +0.000 C 
ATOM     20  O   UNL     1       0.398   9.911  23.493  0.00  0.00    +0.000 OA
ATOM     21  H   UNL     1      -0.730  10.613  20.634  0.00  0.00    +0.000 HD
BRANCH  18  22
ATOM     22  C   UNL     1      -0.592  12.144  22.102  0.00  0.00    +0.000 C 
BRANCH  22  26
ATOM     23  C   UNL     1      -4.793  12.898  22.832  0.00  0.00    +0.000 A 
ATOM     24  C   UNL     1      -3.968  12.403  23.841  0.00  0.00    +0.000 A 
ATOM     25  C   UNL     1      -2.614  12.160  23.594  0.00  0.00    +0.000 A 
ATOM     26  C   UNL     1      -2.066  12.380  22.321  0.00  0.00    +0.000 A 
ATOM     27  C   UNL     1      -2.902  12.892  21.318  0.00  0.00    +0.000 A 
ATOM     28  C   UNL     1      -4.259  13.140  21.568  0.00  0.00    +0.000 A 
BRANCH  23  30
ATOM     29  C   UNL     1      -6.449  14.382  23.631  0.00  0.00    +0.000 C 
ATOM     30  O   UNL     1      -6.105  13.076  23.186  0.00  0.00    +0.000 OA
ENDBRANCH  23  30
ENDBRANCH  22  26
ENDBRANCH  18  22
ENDBRANCH  17  19
ENDBRANCH   1  17
TORSDOF 8
ENDMDL
MODEL 5
REMARK VINA RESULT:      -7.3      3.015      9.073
REMARK  Name = 
REMARK  9 active torsions:
REMARK  status: ('A' for Active; 'I' for Inactive)
REMARK    1  A    between atoms: C_1  and  O_2
REMARK    2  A    between atoms: O_2  and  C_3
REMARK    3  A    between atoms: C_6  and  C_7
REMARK    4  A    between atoms: C_7  and  N_8
REMARK    5  A    between atoms: C_9  and  C_11
REMARK    6  A    between atoms: C_11  and  O_12
REMARK    7  A    between atoms: O_12  and  C_13
REMARK    8  A    between atoms: C_16  and  S_17
REMARK    9  A    between atoms: S_17  and  N_20
REMARK                            x       y       z     vdW  Elec       q    Type
REMARK                         _______ _______ _______ _____ _____    ______ ____
ROOT
ATOM      1  O   UNL     1       1.898   6.701  19.081  0.00  0.00    +0.000 OA
ENDROOT
BRANCH   1   2
ATOM      2  C   UNL     1       3.094   6.556  18.437  0.00  0.00    +0.000 A 
ATOM      3  C   UNL     1       3.844   5.450  18.844  0.00  0.00    +0.000 A 
ATOM      4  C   UNL     1       5.070   5.156  18.244  0.00  0.00    +0.000 A 
ATOM      5  C   UNL     1       5.536   5.956  17.196  0.00  0.00    +0.000 A 
ATOM      6  C   UNL     1       4.801   7.076  16.790  0.00  0.00    +0.000 A 
ATOM      7  C   UNL     1       3.574   7.374  17.408  0.00  0.00    +0.000 A 
BRANCH   5   8
ATOM      8  S   UNL     1       7.145   5.609  16.484  0.00  0.00    +0.000 S 
ATOM      9  O   UNL     1       7.868   6.865  16.437  0.00  0.00    +0.000 OA
ATOM     10  O   UNL     1       7.680   4.466  17.192  0.00  0.00    +0.000 OA
BRANCH   8  11
ATOM     11  N   UNL     1       6.810   5.124  14.873  0.00  0.00    +0.000 NA
ATOM     12  C   UNL     1       7.912   5.335  13.900  0.00  0.00    +0.000 C 
ATOM     13  C   UNL     1       7.453   5.083  12.466  0.00  0.00    +0.000 C 
ATOM     14  C   UNL     1       6.803   3.715  12.328  0.00  0.00    +0.000 C 
ATOM     15  C   UNL     1       5.626   3.617  13.287  0.00  0.00    +0.000 C 
ATOM     16  C   UNL     1       6.063   3.851  14.730  0.00  0.00    +0.000 C 
ENDBRANCH   8  11
ENDBRANCH   5   8
ENDBRANCH   1   2
BRANCH   1  17
ATOM     17  C   UNL     1       1.954   6.869  20.498  0.00  0.00    +0.000 C 
BRANCH  17  19
ATOM     18  N   UNL     1       1.151   9.073  19.805  0.00  0.00    +0.000 N 
ATOM     19  C   UNL     1       1.452   8.261  20.880  0.00  0.00    +0.000 C 
ATOM     20  O   UNL     1       1.405   8.643  22.046  0.00  0.00    +0.000 OA
ATOM     21  H   UNL     1       0.959   8.604  18.925  0.00  0.00    +0.000 HD
BRANCH  18  22
ATOM     22  C   UNL     1       0.640  10.410  19.998  0.00  0.00    +0.000 C 
BRANCH  22  26
ATOM     23  C   UNL     1      -2.879  11.164  17.589  0.00  0.00    +0.000 A 
ATOM     24  C   UNL     1      -1.936  10.213  17.203  0.00  0.00    +0.000 A 
ATOM     25  C   UNL     1      -0.802   9.980  17.986  0.00  0.00    +0.000 A 
ATOM     26  C   UNL     1      -0.575  10.717  19.158  0.00  0.00    +0.000 A 
ATOM     27  C   UNL     1      -1.538  11.661  19.544  0.00  0.00    +0.000 A 
ATOM     28  C   UNL     1      -2.677  11.891  18.760  0.00  0.00    +0.000 A 
BRANCH  23  30
ATOM     29  C   UNL     1      -5.212  11.453  17.346  0.00  0.00    +0.000 C 
ATOM     30  O   UNL     1      -3.936  11.320  16.731  0.00  0.00    +0.000 OA
ENDBRANCH  23  30
ENDBRANCH  22  26
ENDBRANCH  18  22
ENDBRANCH  17  19
ENDBRANCH   1  17
TORSDOF 8
ENDMDL
MODEL 6
REMARK VINA RESULT:      -7.3      2.566      9.262
REMARK  Name = 
REMARK  9 active torsions:
REMARK  status: ('A' for Active; 'I' for Inactive)
REMARK    1  A    between atoms: C_1  and  O_2
REMARK    2  A    between atoms: O_2  and  C_3
REMARK    3  A    between atoms: C_6  and  C_7
REMARK    4  A    between atoms: C_7  and  N_8
REMARK    5  A    between atoms: C_9  and  C_11
REMARK    6  A    between atoms: C_11  and  O_12
REMARK    7  A    between atoms: O_12  and  C_13
REMARK    8  A    between atoms: C_16  and  S_17
REMARK    9  A    between atoms: S_17  and  N_20
REMARK                            x       y       z     vdW  Elec       q    Type
REMARK                         _______ _______ _______ _____ _____    ______ ____
ROOT
ATOM      1  O   UNL     1       1.608   8.227  20.939  0.00  0.00    +0.000 OA
ENDROOT
BRANCH   1   2
ATOM      2  C   UNL     1       1.932   7.058  20.310  0.00  0.00    +0.000 A 
ATOM      3  C   UNL     1       2.442   7.215  19.019  0.00  0.00    +0.000 A 
ATOM      4  C   UNL     1       2.853   6.109  18.273  0.00  0.00    +0.000 A 
ATOM      5  C   UNL     1       2.788   4.831  18.838  0.00  0.00    +0.000 A 
ATOM      6  C   UNL     1       2.264   4.660  20.125  0.00  0.00    +0.000 A 
ATOM      7  C   UNL     1       1.840   5.777  20.865  0.00  0.00    +0.000 A 
BRANCH   5   8
ATOM      8  S   UNL     1       3.250   3.414  17.842  0.00  0.00    +0.000 S 
ATOM      9  O   UNL     1       3.368   2.283  18.741  0.00  0.00    +0.000 OA
ATOM     10  O   UNL     1       2.344   3.379  16.714  0.00  0.00    +0.000 OA
BRANCH   8  11
ATOM     11  N   UNL     1       4.815   3.792  17.250  0.00  0.00    +0.000 NA
ATOM     12  C   UNL     1       4.862   4.340  15.871  0.00  0.00    +0.000 C 
ATOM     13  C   UNL     1       6.294   4.438  15.352  0.00  0.00    +0.000 C 
ATOM     14  C   UNL     1       7.178   5.210  16.319  0.00  0.00    +0.000 C 
ATOM     15  C   UNL     1       7.153   4.528  17.679  0.00  0.00    +0.000 C 
ATOM     16  C   UNL     1       5.731   4.431  18.226  0.00  0.00    +0.000 C 
ENDBRANCH   8  11
ENDBRANCH   5   8
ENDBRANCH   1   2
BRANCH   1  17
ATOM     17  C   UNL     1       0.224   8.430  21.231  0.00  0.00    +0.000 C 
BRANCH  17  19
ATOM     18  N   UNL     1      -0.111   9.971  19.362  0.00  0.00    +0.000 N 
ATOM     19  C   UNL     1      -0.220   9.803  20.727  0.00  0.00    +0.000 C 
ATOM     20  O   UNL     1      -0.562  10.702  21.490  0.00  0.00    +0.000 OA
ATOM     21  H   UNL     1      -0.088   9.124  18.803  0.00  0.00    +0.000 HD
BRANCH  18  22
ATOM     22  C   UNL     1      -0.514  11.204  18.725  0.00  0.00    +0.000 C 
BRANCH  22  26
ATOM     23  C   UNL     1      -4.677  11.383  17.545  0.00  0.00    +0.000 A 
ATOM     24  C   UNL     1      -4.243  11.970  18.733  0.00  0.00    +0.000 A 
ATOM     25  C   UNL     1      -2.898  11.904  19.106  0.00  0.00    +0.000 A 
ATOM     26  C   UNL     1      -1.965  11.221  18.310  0.00  0.00    +0.000 A 
ATOM     27  C   UNL     1      -2.411  10.646  17.112  0.00  0.00    +0.000 A 
ATOM     28  C   UNL     1      -3.760  10.717  16.736  0.00  0.00    +0.000 A 
BRANCH  23  30
ATOM     29  C   UNL     1      -6.869  11.330  18.426  0.00  0.00    +0.000 C 
ATOM     30  O   UNL     1      -6.020  11.494  17.297  0.00  0.00    +0.000 OA
ENDBRANCH  23  30
ENDBRANCH  22  26
ENDBRANCH  18  22
ENDBRANCH  17  19
ENDBRANCH   1  17
TORSDOF 8
ENDMDL
MODEL 7
REMARK VINA RESULT:      -7.3      2.616      8.738
REMARK  Name = 
REMARK  9 active torsions:
REMARK  status: ('A' for Active; 'I' for Inactive)
REMARK    1  A    between atoms: C_1  and  O_2
REMARK    2  A    between atoms: O_2  and  C_3
REMARK    3  A    between atoms: C_6  and  C_7
REMARK    4  A    between atoms: C_7  and  N_8
REMARK    5  A    between atoms: C_9  and  C_11
REMARK    6  A    between atoms: C_11  and  O_12
REMARK    7  A    between atoms: O_12  and  C_13
REMARK    8  A    between atoms: C_16  and  S_17
REMARK    9  A    between atoms: S_17  and  N_20
REMARK                            x       y       z     vdW  Elec       q    Type
REMARK                         _______ _______ _______ _____ _____    ______ ____
ROOT
ATOM      1  O   UNL     1       1.112   7.282  21.508  0.00  0.00    +0.000 OA
ENDROOT
BRANCH   1   2
ATOM      2  C   UNL     1       1.587   6.320  20.662  0.00  0.00    +0.000 A 
ATOM      3  C   UNL     1       2.273   6.812  19.549  0.00  0.00    +0.000 A 
ATOM      4  C   UNL     1       2.847   5.942  18.620  0.00  0.00    +0.000 A 
ATOM      5  C   UNL     1       2.767   4.560  18.826  0.00  0.00    +0.000 A 
ATOM      6  C   UNL     1       2.068   4.056  19.929  0.00  0.00    +0.000 A 
ATOM      7  C   UNL     1       1.482   4.938  20.853  0.00  0.00    +0.000 A 
BRANCH   5   8
ATOM      8  S   UNL     1       3.445   3.454  17.587  0.00  0.00    +0.000 S 
ATOM      9  O   UNL     1       3.988   2.310  18.291  0.00  0.00    +0.000 OA
ATOM     10  O   UNL     1       2.430   3.291  16.569  0.00  0.00    +0.000 OA
BRANCH   8  11
ATOM     11  N   UNL     1       4.750   4.327  16.896  0.00  0.00    +0.000 NA
ATOM     12  C   UNL     1       5.966   4.434  17.742  0.00  0.00    +0.000 C 
ATOM     13  C   UNL     1       6.983   5.403  17.145  0.00  0.00    +0.000 C 
ATOM     14  C   UNL     1       7.303   5.046  15.701  0.00  0.00    +0.000 C 
ATOM     15  C   UNL     1       6.020   5.054  14.884  0.00  0.00    +0.000 C 
ATOM     16  C   UNL     1       4.991   4.081  15.454  0.00  0.00    +0.000 C 
ENDBRANCH   8  11
ENDBRANCH   5   8
ENDBRANCH   1   2
BRANCH   1  17
ATOM     17  C   UNL     1       1.496   8.627  21.222  0.00  0.00    +0.000 C 
BRANCH  17  19
ATOM     18  N   UNL     1       0.291  10.501  20.214  0.00  0.00    +0.000 N 
ATOM     19  C   UNL     1       0.261   9.528  21.191  0.00  0.00    +0.000 C 
ATOM     20  O   UNL     1      -0.636   9.437  22.024  0.00  0.00    +0.000 OA
ATOM     21  H   UNL     1       0.911  10.334  19.427  0.00  0.00    +0.000 HD
BRANCH  18  22
ATOM     22  C   UNL     1      -0.813  11.417  20.037  0.00  0.00    +0.000 C 
BRANCH  22  26
ATOM     23  C   UNL     1      -3.275  10.642  16.560  0.00  0.00    +0.000 A 
ATOM     24  C   UNL     1      -3.688  11.539  17.545  0.00  0.00    +0.000 A 
ATOM     25  C   UNL     1      -2.887  11.779  18.665  0.00  0.00    +0.000 A 
ATOM     26  C   UNL     1      -1.669  11.103  18.835  0.00  0.00    +0.000 A 
ATOM     27  C   UNL     1      -1.258  10.214  17.831  0.00  0.00    +0.000 A 
ATOM     28  C   UNL     1      -2.060   9.977  16.705  0.00  0.00    +0.000 A 
BRANCH  23  30
ATOM     29  C   UNL     1      -3.569  10.100  14.278  0.00  0.00    +0.000 C 
ATOM     30  O   UNL     1      -4.152  10.473  15.521  0.00  0.00    +0.000 OA
ENDBRANCH  23  30
ENDBRANCH  22  26
ENDBRANCH  18  22
ENDBRANCH  17  19
ENDBRANCH   1  17
TORSDOF 8
ENDMDL
MODEL 8
REMARK VINA RESULT:      -7.2      3.087      9.963
REMARK  Name = 
REMARK  9 active torsions:
REMARK  status: ('A' for Active; 'I' for Inactive)
REMARK    1  A    between atoms: C_1  and  O_2
REMARK    2  A    between atoms: O_2  and  C_3
REMARK    3  A    between atoms: C_6  and  C_7
REMARK    4  A    between atoms: C_7  and  N_8
REMARK    5  A    between atoms: C_9  and  C_11
REMARK    6  A    between atoms: C_11  and  O_12
REMARK    7  A    between atoms: O_12  and  C_13
REMARK    8  A    between atoms: C_16  and  S_17
REMARK    9  A    between atoms: S_17  and  N_20
REMARK                            x       y       z     vdW  Elec       q    Type
REMARK                         _______ _______ _______ _____ _____    ______ ____
ROOT
ATOM      1  O   UNL     1       1.526   8.492  20.650  0.00  0.00    +0.000 OA
ENDROOT
BRANCH   1   2
ATOM      2  C   UNL     1       1.973   7.401  19.960  0.00  0.00    +0.000 A 
ATOM      3  C   UNL     1       1.877   6.193  20.655  0.00  0.00    +0.000 A 
ATOM      4  C   UNL     1       2.259   4.991  20.057  0.00  0.00    +0.000 A 
ATOM      5  C   UNL     1       2.710   4.990  18.733  0.00  0.00    +0.000 A 
ATOM      6  C   UNL     1       2.826   6.196  18.032  0.00  0.00    +0.000 A 
ATOM      7  C   UNL     1       2.451   7.405  18.645  0.00  0.00    +0.000 A 
BRANCH   5   8
ATOM      8  S   UNL     1       3.267   3.450  18.003  0.00  0.00    +0.000 S 
ATOM      9  O   UNL     1       3.386   2.488  19.081  0.00  0.00    +0.000 OA
ATOM     10  O   UNL     1       2.413   3.191  16.863  0.00  0.00    +0.000 OA
BRANCH   8  11
ATOM     11  N   UNL     1       4.842   3.794  17.415  0.00  0.00    +0.000 NA
ATOM     12  C   UNL     1       4.920   4.177  15.983  0.00  0.00    +0.000 C 
ATOM     13  C   UNL     1       6.365   4.248  15.497  0.00  0.00    +0.000 C 
ATOM     14  C   UNL     1       7.203   5.150  16.392  0.00  0.00    +0.000 C 
ATOM     15  C   UNL     1       7.149   4.631  17.821  0.00  0.00    +0.000 C 
ATOM     16  C   UNL     1       5.713   4.565  18.334  0.00  0.00    +0.000 C 
ENDBRANCH   8  11
ENDBRANCH   5   8
ENDBRANCH   1   2
BRANCH   1  17
ATOM     17  C   UNL     1       0.903   9.521  19.880  0.00  0.00    +0.000 C 
BRANCH  17  19
ATOM     18  N   UNL     1      -0.089  11.742  20.141  0.00  0.00    +0.000 N 
ATOM     19  C   UNL     1       0.622  10.737  20.764  0.00  0.00    +0.000 C 
ATOM     20  O   UNL     1       1.070  10.836  21.903  0.00  0.00    +0.000 OA
ATOM     21  H   UNL     1      -0.635  11.472  19.328  0.00  0.00    +0.000 HD
BRANCH  18  22
ATOM     22  C   UNL     1      -0.456  12.947  20.848  0.00  0.00    +0.000 C 
BRANCH  22  26
ATOM     23  C   UNL     1      -4.340  12.597  22.731  0.00  0.00    +0.000 A 
ATOM     24  C   UNL     1      -4.226  12.880  21.371  0.00  0.00    +0.000 A 
ATOM     25  C   UNL     1      -2.968  12.994  20.773  0.00  0.00    +0.000 A 
ATOM     26  C   UNL     1      -1.797  12.856  21.535  0.00  0.00    +0.000 A 
ATOM     27  C   UNL     1      -1.924  12.558  22.899  0.00  0.00    +0.000 A 
ATOM     28  C   UNL     1      -3.187  12.439  23.496  0.00  0.00    +0.000 A 
BRANCH  23  30
ATOM     29  C   UNL     1      -6.171  13.760  23.669  0.00  0.00    +0.000 C 
ATOM     30  O   UNL     1      -5.623  12.531  23.207  0.00  0.00    +0.000 OA
ENDBRANCH  23  30
ENDBRANCH  22  26
ENDBRANCH  18  22
ENDBRANCH  17  19
ENDBRANCH   1  17
TORSDOF 8
ENDMDL
MODEL 9
REMARK VINA RESULT:      -7.2      2.504      9.107
REMARK  Name = 
REMARK  9 active torsions:
REMARK  status: ('A' for Active; 'I' for Inactive)
REMARK    1  A    between atoms: C_1  and  O_2
REMARK    2  A    between atoms: O_2  and  C_3
REMARK    3  A    between atoms: C_6  and  C_7
REMARK    4  A    between atoms: C_7  and  N_8
REMARK    5  A    between atoms: C_9  and  C_11
REMARK    6  A    between atoms: C_11  and  O_12
REMARK    7  A    between atoms: O_12  and  C_13
REMARK    8  A    between atoms: C_16  and  S_17
REMARK    9  A    between atoms: S_17  and  N_20
REMARK                            x       y       z     vdW  Elec       q    Type
REMARK                         _______ _______ _______ _____ _____    ______ ____
ROOT
ATOM      1  O   UNL     1       0.691   7.663  20.942  0.00  0.00    +0.000 OA
ENDROOT
BRANCH   1   2
ATOM      2  C   UNL     1       1.454   6.629  20.479  0.00  0.00    +0.000 A 
ATOM      3  C   UNL     1       2.459   7.002  19.584  0.00  0.00    +0.000 A 
ATOM      4  C   UNL     1       3.340   6.055  19.061  0.00  0.00    +0.000 A 
ATOM      5  C   UNL     1       3.241   4.720  19.468  0.00  0.00    +0.000 A 
ATOM      6  C   UNL     1       2.229   4.331  20.352  0.00  0.00    +0.000 A 
ATOM      7  C   UNL     1       1.336   5.289  20.864  0.00  0.00    +0.000 A 
BRANCH   5   8
ATOM      8  S   UNL     1       4.333   3.502  18.733  0.00  0.00    +0.000 S 
ATOM      9  O   UNL     1       5.266   3.091  19.763  0.00  0.00    +0.000 OA
ATOM     10  O   UNL     1       3.492   2.535  18.060  0.00  0.00    +0.000 OA
BRANCH   8  11
ATOM     11  N   UNL     1       5.204   4.368  17.535  0.00  0.00    +0.000 NA
ATOM     12  C   UNL     1       6.645   4.583  17.823  0.00  0.00    +0.000 C 
ATOM     13  C   UNL     1       7.282   5.542  16.822  0.00  0.00    +0.000 C 
ATOM     14  C   UNL     1       7.032   5.090  15.391  0.00  0.00    +0.000 C 
ATOM     15  C   UNL     1       5.533   4.990  15.149  0.00  0.00    +0.000 C 
ATOM     16  C   UNL     1       4.875   4.024  16.131  0.00  0.00    +0.000 C 
ENDBRANCH   8  11
ENDBRANCH   5   8
ENDBRANCH   1   2
BRANCH   1  17
ATOM     17  C   UNL     1       1.369   8.665  21.700  0.00  0.00    +0.000 C 
BRANCH  17  19
ATOM     18  N   UNL     1       0.827  10.107  19.799  0.00  0.00    +0.000 N 
ATOM     19  C   UNL     1       1.016  10.053  21.164  0.00  0.00    +0.000 C 
ATOM     20  O   UNL     1       0.988  11.046  21.887  0.00  0.00    +0.000 OA
ATOM     21  H   UNL     1       0.603   9.229  19.339  0.00  0.00    +0.000 HD
BRANCH  18  22
ATOM     22  C   UNL     1       0.464  11.341  19.142  0.00  0.00    +0.000 C 
BRANCH  22  26
ATOM     23  C   UNL     1      -3.830  11.885  18.979  0.00  0.00    +0.000 A 
ATOM     24  C   UNL     1      -3.172  11.091  18.040  0.00  0.00    +0.000 A 
ATOM     25  C   UNL     1      -1.786  10.925  18.100  0.00  0.00    +0.000 A 
ATOM     26  C   UNL     1      -1.027  11.575  19.085  0.00  0.00    +0.000 A 
ATOM     27  C   UNL     1      -1.701  12.359  20.032  0.00  0.00    +0.000 A 
ATOM     28  C   UNL     1      -3.092  12.521  19.974  0.00  0.00    +0.000 A 
BRANCH  23  30
ATOM     29  C   UNL     1      -5.773  11.014  17.956  0.00  0.00    +0.000 C 
ATOM     30  O   UNL     1      -5.185  11.990  18.806  0.00  0.00    +0.000 OA
ENDBRANCH  23  30
ENDBRANCH  22  26
ENDBRANCH  18  22
ENDBRANCH  17  19
ENDBRANCH   1  17
TORSDOF 8
ENDMDL
