MODEL 1
REMARK VINA RESULT:      -9.7      0.000      0.000
REMARK  Name = 
REMARK  5 active torsions:
REMARK  status: ('A' for Active; 'I' for Inactive)
REMARK    1  A    between atoms: C_2  and  C_3
REMARK    2  A    between atoms: C_22  and  C_23
REMARK    3  A    between atoms: C_23  and  N_24
REMARK    4  A    between atoms: N_24  and  S_25
REMARK    5  A    between atoms: S_25  and  C_28
REMARK                            x       y       z     vdW  Elec       q    Type
REMARK                         _______ _______ _______ _____ _____    ______ ____
ROOT
ATOM      1  O   UNL     1       2.823   8.568  17.985  0.00  0.00    +0.000 OA
ATOM      2  C   UNL     1       2.217   7.985  18.884  0.00  0.00    +0.000 C 
ATOM      3  N   UNL     1       2.221   6.575  18.924  0.00  0.00    +0.000 N 
ATOM      4  C   UNL     1       1.588   5.784  19.976  0.00  0.00    +0.000 C 
ATOM      5  C   UNL     1       2.142   4.402  20.149  0.00  0.00    +0.000 A 
ATOM      6  C   UNL     1       2.225   3.820  21.412  0.00  0.00    +0.000 A 
ATOM      7  C   UNL     1       2.680   2.510  21.541  0.00  0.00    +0.000 A 
ATOM      8  C   UNL     1       3.025   1.782  20.403  0.00  0.00    +0.000 A 
ATOM      9  C   UNL     1       2.920   2.352  19.132  0.00  0.00    +0.000 A 
ATOM     10  C   UNL     1       2.486   3.671  19.002  0.00  0.00    +0.000 A 
ATOM     11  C   UNL     1       2.364   4.378  17.679  0.00  0.00    +0.000 C 
ATOM     12  C   UNL     1       2.896   5.830  17.812  0.00  0.00    +0.000 C 
ENDROOT
BRANCH   2  13
ATOM     13  C   UNL     1       1.453   8.816  19.900  0.00  0.00    +0.000 A 
ATOM     14  C   UNL     1       1.662   8.591  21.274  0.00  0.00    +0.000 A 
ATOM     15  C   UNL     1       0.991   9.318  22.251  0.00  0.00    +0.000 A 
ATOM     16  C   UNL     1      -0.024  10.182  21.879  0.00  0.00    +0.000 A 
ATOM     17  C   UNL     1      -0.355  10.352  20.532  0.00  0.00    +0.000 A 
ATOM     18  C   UNL     1      -1.476  11.135  20.215  0.00  0.00    +0.000 A 
ATOM     19  C   UNL     1      -1.849  11.349  18.894  0.00  0.00    +0.000 A 
ATOM     20  C   UNL     1      -1.071  10.827  17.873  0.00  0.00    +0.000 A 
ATOM     21  C   UNL     1       0.046  10.037  18.173  0.00  0.00    +0.000 A 
ATOM     22  C   UNL     1       0.412   9.722  19.508  0.00  0.00    +0.000 A 
ENDBRANCH   2  13
BRANCH  12  23
ATOM     23  C   UNL     1       4.446   5.853  17.963  0.00  0.00    +0.000 C 
BRANCH  23  24
ATOM     24  N   UNL     1       5.099   5.000  16.942  0.00  0.00    +0.000 NA
ATOM     25  H   UNL     1       4.539   4.744  16.127  0.00  0.00    +0.000 HD
BRANCH  24  26
ATOM     26  S   UNL     1       6.659   5.418  16.455  0.00  0.00    +0.000 S 
ATOM     27  O   UNL     1       6.716   6.862  16.465  0.00  0.00    +0.000 OA
ATOM     28  O   UNL     1       7.588   4.623  17.231  0.00  0.00    +0.000 OA
BRANCH  26  29
ATOM     29  C   UNL     1       6.716   4.885  14.768  0.00  0.00    +0.000 A 
ATOM     30  C   UNL     1       5.817   3.911  14.327  0.00  0.00    +0.000 A 
ATOM     31  C   UNL     1       5.870   3.480  13.000  0.00  0.00    +0.000 A 
ATOM     32  C   UNL     1       6.812   4.027  12.126  0.00  0.00    +0.000 A 
ATOM     33  C   UNL     1       7.700   5.009  12.568  0.00  0.00    +0.000 A 
ATOM     34  C   UNL     1       7.652   5.443  13.891  0.00  0.00    +0.000 A 
ENDBRANCH  26  29
ENDBRANCH  24  26
ENDBRANCH  23  24
ENDBRANCH  12  23
TORSDOF 5
ENDMDL
MODEL 2
REMARK VINA RESULT:      -9.4      1.966      2.655
REMARK  Name = 
REMARK  5 active torsions:
REMARK  status: ('A' for Active; 'I' for Inactive)
REMARK    1  A    between atoms: C_2  and  C_3
REMARK    2  A    between atoms: C_22  and  C_23
REMARK    3  A    between atoms: C_23  and  N_24
REMARK    4  A    between atoms: N_24  and  S_25
REMARK    5  A    between atoms: S_25  and  C_28
REMARK                            x       y       z     vdW  Elec       q    Type
REMARK                         _______ _______ _______ _____ _____    ______ ____
ROOT
ATOM      1  O   UNL     1       2.440   8.652  18.142  0.00  0.00    +0.000 OA
ATOM      2  C   UNL     1       1.889   8.072  19.079  0.00  0.00    +0.000 C 
ATOM      3  N   UNL     1       1.819   6.664  19.080  0.00  0.00    +0.000 N 
ATOM      4  C   UNL     1       1.244   5.873  20.166  0.00  0.00    +0.000 C 
ATOM      5  C   UNL     1       1.735   4.460  20.248  0.00  0.00    +0.000 A 
ATOM      6  C   UNL     1       1.903   3.833  21.481  0.00  0.00    +0.000 A 
ATOM      7  C   UNL     1       2.295   2.498  21.530  0.00  0.00    +0.000 A 
ATOM      8  C   UNL     1       2.490   1.789  20.345  0.00  0.00    +0.000 A 
ATOM      9  C   UNL     1       2.298   2.405  19.106  0.00  0.00    +0.000 A 
ATOM     10  C   UNL     1       1.928   3.748  19.054  0.00  0.00    +0.000 A 
ATOM     11  C   UNL     1       1.721   4.504  17.768  0.00  0.00    +0.000 C 
ATOM     12  C   UNL     1       2.343   5.920  17.888  0.00  0.00    +0.000 C 
ENDROOT
BRANCH   2  13
ATOM     13  C   UNL     1       1.272   8.909  20.186  0.00  0.00    +0.000 A 
ATOM     14  C   UNL     1       1.507   8.560  21.529  0.00  0.00    +0.000 A 
ATOM     15  C   UNL     1       0.967   9.285  22.585  0.00  0.00    +0.000 A 
ATOM     16  C   UNL     1       0.051  10.289  22.323  0.00  0.00    +0.000 A 
ATOM     17  C   UNL     1      -0.311  10.597  21.008  0.00  0.00    +0.000 A 
ATOM     18  C   UNL     1      -1.340  11.527  20.801  0.00  0.00    +0.000 A 
ATOM     19  C   UNL     1      -1.737  11.881  19.518  0.00  0.00    +0.000 A 
ATOM     20  C   UNL     1      -1.069  11.349  18.426  0.00  0.00    +0.000 A 
ATOM     21  C   UNL     1      -0.043  10.413  18.617  0.00  0.00    +0.000 A 
ATOM     22  C   UNL     1       0.334   9.958  19.908  0.00  0.00    +0.000 A 
ENDBRANCH   2  13
BRANCH  12  23
ATOM     23  C   UNL     1       3.899   5.856  17.891  0.00  0.00    +0.000 C 
BRANCH  23  24
ATOM     24  N   UNL     1       4.398   4.856  16.919  0.00  0.00    +0.000 NA
ATOM     25  H   UNL     1       3.703   4.404  16.322  0.00  0.00    +0.000 HD
BRANCH  24  26
ATOM     26  S   UNL     1       5.756   5.262  16.005  0.00  0.00    +0.000 S 
ATOM     27  O   UNL     1       6.393   4.016  15.643  0.00  0.00    +0.000 OA
ATOM     28  O   UNL     1       5.337   6.213  14.996  0.00  0.00    +0.000 OA
BRANCH  26  29
ATOM     29  C   UNL     1       6.802   6.086  17.172  0.00  0.00    +0.000 A 
ATOM     30  C   UNL     1       7.116   7.433  16.979  0.00  0.00    +0.000 A 
ATOM     31  C   UNL     1       7.951   8.080  17.891  0.00  0.00    +0.000 A 
ATOM     32  C   UNL     1       8.460   7.380  18.989  0.00  0.00    +0.000 A 
ATOM     33  C   UNL     1       8.134   6.037  19.184  0.00  0.00    +0.000 A 
ATOM     34  C   UNL     1       7.300   5.386  18.277  0.00  0.00    +0.000 A 
ENDBRANCH  26  29
ENDBRANCH  24  26
ENDBRANCH  23  24
ENDBRANCH  12  23
TORSDOF 5
ENDMDL
MODEL 3
REMARK VINA RESULT:      -9.4      0.939      2.085
REMARK  Name = 
REMARK  5 active torsions:
REMARK  status: ('A' for Active; 'I' for Inactive)
REMARK    1  A    between atoms: C_2  and  C_3
REMARK    2  A    between atoms: C_22  and  C_23
REMARK    3  A    between atoms: C_23  and  N_24
REMARK    4  A    between atoms: N_24  and  S_25
REMARK    5  A    between atoms: S_25  and  C_28
REMARK                            x       y       z     vdW  Elec       q    Type
REMARK                         _______ _______ _______ _____ _____    ______ ____
ROOT
ATOM      1  O   UNL     1       3.409   8.493  17.761  0.00  0.00    +0.000 OA
ATOM      2  C   UNL     1       2.415   7.946  18.239  0.00  0.00    +0.000 C 
ATOM      3  N   UNL     1       2.387   6.541  18.363  0.00  0.00    +0.000 N 
ATOM      4  C   UNL     1       1.288   5.794  18.970  0.00  0.00    +0.000 C 
ATOM      5  C   UNL     1       1.656   4.440  19.495  0.00  0.00    +0.000 A 
ATOM      6  C   UNL     1       1.055   3.933  20.645  0.00  0.00    +0.000 A 
ATOM      7  C   UNL     1       1.363   2.645  21.075  0.00  0.00    +0.000 A 
ATOM      8  C   UNL     1       2.251   1.863  20.338  0.00  0.00    +0.000 A 
ATOM      9  C   UNL     1       2.838   2.357  19.171  0.00  0.00    +0.000 A 
ATOM     10  C   UNL     1       2.548   3.654  18.750  0.00  0.00    +0.000 A 
ATOM     11  C   UNL     1       3.149   4.281  17.520  0.00  0.00    +0.000 C 
ATOM     12  C   UNL     1       3.542   5.752  17.823  0.00  0.00    +0.000 C 
ENDROOT
BRANCH   2  13
ATOM     13  C   UNL     1       1.237   8.813  18.646  0.00  0.00    +0.000 A 
ATOM     14  C   UNL     1       0.507   9.496  17.654  0.00  0.00    +0.000 A 
ATOM     15  C   UNL     1      -0.579  10.307  17.964  0.00  0.00    +0.000 A 
ATOM     16  C   UNL     1      -0.868  10.579  19.290  0.00  0.00    +0.000 A 
ATOM     17  C   UNL     1      -0.098  10.021  20.315  0.00  0.00    +0.000 A 
ATOM     18  C   UNL     1      -0.346  10.432  21.633  0.00  0.00    +0.000 A 
ATOM     19  C   UNL     1       0.379   9.906  22.696  0.00  0.00    +0.000 A 
ATOM     20  C   UNL     1       1.324   8.921  22.454  0.00  0.00    +0.000 A 
ATOM     21  C   UNL     1       1.589   8.506  21.142  0.00  0.00    +0.000 A 
ATOM     22  C   UNL     1       0.932   9.079  20.022  0.00  0.00    +0.000 A 
ENDBRANCH   2  13
BRANCH  12  23
ATOM     23  C   UNL     1       4.778   5.824  18.767  0.00  0.00    +0.000 C 
BRANCH  23  24
ATOM     24  N   UNL     1       5.752   4.750  18.462  0.00  0.00    +0.000 NA
ATOM     25  H   UNL     1       5.378   3.887  18.062  0.00  0.00    +0.000 HD
BRANCH  24  26
ATOM     26  S   UNL     1       7.170   5.183  17.658  0.00  0.00    +0.000 S 
ATOM     27  O   UNL     1       7.250   6.625  17.721  0.00  0.00    +0.000 OA
ATOM     28  O   UNL     1       8.237   4.348  18.168  0.00  0.00    +0.000 OA
BRANCH  26  29
ATOM     29  C   UNL     1       6.840   4.733  15.977  0.00  0.00    +0.000 A 
ATOM     30  C   UNL     1       5.845   3.792  15.703  0.00  0.00    +0.000 A 
ATOM     31  C   UNL     1       5.593   3.426  14.380  0.00  0.00    +0.000 A 
ATOM     32  C   UNL     1       6.330   4.004  13.344  0.00  0.00    +0.000 A 
ATOM     33  C   UNL     1       7.315   4.954  13.622  0.00  0.00    +0.000 A 
ATOM     34  C   UNL     1       7.571   5.323  14.941  0.00  0.00    +0.000 A 
ENDBRANCH  26  29
ENDBRANCH  24  26
ENDBRANCH  23  24
ENDBRANCH  12  23
TORSDOF 5
ENDMDL
MODEL 4
REMARK VINA RESULT:      -8.9      1.411      1.872
REMARK  Name = 
REMARK  5 active torsions:
REMARK  status: ('A' for Active; 'I' for Inactive)
REMARK    1  A    between atoms: C_2  and  C_3
REMARK    2  A    between atoms: C_22  and  C_23
REMARK    3  A    between atoms: C_23  and  N_24
REMARK    4  A    between atoms: N_24  and  S_25
REMARK    5  A    between atoms: S_25  and  C_28
REMARK                            x       y       z     vdW  Elec       q    Type
REMARK                         _______ _______ _______ _____ _____    ______ ____
ROOT
ATOM      1  O   UNL     1       2.338   8.948  18.311  0.00  0.00    +0.000 OA
ATOM      2  C   UNL     1       1.801   8.312  19.219  0.00  0.00    +0.000 C 
ATOM      3  N   UNL     1       1.778   6.904  19.161  0.00  0.00    +0.000 N 
ATOM      4  C   UNL     1       1.222   6.051  20.210  0.00  0.00    +0.000 C 
ATOM      5  C   UNL     1       1.759   4.652  20.237  0.00  0.00    +0.000 A 
ATOM      6  C   UNL     1       1.940   3.981  21.445  0.00  0.00    +0.000 A 
ATOM      7  C   UNL     1       2.375   2.658  21.442  0.00  0.00    +0.000 A 
ATOM      8  C   UNL     1       2.601   2.006  20.231  0.00  0.00    +0.000 A 
ATOM      9  C   UNL     1       2.396   2.666  19.016  0.00  0.00    +0.000 A 
ATOM     10  C   UNL     1       1.982   3.997  19.017  0.00  0.00    +0.000 A 
ATOM     11  C   UNL     1       1.759   4.797  17.761  0.00  0.00    +0.000 C 
ATOM     12  C   UNL     1       2.333   6.228  17.944  0.00  0.00    +0.000 C 
ENDROOT
BRANCH   2  13
ATOM     13  C   UNL     1       1.150   9.083  20.354  0.00  0.00    +0.000 A 
ATOM     14  C   UNL     1       1.361   8.666  21.683  0.00  0.00    +0.000 A 
ATOM     15  C   UNL     1       0.790   9.328  22.763  0.00  0.00    +0.000 A 
ATOM     16  C   UNL     1      -0.134  10.332  22.534  0.00  0.00    +0.000 A 
ATOM     17  C   UNL     1      -0.473  10.704  21.230  0.00  0.00    +0.000 A 
ATOM     18  C   UNL     1      -1.510  11.631  21.049  0.00  0.00    +0.000 A 
ATOM     19  C   UNL     1      -1.885  12.048  19.778  0.00  0.00    +0.000 A 
ATOM     20  C   UNL     1      -1.187  11.581  18.675  0.00  0.00    +0.000 A 
ATOM     21  C   UNL     1      -0.153  10.650  18.838  0.00  0.00    +0.000 A 
ATOM     22  C   UNL     1       0.204  10.133  20.112  0.00  0.00    +0.000 A 
ENDBRANCH   2  13
BRANCH  12  23
ATOM     23  C   UNL     1       3.891   6.214  17.956  0.00  0.00    +0.000 C 
BRANCH  23  24
ATOM     24  N   UNL     1       4.415   5.658  19.225  0.00  0.00    +0.000 NA
ATOM     25  H   UNL     1       3.735   5.240  19.862  0.00  0.00    +0.000 HD
BRANCH  24  26
ATOM     26  S   UNL     1       5.793   4.689  19.145  0.00  0.00    +0.000 S 
ATOM     27  O   UNL     1       6.872   5.466  19.711  0.00  0.00    +0.000 OA
ATOM     28  O   UNL     1       5.445   3.387  19.676  0.00  0.00    +0.000 OA
BRANCH  26  29
ATOM     29  C   UNL     1       6.087   4.540  17.405  0.00  0.00    +0.000 A 
ATOM     30  C   UNL     1       7.168   5.214  16.833  0.00  0.00    +0.000 A 
ATOM     31  C   UNL     1       7.393   5.109  15.460  0.00  0.00    +0.000 A 
ATOM     32  C   UNL     1       6.542   4.330  14.671  0.00  0.00    +0.000 A 
ATOM     33  C   UNL     1       5.470   3.649  15.250  0.00  0.00    +0.000 A 
ATOM     34  C   UNL     1       5.240   3.750  16.620  0.00  0.00    +0.000 A 
ENDBRANCH  26  29
ENDBRANCH  24  26
ENDBRANCH  23  24
ENDBRANCH  12  23
TORSDOF 5
ENDMDL
MODEL 5
REMARK VINA RESULT:      -8.9      3.625      9.054
REMARK  Name = 
REMARK  5 active torsions:
REMARK  status: ('A' for Active; 'I' for Inactive)
REMARK    1  A    between atoms: C_2  and  C_3
REMARK    2  A    between atoms: C_22  and  C_23
REMARK    3  A    between atoms: C_23  and  N_24
REMARK    4  A    between atoms: N_24  and  S_25
REMARK    5  A    between atoms: S_25  and  C_28
REMARK                            x       y       z     vdW  Elec       q    Type
REMARK                         _______ _______ _______ _____ _____    ______ ____
ROOT
ATOM      1  O   UNL     1       2.122   8.029  16.988  0.00  0.00    +0.000 OA
ATOM      2  C   UNL     1       2.329   7.869  18.191  0.00  0.00    +0.000 C 
ATOM      3  N   UNL     1       1.802   8.793  19.116  0.00  0.00    +0.000 N 
ATOM      4  C   UNL     1       1.935   8.668  20.566  0.00  0.00    +0.000 C 
ATOM      5  C   UNL     1       0.893   9.393  21.361  0.00  0.00    +0.000 A 
ATOM      6  C   UNL     1       0.414   8.865  22.559  0.00  0.00    +0.000 A 
ATOM      7  C   UNL     1      -0.504   9.589  23.316  0.00  0.00    +0.000 A 
ATOM      8  C   UNL     1      -0.917  10.849  22.883  0.00  0.00    +0.000 A 
ATOM      9  C   UNL     1      -0.421  11.394  21.697  0.00  0.00    +0.000 A 
ATOM     10  C   UNL     1       0.480  10.662  20.926  0.00  0.00    +0.000 A 
ATOM     11  C   UNL     1       1.051  11.155  19.622  0.00  0.00    +0.000 C 
ATOM     12  C   UNL     1       1.076   9.995  18.591  0.00  0.00    +0.000 C 
ENDROOT
BRANCH   2  13
ATOM     13  C   UNL     1       3.183   6.691  18.628  0.00  0.00    +0.000 A 
ATOM     14  C   UNL     1       4.518   6.605  18.189  0.00  0.00    +0.000 A 
ATOM     15  C   UNL     1       5.348   5.550  18.553  0.00  0.00    +0.000 A 
ATOM     16  C   UNL     1       4.817   4.473  19.240  0.00  0.00    +0.000 A 
ATOM     17  C   UNL     1       3.465   4.452  19.596  0.00  0.00    +0.000 A 
ATOM     18  C   UNL     1       2.945   3.283  20.171  0.00  0.00    +0.000 A 
ATOM     19  C   UNL     1       1.612   3.206  20.555  0.00  0.00    +0.000 A 
ATOM     20  C   UNL     1       0.798   4.319  20.418  0.00  0.00    +0.000 A 
ATOM     21  C   UNL     1       1.300   5.491  19.839  0.00  0.00    +0.000 A 
ATOM     22  C   UNL     1       2.631   5.584  19.353  0.00  0.00    +0.000 A 
ENDBRANCH   2  13
BRANCH  12  23
ATOM     23  C   UNL     1      -0.362   9.634  18.112  0.00  0.00    +0.000 C 
BRANCH  23  24
ATOM     24  N   UNL     1      -1.010  10.784  17.439  0.00  0.00    +0.000 NA
ATOM     25  H   UNL     1      -0.475  11.250  16.704  0.00  0.00    +0.000 HD
BRANCH  24  26
ATOM     26  S   UNL     1      -2.613  10.602  16.950  0.00  0.00    +0.000 S 
ATOM     27  O   UNL     1      -2.748  11.334  15.711  0.00  0.00    +0.000 OA
ATOM     28  O   UNL     1      -2.939   9.193  17.030  0.00  0.00    +0.000 OA
BRANCH  26  29
ATOM     29  C   UNL     1      -3.521  11.474  18.195  0.00  0.00    +0.000 A 
ATOM     30  C   UNL     1      -2.828  12.118  19.222  0.00  0.00    +0.000 A 
ATOM     31  C   UNL     1      -3.543  12.794  20.212  0.00  0.00    +0.000 A 
ATOM     32  C   UNL     1      -4.939  12.826  20.166  0.00  0.00    +0.000 A 
ATOM     33  C   UNL     1      -5.626  12.191  19.131  0.00  0.00    +0.000 A 
ATOM     34  C   UNL     1      -4.919  11.514  18.139  0.00  0.00    +0.000 A 
ENDBRANCH  26  29
ENDBRANCH  24  26
ENDBRANCH  23  24
ENDBRANCH  12  23
TORSDOF 5
ENDMDL
MODEL 6
REMARK VINA RESULT:      -8.8      0.563      1.015
REMARK  Name = 
REMARK  5 active torsions:
REMARK  status: ('A' for Active; 'I' for Inactive)
REMARK    1  A    between atoms: C_2  and  C_3
REMARK    2  A    between atoms: C_22  and  C_23
REMARK    3  A    between atoms: C_23  and  N_24
REMARK    4  A    between atoms: N_24  and  S_25
REMARK    5  A    between atoms: S_25  and  C_28
REMARK                            x       y       z     vdW  Elec       q    Type
REMARK                         _______ _______ _______ _____ _____    ______ ____
ROOT
ATOM      1  O   UNL     1       2.761   8.779  18.202  0.00  0.00    +0.000 OA
ATOM      2  C   UNL     1       2.176   8.133  19.073  0.00  0.00    +0.000 C 
ATOM      3  N   UNL     1       2.229   6.724  19.046  0.00  0.00    +0.000 N 
ATOM      4  C   UNL     1       1.625   5.862  20.059  0.00  0.00    +0.000 C 
ATOM      5  C   UNL     1       2.227   4.494  20.167  0.00  0.00    +0.000 A 
ATOM      6  C   UNL     1       2.331   3.856  21.400  0.00  0.00    +0.000 A 
ATOM      7  C   UNL     1       2.831   2.557  21.467  0.00  0.00    +0.000 A 
ATOM      8  C   UNL     1       3.199   1.896  20.296  0.00  0.00    +0.000 A 
ATOM      9  C   UNL     1       3.072   2.522  19.053  0.00  0.00    +0.000 A 
ATOM     10  C   UNL     1       2.593   3.830  18.986  0.00  0.00    +0.000 A 
ATOM     11  C   UNL     1       2.445   4.595  17.698  0.00  0.00    +0.000 C 
ATOM     12  C   UNL     1       2.927   6.056  17.899  0.00  0.00    +0.000 C 
ENDROOT
BRANCH   2  13
ATOM     13  C   UNL     1       1.387   8.888  20.127  0.00  0.00    +0.000 A 
ATOM     14  C   UNL     1       1.159   8.290  21.381  0.00  0.00    +0.000 A 
ATOM     15  C   UNL     1       0.441   8.930  22.385  0.00  0.00    +0.000 A 
ATOM     16  C   UNL     1      -0.201  10.123  22.106  0.00  0.00    +0.000 A 
ATOM     17  C   UNL     1      -0.108  10.702  20.837  0.00  0.00    +0.000 A 
ATOM     18  C   UNL     1      -0.884  11.839  20.565  0.00  0.00    +0.000 A 
ATOM     19  C   UNL     1      -0.827  12.465  19.326  0.00  0.00    +0.000 A 
ATOM     20  C   UNL     1       0.051  11.991  18.363  0.00  0.00    +0.000 A 
ATOM     21  C   UNL     1       0.827  10.853  18.617  0.00  0.00    +0.000 A 
ATOM     22  C   UNL     1       0.735  10.133  19.838  0.00  0.00    +0.000 A 
ENDBRANCH   2  13
BRANCH  12  23
ATOM     23  C   UNL     1       4.476   6.124  18.051  0.00  0.00    +0.000 C 
BRANCH  23  24
ATOM     24  N   UNL     1       5.147   5.143  17.167  0.00  0.00    +0.000 NA
ATOM     25  H   UNL     1       4.589   4.747  16.409  0.00  0.00    +0.000 HD
BRANCH  24  26
ATOM     26  S   UNL     1       6.688   5.527  16.600  0.00  0.00    +0.000 S 
ATOM     27  O   UNL     1       6.758   6.970  16.553  0.00  0.00    +0.000 OA
ATOM     28  O   UNL     1       7.643   4.752  17.366  0.00  0.00    +0.000 OA
BRANCH  26  29
ATOM     29  C   UNL     1       6.670   4.932  14.933  0.00  0.00    +0.000 A 
ATOM     30  C   UNL     1       7.590   5.441  14.013  0.00  0.00    +0.000 A 
ATOM     31  C   UNL     1       7.567   4.982  12.696  0.00  0.00    +0.000 A 
ATOM     32  C   UNL     1       6.633   4.018  12.308  0.00  0.00    +0.000 A 
ATOM     33  C   UNL     1       5.723   3.504  13.233  0.00  0.00    +0.000 A 
ATOM     34  C   UNL     1       5.741   3.958  14.551  0.00  0.00    +0.000 A 
ENDBRANCH  26  29
ENDBRANCH  24  26
ENDBRANCH  23  24
ENDBRANCH  12  23
TORSDOF 5
ENDMDL
MODEL 7
REMARK VINA RESULT:      -8.7      3.483      9.256
REMARK  Name = 
REMARK  5 active torsions:
REMARK  status: ('A' for Active; 'I' for Inactive)
REMARK    1  A    between atoms: C_2  and  C_3
REMARK    2  A    between atoms: C_22  and  C_23
REMARK    3  A    between atoms: C_23  and  N_24
REMARK    4  A    between atoms: N_24  and  S_25
REMARK    5  A    between atoms: S_25  and  C_28
REMARK                            x       y       z     vdW  Elec       q    Type
REMARK                         _______ _______ _______ _____ _____    ______ ____
ROOT
ATOM      1  O   UNL     1       1.978   7.877  17.004  0.00  0.00    +0.000 OA
ATOM      2  C   UNL     1       2.156   7.742  18.215  0.00  0.00    +0.000 C 
ATOM      3  N   UNL     1       1.676   8.729  19.101  0.00  0.00    +0.000 N 
ATOM      4  C   UNL     1       1.778   8.642  20.557  0.00  0.00    +0.000 C 
ATOM      5  C   UNL     1       0.775   9.460  21.311  0.00  0.00    +0.000 A 
ATOM      6  C   UNL     1       0.243   9.004  22.515  0.00  0.00    +0.000 A 
ATOM      7  C   UNL     1      -0.636   9.811  23.233  0.00  0.00    +0.000 A 
ATOM      8  C   UNL     1      -0.957  11.081  22.754  0.00  0.00    +0.000 A 
ATOM      9  C   UNL     1      -0.407  11.553  21.560  0.00  0.00    +0.000 A 
ATOM     10  C   UNL     1       0.455  10.738  20.829  0.00  0.00    +0.000 A 
ATOM     11  C   UNL     1       1.078  11.150  19.521  0.00  0.00    +0.000 C 
ATOM     12  C   UNL     1       1.041   9.959  18.527  0.00  0.00    +0.000 C 
ENDROOT
BRANCH   2  13
ATOM     13  C   UNL     1       2.921   6.525  18.704  0.00  0.00    +0.000 A 
ATOM     14  C   UNL     1       2.331   5.674  19.657  0.00  0.00    +0.000 A 
ATOM     15  C   UNL     1       2.983   4.547  20.144  0.00  0.00    +0.000 A 
ATOM     16  C   UNL     1       4.307   4.328  19.806  0.00  0.00    +0.000 A 
ATOM     17  C   UNL     1       4.980   5.211  18.956  0.00  0.00    +0.000 A 
ATOM     18  C   UNL     1       6.354   5.020  18.751  0.00  0.00    +0.000 A 
ATOM     19  C   UNL     1       7.076   5.859  17.910  0.00  0.00    +0.000 A 
ATOM     20  C   UNL     1       6.416   6.865  17.222  0.00  0.00    +0.000 A 
ATOM     21  C   UNL     1       5.045   7.073  17.422  0.00  0.00    +0.000 A 
ATOM     22  C   UNL     1       4.289   6.295  18.338  0.00  0.00    +0.000 A 
ENDBRANCH   2  13
BRANCH  12  23
ATOM     23  C   UNL     1      -0.409   9.679  18.034  0.00  0.00    +0.000 C 
BRANCH  23  24
ATOM     24  N   UNL     1      -1.117  10.938  17.701  0.00  0.00    +0.000 NA
ATOM     25  H   UNL     1      -0.600  11.629  17.155  0.00  0.00    +0.000 HD
BRANCH  24  26
ATOM     26  S   UNL     1      -2.696  10.817  17.120  0.00  0.00    +0.000 S 
ATOM     27  O   UNL     1      -2.735  11.572  15.887  0.00  0.00    +0.000 OA
ATOM     28  O   UNL     1      -3.072   9.419  17.158  0.00  0.00    +0.000 OA
BRANCH  26  29
ATOM     29  C   UNL     1      -3.644  11.701  18.326  0.00  0.00    +0.000 A 
ATOM     30  C   UNL     1      -5.016  11.868  18.131  0.00  0.00    +0.000 A 
ATOM     31  C   UNL     1      -5.762  12.577  19.074  0.00  0.00    +0.000 A 
ATOM     32  C   UNL     1      -5.135  13.107  20.204  0.00  0.00    +0.000 A 
ATOM     33  C   UNL     1      -3.764  12.927  20.401  0.00  0.00    +0.000 A 
ATOM     34  C   UNL     1      -3.015  12.220  19.463  0.00  0.00    +0.000 A 
ENDBRANCH  26  29
ENDBRANCH  24  26
ENDBRANCH  23  24
ENDBRANCH  12  23
TORSDOF 5
ENDMDL
MODEL 8
REMARK VINA RESULT:      -8.6      3.643      8.794
REMARK  Name = 
REMARK  5 active torsions:
REMARK  status: ('A' for Active; 'I' for Inactive)
REMARK    1  A    between atoms: C_2  and  C_3
REMARK    2  A    between atoms: C_22  and  C_23
REMARK    3  A    between atoms: C_23  and  N_24
REMARK    4  A    between atoms: N_24  and  S_25
REMARK    5  A    between atoms: S_25  and  C_28
REMARK                            x       y       z     vdW  Elec       q    Type
REMARK                         _______ _______ _______ _____ _____    ______ ____
ROOT
ATOM      1  O   UNL     1       2.149   7.439  17.113  0.00  0.00    +0.000 OA
ATOM      2  C   UNL     1       2.377   7.358  18.321  0.00  0.00    +0.000 C 
ATOM      3  N   UNL     1       1.889   8.356  19.189  0.00  0.00    +0.000 N 
ATOM      4  C   UNL     1       2.049   8.328  20.641  0.00  0.00    +0.000 C 
ATOM      5  C   UNL     1       1.040   9.132  21.404  0.00  0.00    +0.000 A 
ATOM      6  C   UNL     1       0.573   8.700  22.643  0.00  0.00    +0.000 A 
ATOM      7  C   UNL     1      -0.313   9.497  23.365  0.00  0.00    +0.000 A 
ATOM      8  C   UNL     1      -0.705  10.733  22.854  0.00  0.00    +0.000 A 
ATOM      9  C   UNL     1      -0.220  11.183  21.623  0.00  0.00    +0.000 A 
ATOM     10  C   UNL     1       0.649  10.377  20.889  0.00  0.00    +0.000 A 
ATOM     11  C   UNL     1       1.204  10.765  19.544  0.00  0.00    +0.000 C 
ATOM     12  C   UNL     1       1.181   9.537  18.595  0.00  0.00    +0.000 C 
ENDROOT
BRANCH   2  13
ATOM     13  C   UNL     1       3.211   6.192  18.823  0.00  0.00    +0.000 A 
ATOM     14  C   UNL     1       4.581   6.136  18.504  0.00  0.00    +0.000 A 
ATOM     15  C   UNL     1       5.396   5.093  18.932  0.00  0.00    +0.000 A 
ATOM     16  C   UNL     1       4.827   3.999  19.560  0.00  0.00    +0.000 A 
ATOM     17  C   UNL     1       3.449   3.949  19.793  0.00  0.00    +0.000 A 
ATOM     18  C   UNL     1       2.904   2.765  20.310  0.00  0.00    +0.000 A 
ATOM     19  C   UNL     1       1.543   2.658  20.572  0.00  0.00    +0.000 A 
ATOM     20  C   UNL     1       0.723   3.757  20.372  0.00  0.00    +0.000 A 
ATOM     21  C   UNL     1       1.251   4.944  19.850  0.00  0.00    +0.000 A 
ATOM     22  C   UNL     1       2.618   5.067  19.486  0.00  0.00    +0.000 A 
ENDBRANCH   2  13
BRANCH  12  23
ATOM     23  C   UNL     1      -0.273   9.179  18.169  0.00  0.00    +0.000 C 
BRANCH  23  24
ATOM     24  N   UNL     1      -0.778  10.116  17.137  0.00  0.00    +0.000 NA
ATOM     25  H   UNL     1      -0.610   9.862  16.162  0.00  0.00    +0.000 HD
BRANCH  24  26
ATOM     26  S   UNL     1      -2.350  10.701  17.313  0.00  0.00    +0.000 S 
ATOM     27  O   UNL     1      -2.708  11.295  16.045  0.00  0.00    +0.000 OA
ATOM     28  O   UNL     1      -3.148   9.645  17.901  0.00  0.00    +0.000 OA
BRANCH  26  29
ATOM     29  C   UNL     1      -2.168  12.010  18.492  0.00  0.00    +0.000 A 
ATOM     30  C   UNL     1      -1.074  12.872  18.395  0.00  0.00    +0.000 A 
ATOM     31  C   UNL     1      -0.923  13.895  19.332  0.00  0.00    +0.000 A 
ATOM     32  C   UNL     1      -1.865  14.053  20.351  0.00  0.00    +0.000 A 
ATOM     33  C   UNL     1      -2.963  13.196  20.437  0.00  0.00    +0.000 A 
ATOM     34  C   UNL     1      -3.120  12.173  19.505  0.00  0.00    +0.000 A 
ENDBRANCH  26  29
ENDBRANCH  24  26
ENDBRANCH  23  24
ENDBRANCH  12  23
TORSDOF 5
ENDMDL
MODEL 9
REMARK VINA RESULT:      -8.6      2.239      3.389
REMARK  Name = 
REMARK  5 active torsions:
REMARK  status: ('A' for Active; 'I' for Inactive)
REMARK    1  A    between atoms: C_2  and  C_3
REMARK    2  A    between atoms: C_22  and  C_23
REMARK    3  A    between atoms: C_23  and  N_24
REMARK    4  A    between atoms: N_24  and  S_25
REMARK    5  A    between atoms: S_25  and  C_28
REMARK                            x       y       z     vdW  Elec       q    Type
REMARK                         _______ _______ _______ _____ _____    ______ ____
ROOT
ATOM      1  O   UNL     1       3.542   8.356  17.835  0.00  0.00    +0.000 OA
ATOM      2  C   UNL     1       2.532   7.824  18.296  0.00  0.00    +0.000 C 
ATOM      3  N   UNL     1       2.499   6.423  18.462  0.00  0.00    +0.000 N 
ATOM      4  C   UNL     1       1.379   5.696  19.055  0.00  0.00    +0.000 C 
ATOM      5  C   UNL     1       1.729   4.358  19.633  0.00  0.00    +0.000 A 
ATOM      6  C   UNL     1       1.089   3.886  20.777  0.00  0.00    +0.000 A 
ATOM      7  C   UNL     1       1.382   2.612  21.257  0.00  0.00    +0.000 A 
ATOM      8  C   UNL     1       2.293   1.808  20.574  0.00  0.00    +0.000 A 
ATOM      9  C   UNL     1       2.918   2.266  19.412  0.00  0.00    +0.000 A 
ATOM     10  C   UNL     1       2.644   3.549  18.942  0.00  0.00    +0.000 A 
ATOM     11  C   UNL     1       3.285   4.139  17.714  0.00  0.00    +0.000 C 
ATOM     12  C   UNL     1       3.669   5.618  17.985  0.00  0.00    +0.000 C 
ENDROOT
BRANCH   2  13
ATOM     13  C   UNL     1       1.342   8.703  18.637  0.00  0.00    +0.000 A 
ATOM     14  C   UNL     1       0.652   9.364  17.603  0.00  0.00    +0.000 A 
ATOM     15  C   UNL     1      -0.442  10.184  17.852  0.00  0.00    +0.000 A 
ATOM     16  C   UNL     1      -0.780  10.488  19.159  0.00  0.00    +0.000 A 
ATOM     17  C   UNL     1      -0.052   9.954  20.226  0.00  0.00    +0.000 A 
ATOM     18  C   UNL     1      -0.349  10.396  21.523  0.00  0.00    +0.000 A 
ATOM     19  C   UNL     1       0.334   9.894  22.624  0.00  0.00    +0.000 A 
ATOM     20  C   UNL     1       1.285   8.902  22.443  0.00  0.00    +0.000 A 
ATOM     21  C   UNL     1       1.597   8.455  21.152  0.00  0.00    +0.000 A 
ATOM     22  C   UNL     1       0.986   9.003  19.994  0.00  0.00    +0.000 A 
ENDBRANCH   2  13
BRANCH  12  23
ATOM     23  C   UNL     1       4.874   5.719  18.967  0.00  0.00    +0.000 C 
BRANCH  23  24
ATOM     24  N   UNL     1       5.846   4.623  18.741  0.00  0.00    +0.000 NA
ATOM     25  H   UNL     1       5.464   3.682  18.632  0.00  0.00    +0.000 HD
BRANCH  24  26
ATOM     26  S   UNL     1       7.064   4.879  17.603  0.00  0.00    +0.000 S 
ATOM     27  O   UNL     1       8.181   4.058  18.009  0.00  0.00    +0.000 OA
ATOM     28  O   UNL     1       6.471   4.745  16.288  0.00  0.00    +0.000 OA
BRANCH  26  29
ATOM     29  C   UNL     1       7.514   6.572  17.861  0.00  0.00    +0.000 A 
ATOM     30  C   UNL     1       6.979   7.558  17.028  0.00  0.00    +0.000 A 
ATOM     31  C   UNL     1       7.344   8.891  17.222  0.00  0.00    +0.000 A 
ATOM     32  C   UNL     1       8.232   9.230  18.245  0.00  0.00    +0.000 A 
ATOM     33  C   UNL     1       8.754   8.242  19.083  0.00  0.00    +0.000 A 
ATOM     34  C   UNL     1       8.394   6.910  18.895  0.00  0.00    +0.000 A 
ENDBRANCH  26  29
ENDBRANCH  24  26
ENDBRANCH  23  24
ENDBRANCH  12  23
TORSDOF 5
ENDMDL
