MODEL 1
REMARK VINA RESULT:      -8.1      0.000      0.000
REMARK  Name = 
REMARK  7 active torsions:
REMARK  status: ('A' for Active; 'I' for Inactive)
REMARK    1  A    between atoms: C_1  and  O_2
REMARK    2  A    between atoms: O_2  and  C_3
REMARK    3  A    between atoms: C_7  and  N_8
REMARK    4  A    between atoms: C_12  and  C_14
REMARK    5  A    between atoms: C_18  and  C_19
REMARK    6  A    between atoms: C_25  and  C_26
REMARK    7  A    between atoms: C_29  and  C_30
REMARK                            x       y       z     vdW  Elec       q    Type
REMARK                         _______ _______ _______ _____ _____    ______ ____
ROOT
ATOM      1  C   UNL     1       0.918  10.283  18.869  0.00  0.00    +0.000 A 
ATOM      2  C   UNL     1       1.963   9.869  17.895  0.00  0.00    +0.000 A 
ATOM      3  N   UNL     1       2.543   8.719  17.795  0.00  0.00    +0.000 NA
ATOM      4  C   UNL     1       2.244   7.817  18.776  0.00  0.00    +0.000 A 
ATOM      5  C   UNL     1       2.653   6.510  18.982  0.00  0.00    +0.000 A 
ATOM      6  C   UNL     1       2.138   6.183  20.266  0.00  0.00    +0.000 A 
ATOM      7  C   UNL     1       2.362   4.969  21.093  0.00  0.00    +0.000 C 
ATOM      8  N   UNL     1       1.381   7.164  20.771  0.00  0.00    +0.000 NA
ATOM      9  N   UNL     1       1.420   8.164  19.854  0.00  0.00    +0.000 N 
ATOM     10  C   UNL     1       0.753   9.409  19.896  0.00  0.00    +0.000 A 
ATOM     11  C   UNL     1      -0.119   9.679  21.095  0.00  0.00    +0.000 C 
ENDROOT
BRANCH   1  16
ATOM     12  N   UNL     1       1.947  14.946  20.518  0.00  0.00    +0.000 N 
ATOM     13  C   UNL     1       0.496  14.865  20.260  0.00  0.00    +0.000 C 
ATOM     14  C   UNL     1       0.210  14.063  18.966  0.00  0.00    +0.000 C 
ATOM     15  N   UNL     1       0.948  12.787  18.930  0.00  0.00    +0.000 N 
ATOM     16  C   UNL     1       0.230  11.610  18.793  0.00  0.00    +0.000 C 
ATOM     17  O   UNL     1      -0.991  11.635  18.618  0.00  0.00    +0.000 OA
ATOM     18  C   UNL     1       2.400  12.988  19.107  0.00  0.00    +0.000 C 
ATOM     19  C   UNL     1       2.663  13.658  20.470  0.00  0.00    +0.000 C 
BRANCH  12  24
ATOM     20  C   UNL     1       4.443  17.697  20.405  0.00  0.00    +0.000 A 
ATOM     21  C   UNL     1       3.955  18.539  21.402  0.00  0.00    +0.000 A 
ATOM     22  C   UNL     1       2.795  18.201  22.091  0.00  0.00    +0.000 A 
ATOM     23  C   UNL     1       2.126  17.010  21.789  0.00  0.00    +0.000 A 
ATOM     24  C   UNL     1       2.587  16.133  20.800  0.00  0.00    +0.000 A 
ATOM     25  C   UNL     1       3.755  16.512  20.111  0.00  0.00    +0.000 A 
BRANCH  20  27
ATOM     26  C   UNL     1       6.350  17.146  19.101  0.00  0.00    +0.000 C 
ATOM     27  O   UNL     1       5.588  18.130  19.795  0.00  0.00    +0.000 OA
ENDBRANCH  20  27
ENDBRANCH  12  24
ENDBRANCH   1  16
BRANCH   5  28
ATOM     28  C   UNL     1       3.477   5.751  18.043  0.00  0.00    +0.000 A 
ATOM     29  C   UNL     1       4.625   6.314  17.463  0.00  0.00    +0.000 A 
ATOM     30  C   UNL     1       5.386   5.606  16.529  0.00  0.00    +0.000 A 
ATOM     31  C   UNL     1       5.025   4.311  16.178  0.00  0.00    +0.000 A 
ATOM     32  C   UNL     1       3.896   3.728  16.754  0.00  0.00    +0.000 A 
ATOM     33  C   UNL     1       3.122   4.448  17.667  0.00  0.00    +0.000 A 
ENDBRANCH   5  28
TORSDOF 4
ENDMDL
MODEL 2
REMARK VINA RESULT:      -8.0      4.412      7.522
REMARK  Name = 
REMARK  7 active torsions:
REMARK  status: ('A' for Active; 'I' for Inactive)
REMARK    1  A    between atoms: C_1  and  O_2
REMARK    2  A    between atoms: O_2  and  C_3
REMARK    3  A    between atoms: C_7  and  N_8
REMARK    4  A    between atoms: C_12  and  C_14
REMARK    5  A    between atoms: C_18  and  C_19
REMARK    6  A    between atoms: C_25  and  C_26
REMARK    7  A    between atoms: C_29  and  C_30
REMARK                            x       y       z     vdW  Elec       q    Type
REMARK                         _______ _______ _______ _____ _____    ______ ____
ROOT
ATOM      1  C   UNL     1       3.113  15.625  20.019  0.00  0.00    +0.000 A 
ATOM      2  C   UNL     1       3.089  14.730  21.207  0.00  0.00    +0.000 A 
ATOM      3  N   UNL     1       2.296  13.736  21.435  0.00  0.00    +0.000 NA
ATOM      4  C   UNL     1       1.286  13.564  20.531  0.00  0.00    +0.000 A 
ATOM      5  C   UNL     1       0.280  12.616  20.444  0.00  0.00    +0.000 A 
ATOM      6  C   UNL     1      -0.550  13.088  19.390  0.00  0.00    +0.000 A 
ATOM      7  C   UNL     1      -1.862  12.574  18.919  0.00  0.00    +0.000 C 
ATOM      8  N   UNL     1      -0.045  14.176  18.798  0.00  0.00    +0.000 NA
ATOM      9  N   UNL     1       1.095  14.465  19.476  0.00  0.00    +0.000 N 
ATOM     10  C   UNL     1       2.019  15.502  19.221  0.00  0.00    +0.000 A 
ATOM     11  C   UNL     1       1.726  16.411  18.055  0.00  0.00    +0.000 C 
ENDROOT
BRANCH   1  16
ATOM     12  N   UNL     1       8.007  15.539  18.769  0.00  0.00    +0.000 N 
ATOM     13  C   UNL     1       7.727  16.832  19.424  0.00  0.00    +0.000 C 
ATOM     14  C   UNL     1       6.360  17.399  18.967  0.00  0.00    +0.000 C 
ATOM     15  N   UNL     1       5.289  16.388  19.040  0.00  0.00    +0.000 N 
ATOM     16  C   UNL     1       4.173  16.662  19.815  0.00  0.00    +0.000 C 
ATOM     17  O   UNL     1       4.039  17.760  20.359  0.00  0.00    +0.000 OA
ATOM     18  C   UNL     1       5.630  15.171  18.278  0.00  0.00    +0.000 C 
ATOM     19  C   UNL     1       6.918  14.549  18.852  0.00  0.00    +0.000 C 
BRANCH  12  24
ATOM     20  C   UNL     1      10.975  13.674  17.534  0.00  0.00    +0.000 A 
ATOM     21  C   UNL     1      11.685  14.694  16.904  0.00  0.00    +0.000 A 
ATOM     22  C   UNL     1      11.170  15.985  16.876  0.00  0.00    +0.000 A 
ATOM     23  C   UNL     1       9.944  16.261  17.490  0.00  0.00    +0.000 A 
ATOM     24  C   UNL     1       9.202  15.267  18.139  0.00  0.00    +0.000 A 
ATOM     25  C   UNL     1       9.744  13.967  18.137  0.00  0.00    +0.000 A 
BRANCH  20  27
ATOM     26  C   UNL     1      11.525  11.679  18.699  0.00  0.00    +0.000 C 
ATOM     27  O   UNL     1      11.576  12.446  17.499  0.00  0.00    +0.000 OA
ENDBRANCH  20  27
ENDBRANCH  12  24
ENDBRANCH   1  16
BRANCH   5  28
ATOM     28  C   UNL     1       0.163  11.459  21.330  0.00  0.00    +0.000 A 
ATOM     29  C   UNL     1       0.934  10.304  21.122  0.00  0.00    +0.000 A 
ATOM     30  C   UNL     1       0.788   9.180  21.940  0.00  0.00    +0.000 A 
ATOM     31  C   UNL     1      -0.115   9.202  22.995  0.00  0.00    +0.000 A 
ATOM     32  C   UNL     1      -0.880  10.345  23.227  0.00  0.00    +0.000 A 
ATOM     33  C   UNL     1      -0.751  11.458  22.391  0.00  0.00    +0.000 A 
ENDBRANCH   5  28
TORSDOF 4
ENDMDL
MODEL 3
REMARK VINA RESULT:      -8.0      4.388      6.930
REMARK  Name = 
REMARK  7 active torsions:
REMARK  status: ('A' for Active; 'I' for Inactive)
REMARK    1  A    between atoms: C_1  and  O_2
REMARK    2  A    between atoms: O_2  and  C_3
REMARK    3  A    between atoms: C_7  and  N_8
REMARK    4  A    between atoms: C_12  and  C_14
REMARK    5  A    between atoms: C_18  and  C_19
REMARK    6  A    between atoms: C_25  and  C_26
REMARK    7  A    between atoms: C_29  and  C_30
REMARK                            x       y       z     vdW  Elec       q    Type
REMARK                         _______ _______ _______ _____ _____    ______ ____
ROOT
ATOM      1  C   UNL     1       2.641  14.886  19.458  0.00  0.00    +0.000 A 
ATOM      2  C   UNL     1       1.701  14.569  18.350  0.00  0.00    +0.000 A 
ATOM      3  N   UNL     1       0.791  13.652  18.320  0.00  0.00    +0.000 NA
ATOM      4  C   UNL     1       0.773  12.800  19.389  0.00  0.00    +0.000 A 
ATOM      5  C   UNL     1      -0.052  11.733  19.702  0.00  0.00    +0.000 A 
ATOM      6  C   UNL     1       0.557  11.148  20.845  0.00  0.00    +0.000 A 
ATOM      7  C   UNL     1       0.214   9.891  21.560  0.00  0.00    +0.000 C 
ATOM      8  N   UNL     1       1.609  11.854  21.274  0.00  0.00    +0.000 NA
ATOM      9  N   UNL     1       1.738  12.884  20.400  0.00  0.00    +0.000 N 
ATOM     10  C   UNL     1       2.677  13.939  20.431  0.00  0.00    +0.000 A 
ATOM     11  C   UNL     1       3.666  13.943  21.569  0.00  0.00    +0.000 C 
ENDROOT
BRANCH   1  16
ATOM     12  N   UNL     1       7.577  15.539  18.600  0.00  0.00    +0.000 N 
ATOM     13  C   UNL     1       7.080  16.726  19.323  0.00  0.00    +0.000 C 
ATOM     14  C   UNL     1       5.684  17.147  18.801  0.00  0.00    +0.000 C 
ATOM     15  N   UNL     1       4.757  16.003  18.715  0.00  0.00    +0.000 N 
ATOM     16  C   UNL     1       3.563  16.065  19.416  0.00  0.00    +0.000 C 
ATOM     17  O   UNL     1       3.244  17.088  20.026  0.00  0.00    +0.000 OA
ATOM     18  C   UNL     1       5.312  14.908  17.895  0.00  0.00    +0.000 C 
ATOM     19  C   UNL     1       6.629  14.413  18.523  0.00  0.00    +0.000 C 
BRANCH  12  24
ATOM     20  C   UNL     1      10.809  14.166  17.384  0.00  0.00    +0.000 A 
ATOM     21  C   UNL     1      11.456  15.331  16.977  0.00  0.00    +0.000 A 
ATOM     22  C   UNL     1      10.813  16.558  17.089  0.00  0.00    +0.000 A 
ATOM     23  C   UNL     1       9.521  16.623  17.622  0.00  0.00    +0.000 A 
ATOM     24  C   UNL     1       8.839  15.478  18.050  0.00  0.00    +0.000 A 
ATOM     25  C   UNL     1       9.512  14.249  17.908  0.00  0.00    +0.000 A 
BRANCH  20  27
ATOM     26  C   UNL     1      11.523  12.102  18.317  0.00  0.00    +0.000 C 
ATOM     27  O   UNL     1      11.536  13.018  17.226  0.00  0.00    +0.000 OA
ENDBRANCH  20  27
ENDBRANCH  12  24
ENDBRANCH   1  16
BRANCH   5  28
ATOM     28  C   UNL     1      -1.229  11.350  18.924  0.00  0.00    +0.000 A 
ATOM     29  C   UNL     1      -2.451  12.026  19.073  0.00  0.00    +0.000 A 
ATOM     30  C   UNL     1      -3.589  11.629  18.366  0.00  0.00    +0.000 A 
ATOM     31  C   UNL     1      -3.517  10.564  17.477  0.00  0.00    +0.000 A 
ATOM     32  C   UNL     1      -2.309   9.888  17.304  0.00  0.00    +0.000 A 
ATOM     33  C   UNL     1      -1.179  10.270  18.033  0.00  0.00    +0.000 A 
ENDBRANCH   5  28
TORSDOF 4
ENDMDL
MODEL 4
REMARK VINA RESULT:      -7.8      4.477     10.330
REMARK  Name = 
REMARK  7 active torsions:
REMARK  status: ('A' for Active; 'I' for Inactive)
REMARK    1  A    between atoms: C_1  and  O_2
REMARK    2  A    between atoms: O_2  and  C_3
REMARK    3  A    between atoms: C_7  and  N_8
REMARK    4  A    between atoms: C_12  and  C_14
REMARK    5  A    between atoms: C_18  and  C_19
REMARK    6  A    between atoms: C_25  and  C_26
REMARK    7  A    between atoms: C_29  and  C_30
REMARK                            x       y       z     vdW  Elec       q    Type
REMARK                         _______ _______ _______ _____ _____    ______ ____
ROOT
ATOM      1  C   UNL     1      -1.390  12.648  20.245  0.00  0.00    +0.000 A 
ATOM      2  C   UNL     1      -2.847  12.379  20.371  0.00  0.00    +0.000 A 
ATOM      3  N   UNL     1      -3.659  12.816  21.276  0.00  0.00    +0.000 NA
ATOM      4  C   UNL     1      -3.083  13.512  22.302  0.00  0.00    +0.000 A 
ATOM      5  C   UNL     1      -3.628  14.132  23.415  0.00  0.00    +0.000 A 
ATOM      6  C   UNL     1      -2.497  14.517  24.185  0.00  0.00    +0.000 A 
ATOM      7  C   UNL     1      -2.439  15.101  25.550  0.00  0.00    +0.000 C 
ATOM      8  N   UNL     1      -1.346  14.258  23.556  0.00  0.00    +0.000 NA
ATOM      9  N   UNL     1      -1.693  13.661  22.388  0.00  0.00    +0.000 N 
ATOM     10  C   UNL     1      -0.844  13.224  21.347  0.00  0.00    +0.000 A 
ATOM     11  C   UNL     1       0.636  13.442  21.534  0.00  0.00    +0.000 C 
ENDROOT
BRANCH   1  16
ATOM     12  N   UNL     1       1.705   8.759  19.334  0.00  0.00    +0.000 N 
ATOM     13  C   UNL     1       1.995   9.814  18.342  0.00  0.00    +0.000 C 
ATOM     14  C   UNL     1       0.688  10.477  17.842  0.00  0.00    +0.000 C 
ATOM     15  N   UNL     1      -0.201  10.859  18.955  0.00  0.00    +0.000 N 
ATOM     16  C   UNL     1      -0.586  12.185  19.069  0.00  0.00    +0.000 C 
ATOM     17  O   UNL     1      -0.266  13.009  18.210  0.00  0.00    +0.000 OA
ATOM     18  C   UNL     1      -0.502   9.712  19.836  0.00  0.00    +0.000 C 
ATOM     19  C   UNL     1       0.810   9.165  20.433  0.00  0.00    +0.000 C 
BRANCH  12  24
ATOM     20  C   UNL     1       3.547   5.810  18.024  0.00  0.00    +0.000 A 
ATOM     21  C   UNL     1       3.306   4.878  19.032  0.00  0.00    +0.000 A 
ATOM     22  C   UNL     1       2.554   5.237  20.144  0.00  0.00    +0.000 A 
ATOM     23  C   UNL     1       2.029   6.530  20.245  0.00  0.00    +0.000 A 
ATOM     24  C   UNL     1       2.242   7.493  19.252  0.00  0.00    +0.000 A 
ATOM     25  C   UNL     1       3.021   7.103  18.146  0.00  0.00    +0.000 A 
BRANCH  20  27
ATOM     26  C   UNL     1       4.393   3.933  16.841  0.00  0.00    +0.000 C 
ATOM     27  O   UNL     1       4.300   5.347  16.980  0.00  0.00    +0.000 OA
ENDBRANCH  20  27
ENDBRANCH  12  24
ENDBRANCH   1  16
BRANCH   5  28
ATOM     28  C   UNL     1      -5.063  14.254  23.665  0.00  0.00    +0.000 A 
ATOM     29  C   UNL     1      -5.852  13.126  23.943  0.00  0.00    +0.000 A 
ATOM     30  C   UNL     1      -7.232  13.237  24.135  0.00  0.00    +0.000 A 
ATOM     31  C   UNL     1      -7.842  14.483  24.077  0.00  0.00    +0.000 A 
ATOM     32  C   UNL     1      -7.074  15.618  23.816  0.00  0.00    +0.000 A 
ATOM     33  C   UNL     1      -5.699  15.501  23.598  0.00  0.00    +0.000 A 
ENDBRANCH   5  28
TORSDOF 4
ENDMDL
MODEL 5
REMARK VINA RESULT:      -7.7      4.694      8.452
REMARK  Name = 
REMARK  7 active torsions:
REMARK  status: ('A' for Active; 'I' for Inactive)
REMARK    1  A    between atoms: C_1  and  O_2
REMARK    2  A    between atoms: O_2  and  C_3
REMARK    3  A    between atoms: C_7  and  N_8
REMARK    4  A    between atoms: C_12  and  C_14
REMARK    5  A    between atoms: C_18  and  C_19
REMARK    6  A    between atoms: C_25  and  C_26
REMARK    7  A    between atoms: C_29  and  C_30
REMARK                            x       y       z     vdW  Elec       q    Type
REMARK                         _______ _______ _______ _____ _____    ______ ____
ROOT
ATOM      1  C   UNL     1       5.140  15.920  18.715  0.00  0.00    +0.000 A 
ATOM      2  C   UNL     1       5.795  14.840  17.930  0.00  0.00    +0.000 A 
ATOM      3  N   UNL     1       7.007  14.406  18.036  0.00  0.00    +0.000 NA
ATOM      4  C   UNL     1       7.814  15.104  18.891  0.00  0.00    +0.000 A 
ATOM      5  C   UNL     1       9.135  14.924  19.264  0.00  0.00    +0.000 A 
ATOM      6  C   UNL     1       9.438  16.080  20.034  0.00  0.00    +0.000 A 
ATOM      7  C   UNL     1      10.740  16.527  20.594  0.00  0.00    +0.000 C 
ATOM      8  N   UNL     1       8.367  16.860  20.218  0.00  0.00    +0.000 NA
ATOM      9  N   UNL     1       7.357  16.259  19.539  0.00  0.00    +0.000 N 
ATOM     10  C   UNL     1       6.007  16.666  19.448  0.00  0.00    +0.000 A 
ATOM     11  C   UNL     1       5.617  17.917  20.192  0.00  0.00    +0.000 C 
ENDROOT
BRANCH   1  16
ATOM     12  N   UNL     1       0.859  13.865  20.441  0.00  0.00    +0.000 N 
ATOM     13  C   UNL     1       0.523  14.704  19.273  0.00  0.00    +0.000 C 
ATOM     14  C   UNL     1       1.337  16.021  19.287  0.00  0.00    +0.000 C 
ATOM     15  N   UNL     1       2.773  15.783  19.524  0.00  0.00    +0.000 N 
ATOM     16  C   UNL     1       3.682  16.238  18.583  0.00  0.00    +0.000 C 
ATOM     17  O   UNL     1       3.307  16.903  17.615  0.00  0.00    +0.000 OA
ATOM     18  C   UNL     1       3.005  15.014  20.763  0.00  0.00    +0.000 C 
ATOM     19  C   UNL     1       2.301  13.647  20.658  0.00  0.00    +0.000 C 
BRANCH  12  24
ATOM     20  C   UNL     1      -0.924  11.415  22.592  0.00  0.00    +0.000 A 
ATOM     21  C   UNL     1      -2.084  12.125  22.896  0.00  0.00    +0.000 A 
ATOM     22  C   UNL     1      -2.259  13.413  22.405  0.00  0.00    +0.000 A 
ATOM     23  C   UNL     1      -1.276  13.991  21.595  0.00  0.00    +0.000 A 
ATOM     24  C   UNL     1      -0.100  13.310  21.259  0.00  0.00    +0.000 A 
ATOM     25  C   UNL     1       0.054  12.014  21.786  0.00  0.00    +0.000 A 
BRANCH  20  27
ATOM     26  C   UNL     1      -0.392   9.124  22.271  0.00  0.00    +0.000 C 
ATOM     27  O   UNL     1      -0.859  10.160  23.130  0.00  0.00    +0.000 OA
ENDBRANCH  20  27
ENDBRANCH  12  24
ENDBRANCH   1  16
BRANCH   5  28
ATOM     28  C   UNL     1       9.957  13.788  18.851  0.00  0.00    +0.000 A 
ATOM     29  C   UNL     1      10.677  13.811  17.645  0.00  0.00    +0.000 A 
ATOM     30  C   UNL     1      11.424  12.707  17.227  0.00  0.00    +0.000 A 
ATOM     31  C   UNL     1      11.483  11.568  18.021  0.00  0.00    +0.000 A 
ATOM     32  C   UNL     1      10.787  11.530  19.229  0.00  0.00    +0.000 A 
ATOM     33  C   UNL     1      10.019  12.627  19.632  0.00  0.00    +0.000 A 
ENDBRANCH   5  28
TORSDOF 4
ENDMDL
MODEL 6
REMARK VINA RESULT:      -7.7      4.401      6.841
REMARK  Name = 
REMARK  7 active torsions:
REMARK  status: ('A' for Active; 'I' for Inactive)
REMARK    1  A    between atoms: C_1  and  O_2
REMARK    2  A    between atoms: O_2  and  C_3
REMARK    3  A    between atoms: C_7  and  N_8
REMARK    4  A    between atoms: C_12  and  C_14
REMARK    5  A    between atoms: C_18  and  C_19
REMARK    6  A    between atoms: C_25  and  C_26
REMARK    7  A    between atoms: C_29  and  C_30
REMARK                            x       y       z     vdW  Elec       q    Type
REMARK                         _______ _______ _______ _____ _____    ______ ____
ROOT
ATOM      1  C   UNL     1       2.679  14.862  19.375  0.00  0.00    +0.000 A 
ATOM      2  C   UNL     1       1.790  14.487  18.244  0.00  0.00    +0.000 A 
ATOM      3  N   UNL     1       0.877  13.572  18.223  0.00  0.00    +0.000 NA
ATOM      4  C   UNL     1       0.804  12.781  19.334  0.00  0.00    +0.000 A 
ATOM      5  C   UNL     1      -0.040  11.735  19.667  0.00  0.00    +0.000 A 
ATOM      6  C   UNL     1       0.511  11.214  20.869  0.00  0.00    +0.000 A 
ATOM      7  C   UNL     1       0.127   9.999  21.635  0.00  0.00    +0.000 C 
ATOM      8  N   UNL     1       1.546  11.939  21.307  0.00  0.00    +0.000 NA
ATOM      9  N   UNL     1       1.721  12.919  20.384  0.00  0.00    +0.000 N 
ATOM     10  C   UNL     1       2.664  13.970  20.400  0.00  0.00    +0.000 A 
ATOM     11  C   UNL     1       3.599  14.035  21.582  0.00  0.00    +0.000 C 
ENDROOT
BRANCH   1  16
ATOM     12  N   UNL     1       7.651  15.452  18.696  0.00  0.00    +0.000 N 
ATOM     13  C   UNL     1       7.130  16.677  19.335  0.00  0.00    +0.000 C 
ATOM     14  C   UNL     1       5.760  17.075  18.733  0.00  0.00    +0.000 C 
ATOM     15  N   UNL     1       4.831  15.931  18.666  0.00  0.00    +0.000 N 
ATOM     16  C   UNL     1       3.609  16.034  19.312  0.00  0.00    +0.000 C 
ATOM     17  O   UNL     1       3.270  17.088  19.854  0.00  0.00    +0.000 OA
ATOM     18  C   UNL     1       5.414  14.793  17.929  0.00  0.00    +0.000 C 
ATOM     19  C   UNL     1       6.701  14.327  18.638  0.00  0.00    +0.000 C 
BRANCH  12  24
ATOM     20  C   UNL     1      10.996  16.438  17.412  0.00  0.00    +0.000 A 
ATOM     21  C   UNL     1      11.553  15.191  17.139  0.00  0.00    +0.000 A 
ATOM     22  C   UNL     1      10.827  14.034  17.398  0.00  0.00    +0.000 A 
ATOM     23  C   UNL     1       9.534  14.124  17.923  0.00  0.00    +0.000 A 
ATOM     24  C   UNL     1       8.935  15.357  18.205  0.00  0.00    +0.000 A 
ATOM     25  C   UNL     1       9.702  16.509  17.945  0.00  0.00    +0.000 A 
BRANCH  20  27
ATOM     26  C   UNL     1      12.269  18.271  18.225  0.00  0.00    +0.000 C 
ATOM     27  O   UNL     1      11.800  17.505  17.119  0.00  0.00    +0.000 OA
ENDBRANCH  20  27
ENDBRANCH  12  24
ENDBRANCH   1  16
BRANCH   5  28
ATOM     28  C   UNL     1      -1.182  11.313  18.857  0.00  0.00    +0.000 A 
ATOM     29  C   UNL     1      -2.443  11.914  19.008  0.00  0.00    +0.000 A 
ATOM     30  C   UNL     1      -3.545  11.478  18.268  0.00  0.00    +0.000 A 
ATOM     31  C   UNL     1      -3.399  10.450  17.346  0.00  0.00    +0.000 A 
ATOM     32  C   UNL     1      -2.152   9.849  17.171  0.00  0.00    +0.000 A 
ATOM     33  C   UNL     1      -1.057  10.269  17.931  0.00  0.00    +0.000 A 
ENDBRANCH   5  28
TORSDOF 4
ENDMDL
MODEL 7
REMARK VINA RESULT:      -7.7      5.168      8.547
REMARK  Name = 
REMARK  7 active torsions:
REMARK  status: ('A' for Active; 'I' for Inactive)
REMARK    1  A    between atoms: C_1  and  O_2
REMARK    2  A    between atoms: O_2  and  C_3
REMARK    3  A    between atoms: C_7  and  N_8
REMARK    4  A    between atoms: C_12  and  C_14
REMARK    5  A    between atoms: C_18  and  C_19
REMARK    6  A    between atoms: C_25  and  C_26
REMARK    7  A    between atoms: C_29  and  C_30
REMARK                            x       y       z     vdW  Elec       q    Type
REMARK                         _______ _______ _______ _____ _____    ______ ____
ROOT
ATOM      1  C   UNL     1       5.333  15.574  18.557  0.00  0.00    +0.000 A 
ATOM      2  C   UNL     1       6.095  14.495  17.872  0.00  0.00    +0.000 A 
ATOM      3  N   UNL     1       7.332  14.166  18.047  0.00  0.00    +0.000 NA
ATOM      4  C   UNL     1       8.053  14.982  18.873  0.00  0.00    +0.000 A 
ATOM      5  C   UNL     1       9.370  14.932  19.298  0.00  0.00    +0.000 A 
ATOM      6  C   UNL     1       9.557  16.159  19.991  0.00  0.00    +0.000 A 
ATOM      7  C   UNL     1      10.801  16.744  20.556  0.00  0.00    +0.000 C 
ATOM      8  N   UNL     1       8.424  16.864  20.085  0.00  0.00    +0.000 NA
ATOM      9  N   UNL     1       7.487  16.140  19.421  0.00  0.00    +0.000 N 
ATOM     10  C   UNL     1       6.115  16.434  19.259  0.00  0.00    +0.000 A 
ATOM     11  C   UNL     1       5.605  17.700  19.899  0.00  0.00    +0.000 C 
ENDROOT
BRANCH   1  16
ATOM     12  N   UNL     1       1.156  13.480  20.480  0.00  0.00    +0.000 N 
ATOM     13  C   UNL     1       0.795  14.125  19.202  0.00  0.00    +0.000 C 
ATOM     14  C   UNL     1       1.518  15.486  19.047  0.00  0.00    +0.000 C 
ATOM     15  N   UNL     1       2.960  15.384  19.338  0.00  0.00    +0.000 N 
ATOM     16  C   UNL     1       3.861  15.767  18.358  0.00  0.00    +0.000 C 
ATOM     17  O   UNL     1       3.467  16.265  17.301  0.00  0.00    +0.000 OA
ATOM     18  C   UNL     1       3.211  14.810  20.675  0.00  0.00    +0.000 C 
ATOM     19  C   UNL     1       2.603  13.395  20.749  0.00  0.00    +0.000 C 
BRANCH  12  24
ATOM     20  C   UNL     1      -1.461  13.336  23.114  0.00  0.00    +0.000 A 
ATOM     21  C   UNL     1      -1.682  11.962  23.194  0.00  0.00    +0.000 A 
ATOM     22  C   UNL     1      -0.978  11.097  22.365  0.00  0.00    +0.000 A 
ATOM     23  C   UNL     1      -0.041  11.605  21.458  0.00  0.00    +0.000 A 
ATOM     24  C   UNL     1       0.215  12.977  21.352  0.00  0.00    +0.000 A 
ATOM     25  C   UNL     1      -0.525  13.828  22.194  0.00  0.00    +0.000 A 
BRANCH  20  27
ATOM     26  C   UNL     1      -3.537  13.640  24.226  0.00  0.00    +0.000 C 
ATOM     27  O   UNL     1      -2.209  14.091  23.975  0.00  0.00    +0.000 OA
ENDBRANCH  20  27
ENDBRANCH  12  24
ENDBRANCH   1  16
BRANCH   5  28
ATOM     28  C   UNL     1      10.289  13.837  18.993  0.00  0.00    +0.000 A 
ATOM     29  C   UNL     1      10.632  13.522  17.668  0.00  0.00    +0.000 A 
ATOM     30  C   UNL     1      11.473  12.445  17.375  0.00  0.00    +0.000 A 
ATOM     31  C   UNL     1      12.004  11.679  18.405  0.00  0.00    +0.000 A 
ATOM     32  C   UNL     1      11.687  11.984  19.728  0.00  0.00    +0.000 A 
ATOM     33  C   UNL     1      10.825  13.045  20.017  0.00  0.00    +0.000 A 
ENDBRANCH   5  28
TORSDOF 4
ENDMDL
MODEL 8
REMARK VINA RESULT:      -7.6      5.357      8.417
REMARK  Name = 
REMARK  7 active torsions:
REMARK  status: ('A' for Active; 'I' for Inactive)
REMARK    1  A    between atoms: C_1  and  O_2
REMARK    2  A    between atoms: O_2  and  C_3
REMARK    3  A    between atoms: C_7  and  N_8
REMARK    4  A    between atoms: C_12  and  C_14
REMARK    5  A    between atoms: C_18  and  C_19
REMARK    6  A    between atoms: C_25  and  C_26
REMARK    7  A    between atoms: C_29  and  C_30
REMARK                            x       y       z     vdW  Elec       q    Type
REMARK                         _______ _______ _______ _____ _____    ______ ____
ROOT
ATOM      1  C   UNL     1       4.915  15.987  18.699  0.00  0.00    +0.000 A 
ATOM      2  C   UNL     1       5.578  14.982  17.827  0.00  0.00    +0.000 A 
ATOM      3  N   UNL     1       6.768  14.492  17.944  0.00  0.00    +0.000 NA
ATOM      4  C   UNL     1       7.547  15.054  18.917  0.00  0.00    +0.000 A 
ATOM      5  C   UNL     1       8.839  14.781  19.334  0.00  0.00    +0.000 A 
ATOM      6  C   UNL     1       9.135  15.826  20.251  0.00  0.00    +0.000 A 
ATOM      7  C   UNL     1      10.417  16.155  20.927  0.00  0.00    +0.000 C 
ATOM      8  N   UNL     1       8.081  16.620  20.469  0.00  0.00    +0.000 NA
ATOM      9  N   UNL     1       7.092  16.142  19.672  0.00  0.00    +0.000 N 
ATOM     10  C   UNL     1       5.764  16.608  19.559  0.00  0.00    +0.000 A 
ATOM     11  C   UNL     1       5.372  17.778  20.425  0.00  0.00    +0.000 C 
ENDROOT
BRANCH   1  16
ATOM     12  N   UNL     1       0.483  13.974  20.051  0.00  0.00    +0.000 N 
ATOM     13  C   UNL     1       0.235  14.920  18.946  0.00  0.00    +0.000 C 
ATOM     14  C   UNL     1       1.095  16.197  19.108  0.00  0.00    +0.000 C 
ATOM     15  N   UNL     1       2.509  15.881  19.387  0.00  0.00    +0.000 N 
ATOM     16  C   UNL     1       3.478  16.375  18.529  0.00  0.00    +0.000 C 
ATOM     17  O   UNL     1       3.175  17.133  17.605  0.00  0.00    +0.000 OA
ATOM     18  C   UNL     1       2.652  15.003  20.565  0.00  0.00    +0.000 C 
ATOM     19  C   UNL     1       1.904  13.680  20.313  0.00  0.00    +0.000 C 
BRANCH  12  24
ATOM     20  C   UNL     1      -2.895  12.740  20.986  0.00  0.00    +0.000 A 
ATOM     21  C   UNL     1      -2.655  12.256  22.270  0.00  0.00    +0.000 A 
ATOM     22  C   UNL     1      -1.376  12.324  22.810  0.00  0.00    +0.000 A 
ATOM     23  C   UNL     1      -0.334  12.889  22.067  0.00  0.00    +0.000 A 
ATOM     24  C   UNL     1      -0.534  13.393  20.777  0.00  0.00    +0.000 A 
ATOM     25  C   UNL     1      -1.837  13.295  20.253  0.00  0.00    +0.000 A 
BRANCH  20  27
ATOM     26  C   UNL     1      -5.198  12.677  21.561  0.00  0.00    +0.000 C 
ATOM     27  O   UNL     1      -4.189  12.620  20.557  0.00  0.00    +0.000 OA
ENDBRANCH  20  27
ENDBRANCH  12  24
ENDBRANCH   1  16
BRANCH   5  28
ATOM     28  C   UNL     1       9.646  13.669  18.832  0.00  0.00    +0.000 A 
ATOM     29  C   UNL     1      10.463  13.816  17.700  0.00  0.00    +0.000 A 
ATOM     30  C   UNL     1      11.196  12.741  17.192  0.00  0.00    +0.000 A 
ATOM     31  C   UNL     1      11.144  11.505  17.825  0.00  0.00    +0.000 A 
ATOM     32  C   UNL     1      10.350  11.342  18.959  0.00  0.00    +0.000 A 
ATOM     33  C   UNL     1       9.596  12.412  19.449  0.00  0.00    +0.000 A 
ENDBRANCH   5  28
TORSDOF 4
ENDMDL
MODEL 9
REMARK VINA RESULT:      -7.6      5.132      8.533
REMARK  Name = 
REMARK  7 active torsions:
REMARK  status: ('A' for Active; 'I' for Inactive)
REMARK    1  A    between atoms: C_1  and  O_2
REMARK    2  A    between atoms: O_2  and  C_3
REMARK    3  A    between atoms: C_7  and  N_8
REMARK    4  A    between atoms: C_12  and  C_14
REMARK    5  A    between atoms: C_18  and  C_19
REMARK    6  A    between atoms: C_25  and  C_26
REMARK    7  A    between atoms: C_29  and  C_30
REMARK                            x       y       z     vdW  Elec       q    Type
REMARK                         _______ _______ _______ _____ _____    ______ ____
ROOT
ATOM      1  C   UNL     1       5.071  15.898  18.645  0.00  0.00    +0.000 A 
ATOM      2  C   UNL     1       5.719  14.840  17.825  0.00  0.00    +0.000 A 
ATOM      3  N   UNL     1       6.935  14.409  17.905  0.00  0.00    +0.000 NA
ATOM      4  C   UNL     1       7.750  15.088  18.765  0.00  0.00    +0.000 A 
ATOM      5  C   UNL     1       9.077  14.904  19.117  0.00  0.00    +0.000 A 
ATOM      6  C   UNL     1       9.386  16.041  19.911  0.00  0.00    +0.000 A 
ATOM      7  C   UNL     1      10.694  16.480  20.464  0.00  0.00    +0.000 C 
ATOM      8  N   UNL     1       8.315  16.812  20.128  0.00  0.00    +0.000 NA
ATOM      9  N   UNL     1       7.298  16.225  19.448  0.00  0.00    +0.000 N 
ATOM     10  C   UNL     1       5.946  16.629  19.384  0.00  0.00    +0.000 A 
ATOM     11  C   UNL     1       5.561  17.860  20.164  0.00  0.00    +0.000 C 
ENDROOT
BRANCH   1  16
ATOM     12  N   UNL     1       0.812  13.707  20.253  0.00  0.00    +0.000 N 
ATOM     13  C   UNL     1       0.465  14.618  19.144  0.00  0.00    +0.000 C 
ATOM     14  C   UNL     1       1.270  15.937  19.239  0.00  0.00    +0.000 C 
ATOM     15  N   UNL     1       2.709  15.694  19.453  0.00  0.00    +0.000 N 
ATOM     16  C   UNL     1       3.611  16.214  18.540  0.00  0.00    +0.000 C 
ATOM     17  O   UNL     1       3.227  16.937  17.618  0.00  0.00    +0.000 OA
ATOM     18  C   UNL     1       2.952  14.848  20.639  0.00  0.00    +0.000 C 
ATOM     19  C   UNL     1       2.257  13.486  20.450  0.00  0.00    +0.000 C 
BRANCH  12  24
ATOM     20  C   UNL     1      -2.325  13.145  22.164  0.00  0.00    +0.000 A 
ATOM     21  C   UNL     1      -2.086  11.881  22.699  0.00  0.00    +0.000 A 
ATOM     22  C   UNL     1      -0.900  11.217  22.410  0.00  0.00    +0.000 A 
ATOM     23  C   UNL     1       0.058  11.824  21.590  0.00  0.00    +0.000 A 
ATOM     24  C   UNL     1      -0.139  13.095  21.039  0.00  0.00    +0.000 A 
ATOM     25  C   UNL     1      -1.357  13.734  21.339  0.00  0.00    +0.000 A 
BRANCH  20  27
ATOM     26  C   UNL     1      -4.695  13.007  22.097  0.00  0.00    +0.000 C 
ATOM     27  O   UNL     1      -3.524  13.703  22.515  0.00  0.00    +0.000 OA
ENDBRANCH  20  27
ENDBRANCH  12  24
ENDBRANCH   1  16
BRANCH   5  28
ATOM     28  C   UNL     1       9.897  13.781  18.665  0.00  0.00    +0.000 A 
ATOM     29  C   UNL     1       9.967  12.588  19.402  0.00  0.00    +0.000 A 
ATOM     30  C   UNL     1      10.788  11.533  18.996  0.00  0.00    +0.000 A 
ATOM     31  C   UNL     1      11.534  11.645  17.829  0.00  0.00    +0.000 A 
ATOM     32  C   UNL     1      11.468  12.816  17.075  0.00  0.00    +0.000 A 
ATOM     33  C   UNL     1      10.667  13.880  17.498  0.00  0.00    +0.000 A 
ENDBRANCH   5  28
TORSDOF 4
ENDMDL
