MODEL 1
REMARK VINA RESULT:      -5.0      0.000      0.000
REMARK  Name = 
REMARK  2 active torsions:
REMARK  status: ('A' for Active; 'I' for Inactive)
REMARK    1  A    between atoms: C_2  and  C_3
REMARK    2  A    between atoms: C_3  and  C_4
REMARK                            x       y       z     vdW  Elec       q    Type
REMARK                         _______ _______ _______ _____ _____    ______ ____
ROOT
ATOM      1  C   UNL     1       3.185   3.231  19.279  0.00  0.00    +0.000 A 
ATOM      2  C   UNL     1       3.491   2.661  20.527  0.00  0.00    +0.000 A 
ATOM      3  C   UNL     1       2.522   2.565  21.529  0.00  0.00    +0.000 A 
ATOM      4  C   UNL     1       1.234   3.037  21.298  0.00  0.00    +0.000 A 
ATOM      5  C   UNL     1       0.913   3.608  20.067  0.00  0.00    +0.000 A 
ATOM      6  C   UNL     1       1.883   3.709  19.064  0.00  0.00    +0.000 A 
ATOM      7 CL   UNL     1       1.419   4.448  17.573  0.00  0.00    +0.000 Cl
ENDROOT
BRANCH   1   8
ATOM      8  C   UNL     1       4.286   3.351  18.253  0.00  0.00    +0.000 C 
BRANCH   8  10
ATOM      9  O   UNL     1       6.430   4.309  18.794  0.00  0.00    +0.000 OA
ATOM     10  C   UNL     1       5.232   4.477  18.580  0.00  0.00    +0.000 C 
ENDBRANCH   8  10
ENDBRANCH   1   8
TORSDOF 2
ENDMDL
MODEL 2
REMARK VINA RESULT:      -5.0      2.439      3.926
REMARK  Name = 
REMARK  2 active torsions:
REMARK  status: ('A' for Active; 'I' for Inactive)
REMARK    1  A    between atoms: C_2  and  C_3
REMARK    2  A    between atoms: C_3  and  C_4
REMARK                            x       y       z     vdW  Elec       q    Type
REMARK                         _______ _______ _______ _____ _____    ______ ____
ROOT
ATOM      1  C   UNL     1       1.809   3.959  19.280  0.00  0.00    +0.000 A 
ATOM      2  C   UNL     1       2.257   3.131  18.235  0.00  0.00    +0.000 A 
ATOM      3  C   UNL     1       3.163   3.604  17.284  0.00  0.00    +0.000 A 
ATOM      4  C   UNL     1       3.635   4.911  17.362  0.00  0.00    +0.000 A 
ATOM      5  C   UNL     1       3.200   5.747  18.389  0.00  0.00    +0.000 A 
ATOM      6  C   UNL     1       2.289   5.277  19.341  0.00  0.00    +0.000 A 
ATOM      7 CL   UNL     1       1.777   6.376  20.572  0.00  0.00    +0.000 Cl
ENDROOT
BRANCH   1   8
ATOM      8  C   UNL     1       0.793   3.407  20.250  0.00  0.00    +0.000 C 
BRANCH   8  10
ATOM      9  O   UNL     1       2.198   3.228  22.200  0.00  0.00    +0.000 OA
ATOM     10  C   UNL     1       1.452   2.678  21.392  0.00  0.00    +0.000 C 
ENDBRANCH   8  10
ENDBRANCH   1   8
TORSDOF 2
ENDMDL
MODEL 3
REMARK VINA RESULT:      -5.0      2.562      3.841
REMARK  Name = 
REMARK  2 active torsions:
REMARK  status: ('A' for Active; 'I' for Inactive)
REMARK    1  A    between atoms: C_2  and  C_3
REMARK    2  A    between atoms: C_3  and  C_4
REMARK                            x       y       z     vdW  Elec       q    Type
REMARK                         _______ _______ _______ _____ _____    ______ ____
ROOT
ATOM      1  C   UNL     1       1.676   4.435  19.686  0.00  0.00    +0.000 A 
ATOM      2  C   UNL     1       1.800   5.721  20.243  0.00  0.00    +0.000 A 
ATOM      3  C   UNL     1       2.520   6.720  19.584  0.00  0.00    +0.000 A 
ATOM      4  C   UNL     1       3.126   6.451  18.361  0.00  0.00    +0.000 A 
ATOM      5  C   UNL     1       3.015   5.182  17.795  0.00  0.00    +0.000 A 
ATOM      6  C   UNL     1       2.299   4.177  18.454  0.00  0.00    +0.000 A 
ATOM      7 CL   UNL     1       2.224   2.623  17.704  0.00  0.00    +0.000 Cl
ENDROOT
BRANCH   1   8
ATOM      8  C   UNL     1       0.927   3.383  20.466  0.00  0.00    +0.000 C 
BRANCH   8  10
ATOM      9  O   UNL     1       2.377   3.040  22.359  0.00  0.00    +0.000 OA
ATOM     10  C   UNL     1       1.848   2.583  21.349  0.00  0.00    +0.000 C 
ENDBRANCH   8  10
ENDBRANCH   1   8
TORSDOF 2
ENDMDL
MODEL 4
REMARK VINA RESULT:      -5.0      2.468      3.874
REMARK  Name = 
REMARK  2 active torsions:
REMARK  status: ('A' for Active; 'I' for Inactive)
REMARK    1  A    between atoms: C_2  and  C_3
REMARK    2  A    between atoms: C_3  and  C_4
REMARK                            x       y       z     vdW  Elec       q    Type
REMARK                         _______ _______ _______ _____ _____    ______ ____
ROOT
ATOM      1  C   UNL     1       2.290   4.338  19.396  0.00  0.00    +0.000 A 
ATOM      2  C   UNL     1       3.374   5.196  19.139  0.00  0.00    +0.000 A 
ATOM      3  C   UNL     1       4.097   5.101  17.947  0.00  0.00    +0.000 A 
ATOM      4  C   UNL     1       3.747   4.148  16.996  0.00  0.00    +0.000 A 
ATOM      5  C   UNL     1       2.677   3.286  17.235  0.00  0.00    +0.000 A 
ATOM      6  C   UNL     1       1.954   3.377  18.429  0.00  0.00    +0.000 A 
ATOM      7 CL   UNL     1       0.656   2.262  18.666  0.00  0.00    +0.000 Cl
ENDROOT
BRANCH   1   8
ATOM      8  C   UNL     1       1.577   4.456  20.721  0.00  0.00    +0.000 C 
BRANCH   8  10
ATOM      9  O   UNL     1       1.532   2.500  22.127  0.00  0.00    +0.000 OA
ATOM     10  C   UNL     1       2.135   3.499  21.741  0.00  0.00    +0.000 C 
ENDBRANCH   8  10
ENDBRANCH   1   8
TORSDOF 2
ENDMDL
MODEL 5
REMARK VINA RESULT:      -4.9      2.458      4.049
REMARK  Name = 
REMARK  2 active torsions:
REMARK  status: ('A' for Active; 'I' for Inactive)
REMARK    1  A    between atoms: C_2  and  C_3
REMARK    2  A    between atoms: C_3  and  C_4
REMARK                            x       y       z     vdW  Elec       q    Type
REMARK                         _______ _______ _______ _____ _____    ______ ____
ROOT
ATOM      1  C   UNL     1       2.245   3.814  18.942  0.00  0.00    +0.000 A 
ATOM      2  C   UNL     1       2.156   5.208  18.774  0.00  0.00    +0.000 A 
ATOM      3  C   UNL     1       3.059   5.890  17.956  0.00  0.00    +0.000 A 
ATOM      4  C   UNL     1       4.064   5.191  17.294  0.00  0.00    +0.000 A 
ATOM      5  C   UNL     1       4.169   3.810  17.451  0.00  0.00    +0.000 A 
ATOM      6  C   UNL     1       3.269   3.124  18.274  0.00  0.00    +0.000 A 
ATOM      7 CL   UNL     1       3.475   1.417  18.439  0.00  0.00    +0.000 Cl
ENDROOT
BRANCH   1   8
ATOM      8  C   UNL     1       1.271   3.139  19.877  0.00  0.00    +0.000 C 
BRANCH   8  10
ATOM      9  O   UNL     1       2.282   2.533  21.979  0.00  0.00    +0.000 OA
ATOM     10  C   UNL     1       1.645   3.352  21.320  0.00  0.00    +0.000 C 
ENDBRANCH   8  10
ENDBRANCH   1   8
TORSDOF 2
ENDMDL
MODEL 6
REMARK VINA RESULT:      -4.9      1.565      1.874
REMARK  Name = 
REMARK  2 active torsions:
REMARK  status: ('A' for Active; 'I' for Inactive)
REMARK    1  A    between atoms: C_2  and  C_3
REMARK    2  A    between atoms: C_3  and  C_4
REMARK                            x       y       z     vdW  Elec       q    Type
REMARK                         _______ _______ _______ _____ _____    ______ ____
ROOT
ATOM      1  C   UNL     1       3.010   4.185  18.895  0.00  0.00    +0.000 A 
ATOM      2  C   UNL     1       2.302   5.087  19.708  0.00  0.00    +0.000 A 
ATOM      3  C   UNL     1       1.331   4.633  20.605  0.00  0.00    +0.000 A 
ATOM      4  C   UNL     1       1.055   3.273  20.702  0.00  0.00    +0.000 A 
ATOM      5  C   UNL     1       1.746   2.364  19.902  0.00  0.00    +0.000 A 
ATOM      6  C   UNL     1       2.715   2.816  18.999  0.00  0.00    +0.000 A 
ATOM      7 CL   UNL     1       3.514   1.635  18.024  0.00  0.00    +0.000 Cl
ENDROOT
BRANCH   1   8
ATOM      8  C   UNL     1       4.012   4.738  17.911  0.00  0.00    +0.000 C 
BRANCH   8  10
ATOM      9  O   UNL     1       5.977   4.159  19.181  0.00  0.00    +0.000 OA
ATOM     10  C   UNL     1       5.342   5.011  18.564  0.00  0.00    +0.000 C 
ENDBRANCH   8  10
ENDBRANCH   1   8
TORSDOF 2
ENDMDL
MODEL 7
REMARK VINA RESULT:      -4.9      2.415      3.256
REMARK  Name = 
REMARK  2 active torsions:
REMARK  status: ('A' for Active; 'I' for Inactive)
REMARK    1  A    between atoms: C_2  and  C_3
REMARK    2  A    between atoms: C_3  and  C_4
REMARK                            x       y       z     vdW  Elec       q    Type
REMARK                         _______ _______ _______ _____ _____    ______ ____
ROOT
ATOM      1  C   UNL     1       2.054   3.912  18.747  0.00  0.00    +0.000 A 
ATOM      2  C   UNL     1       2.463   4.965  17.910  0.00  0.00    +0.000 A 
ATOM      3  C   UNL     1       2.563   6.270  18.397  0.00  0.00    +0.000 A 
ATOM      4  C   UNL     1       2.255   6.542  19.726  0.00  0.00    +0.000 A 
ATOM      5  C   UNL     1       1.845   5.511  20.570  0.00  0.00    +0.000 A 
ATOM      6  C   UNL     1       1.740   4.203  20.084  0.00  0.00    +0.000 A 
ATOM      7 CL   UNL     1       1.204   2.981  21.181  0.00  0.00    +0.000 Cl
ENDROOT
BRANCH   1   8
ATOM      8  C   UNL     1       1.918   2.531  18.152  0.00  0.00    +0.000 C 
BRANCH   8  10
ATOM      9  O   UNL     1       3.984   1.813  19.164  0.00  0.00    +0.000 OA
ATOM     10  C   UNL     1       3.219   1.773  18.203  0.00  0.00    +0.000 C 
ENDBRANCH   8  10
ENDBRANCH   1   8
TORSDOF 2
ENDMDL
MODEL 8
REMARK VINA RESULT:      -4.9      2.024      2.733
REMARK  Name = 
REMARK  2 active torsions:
REMARK  status: ('A' for Active; 'I' for Inactive)
REMARK    1  A    between atoms: C_2  and  C_3
REMARK    2  A    between atoms: C_3  and  C_4
REMARK                            x       y       z     vdW  Elec       q    Type
REMARK                         _______ _______ _______ _____ _____    ______ ____
ROOT
ATOM      1  C   UNL     1       3.918   3.898  18.416  0.00  0.00    +0.000 A 
ATOM      2  C   UNL     1       2.939   4.556  17.651  0.00  0.00    +0.000 A 
ATOM      3  C   UNL     1       1.591   4.203  17.756  0.00  0.00    +0.000 A 
ATOM      4  C   UNL     1       1.203   3.188  18.625  0.00  0.00    +0.000 A 
ATOM      5  C   UNL     1       2.161   2.523  19.390  0.00  0.00    +0.000 A 
ATOM      6  C   UNL     1       3.511   2.872  19.284  0.00  0.00    +0.000 A 
ATOM      7 CL   UNL     1       4.644   1.989  20.245  0.00  0.00    +0.000 Cl
ENDROOT
BRANCH   1   8
ATOM      8  C   UNL     1       5.363   4.290  18.226  0.00  0.00    +0.000 C 
BRANCH   8  10
ATOM      9  O   UNL     1       6.878   5.249  19.836  0.00  0.00    +0.000 OA
ATOM     10  C   UNL     1       5.803   5.310  19.243  0.00  0.00    +0.000 C 
ENDBRANCH   8  10
ENDBRANCH   1   8
TORSDOF 2
ENDMDL
MODEL 9
REMARK VINA RESULT:      -4.9      2.888      3.752
REMARK  Name = 
REMARK  2 active torsions:
REMARK  status: ('A' for Active; 'I' for Inactive)
REMARK    1  A    between atoms: C_2  and  C_3
REMARK    2  A    between atoms: C_3  and  C_4
REMARK                            x       y       z     vdW  Elec       q    Type
REMARK                         _______ _______ _______ _____ _____    ______ ____
ROOT
ATOM      1  C   UNL     1       4.480   4.902  16.964  0.00  0.00    +0.000 A 
ATOM      2  C   UNL     1       4.739   6.283  17.012  0.00  0.00    +0.000 A 
ATOM      3  C   UNL     1       3.825   7.164  17.594  0.00  0.00    +0.000 A 
ATOM      4  C   UNL     1       2.639   6.678  18.137  0.00  0.00    +0.000 A 
ATOM      5  C   UNL     1       2.365   5.311  18.096  0.00  0.00    +0.000 A 
ATOM      6  C   UNL     1       3.277   4.428  17.510  0.00  0.00    +0.000 A 
ATOM      7 CL   UNL     1       2.859   2.752  17.475  0.00  0.00    +0.000 Cl
ENDROOT
BRANCH   1   8
ATOM      8  C   UNL     1       5.484   4.005  16.280  0.00  0.00    +0.000 C 
BRANCH   8  10
ATOM      9  O   UNL     1       7.833   4.441  16.591  0.00  0.00    +0.000 OA
ATOM     10  C   UNL     1       6.783   4.721  16.018  0.00  0.00    +0.000 C 
ENDBRANCH   8  10
ENDBRANCH   1   8
TORSDOF 2
ENDMDL
