MODEL 1
REMARK VINA RESULT:      -7.2      0.000      0.000
REMARK  Name = 
REMARK  8 active torsions:
REMARK  status: ('A' for Active; 'I' for Inactive)
REMARK    1  A    between atoms: C_1  and  O_2
REMARK    2  A    between atoms: O_2  and  C_3
REMARK    3  A    between atoms: C_6  and  S_7
REMARK    4  A    between atoms: S_7  and  N_10
REMARK    5  A    between atoms: C_13  and  C_14
REMARK    6  A    between atoms: C_20  and  C_21
REMARK    7  A    between atoms: C_26  and  O_27
REMARK    8  A    between atoms: O_27  and  C_28
REMARK                            x       y       z     vdW  Elec       q    Type
REMARK                         _______ _______ _______ _____ _____    ______ ____
ROOT
ATOM      1  N   UNL     1       0.441  10.187  20.104  0.00  0.00    +0.000 NA
ATOM      2  C   UNL     1      -0.804  10.030  19.316  0.00  0.00    +0.000 C 
ATOM      3  C   UNL     1      -1.012  11.152  18.306  0.00  0.00    +0.000 C 
ATOM      4  C   UNL     1      -0.816  12.539  18.921  0.00  0.00    +0.000 C 
ATOM      5  C   UNL     1       0.598  12.603  19.494  0.00  0.00    +0.000 C 
ATOM      6  C   UNL     1       0.816  11.543  20.565  0.00  0.00    +0.000 C 
ENDROOT
BRANCH   4   7
ATOM      7  C   UNL     1      -1.886  12.858  19.973  0.00  0.00    +0.000 C 
ATOM      8  O   UNL     1      -1.584  13.247  21.096  0.00  0.00    +0.000 OA
ATOM      9  N   UNL     1      -3.171  12.626  19.530  0.00  0.00    +0.000 N 
ATOM     10  C   UNL     1      -4.240  12.853  20.355  0.00  0.00    +0.000 A 
ATOM     11  N   UNL     1      -4.309  13.516  21.484  0.00  0.00    +0.000 NA
ATOM     12  N   UNL     1      -5.556  13.407  22.067  0.00  0.00    +0.000 NA
ATOM     13  C   UNL     1      -6.366  12.651  21.359  0.00  0.00    +0.000 A 
ATOM     14  C   UNL     1      -7.719  12.221  21.795  0.00  0.00    +0.000 C 
ATOM     15  S   UNL     1      -5.703  12.127  19.859  0.00  0.00    +0.000 S 
ATOM     16  H   UNL     1      -3.345  12.114  18.680  0.00  0.00    +0.000 HD
ENDBRANCH   4   7
BRANCH   1  17
ATOM     17  S   UNL     1       0.748   8.939  21.246  0.00  0.00    +0.000 S 
ATOM     18  O   UNL     1      -0.547   8.398  21.611  0.00  0.00    +0.000 OA
ATOM     19  O   UNL     1       1.660   9.439  22.252  0.00  0.00    +0.000 OA
BRANCH  17  23
ATOM     20  C   UNL     1       3.016   5.626  19.005  0.00  0.00    +0.000 A 
ATOM     21  C   UNL     1       2.870   6.900  18.433  0.00  0.00    +0.000 A 
ATOM     22  C   UNL     1       2.207   7.926  19.110  0.00  0.00    +0.000 A 
ATOM     23  C   UNL     1       1.607   7.663  20.339  0.00  0.00    +0.000 A 
ATOM     24  C   UNL     1       1.687   6.378  20.884  0.00  0.00    +0.000 A 
ATOM     25  C   UNL     1       2.386   5.351  20.231  0.00  0.00    +0.000 A 
BRANCH  20  27
ATOM     26  C   UNL     1       5.129   4.588  18.757  0.00  0.00    +0.000 C 
ATOM     27  O   UNL     1       3.751   4.653  18.382  0.00  0.00    +0.000 OA
ENDBRANCH  20  27
BRANCH  25  28
ATOM     28  O   UNL     1       2.374   4.188  20.952  0.00  0.00    +0.000 OA
ATOM     29  C   UNL     1       1.266   3.309  20.851  0.00  0.00    +0.000 C 
ENDBRANCH  25  28
ENDBRANCH  17  23
ENDBRANCH   1  17
TORSDOF 5
ENDMDL
MODEL 2
REMARK VINA RESULT:      -6.9      4.192      6.957
REMARK  Name = 
REMARK  8 active torsions:
REMARK  status: ('A' for Active; 'I' for Inactive)
REMARK    1  A    between atoms: C_1  and  O_2
REMARK    2  A    between atoms: O_2  and  C_3
REMARK    3  A    between atoms: C_6  and  S_7
REMARK    4  A    between atoms: S_7  and  N_10
REMARK    5  A    between atoms: C_13  and  C_14
REMARK    6  A    between atoms: C_20  and  C_21
REMARK    7  A    between atoms: C_26  and  O_27
REMARK    8  A    between atoms: O_27  and  C_28
REMARK                            x       y       z     vdW  Elec       q    Type
REMARK                         _______ _______ _______ _____ _____    ______ ____
ROOT
ATOM      1  N   UNL     1       2.717   3.427  19.004  0.00  0.00    +0.000 NA
ATOM      2  C   UNL     1       3.632   4.160  19.912  0.00  0.00    +0.000 C 
ATOM      3  C   UNL     1       2.976   4.537  21.235  0.00  0.00    +0.000 C 
ATOM      4  C   UNL     1       1.606   5.190  21.045  0.00  0.00    +0.000 C 
ATOM      5  C   UNL     1       0.720   4.208  20.282  0.00  0.00    +0.000 C 
ATOM      6  C   UNL     1       1.307   3.870  18.918  0.00  0.00    +0.000 C 
ENDROOT
BRANCH   4   7
ATOM      7  C   UNL     1       1.708   6.550  20.344  0.00  0.00    +0.000 C 
ATOM      8  O   UNL     1       2.402   6.705  19.345  0.00  0.00    +0.000 OA
ATOM      9  N   UNL     1       0.985   7.541  20.972  0.00  0.00    +0.000 N 
ATOM     10  C   UNL     1       0.981   8.818  20.475  0.00  0.00    +0.000 A 
ATOM     11  N   UNL     1       1.365   9.269  19.306  0.00  0.00    +0.000 NA
ATOM     12  N   UNL     1       1.308  10.647  19.244  0.00  0.00    +0.000 NA
ATOM     13  C   UNL     1       0.900  11.174  20.377  0.00  0.00    +0.000 A 
ATOM     14  C   UNL     1       0.878  12.629  20.675  0.00  0.00    +0.000 C 
ATOM     15  S   UNL     1       0.427  10.015  21.559  0.00  0.00    +0.000 S 
ATOM     16  H   UNL     1       0.606   7.406  21.896  0.00  0.00    +0.000 HD
ENDBRANCH   4   7
BRANCH   1  17
ATOM     17  S   UNL     1       3.404   2.950  17.502  0.00  0.00    +0.000 S 
ATOM     18  O   UNL     1       2.377   3.162  16.501  0.00  0.00    +0.000 OA
ATOM     19  O   UNL     1       4.034   1.658  17.665  0.00  0.00    +0.000 OA
BRANCH  17  23
ATOM     20  C   UNL     1       6.753   6.013  16.766  0.00  0.00    +0.000 A 
ATOM     21  C   UNL     1       5.579   6.046  15.997  0.00  0.00    +0.000 A 
ATOM     22  C   UNL     1       4.541   5.139  16.223  0.00  0.00    +0.000 A 
ATOM     23  C   UNL     1       4.701   4.134  17.173  0.00  0.00    +0.000 A 
ATOM     24  C   UNL     1       5.895   4.052  17.895  0.00  0.00    +0.000 A 
ATOM     25  C   UNL     1       6.928   4.981  17.704  0.00  0.00    +0.000 A 
BRANCH  20  27
ATOM     26  C   UNL     1       7.657   8.072  17.508  0.00  0.00    +0.000 C 
ATOM     27  O   UNL     1       7.727   6.964  16.608  0.00  0.00    +0.000 OA
ENDBRANCH  20  27
BRANCH  25  28
ATOM     28  O   UNL     1       7.988   4.744  18.536  0.00  0.00    +0.000 OA
ATOM     29  C   UNL     1       8.058   5.401  19.792  0.00  0.00    +0.000 C 
ENDBRANCH  25  28
ENDBRANCH  17  23
ENDBRANCH   1  17
TORSDOF 5
ENDMDL
MODEL 3
REMARK VINA RESULT:      -6.8      0.867      1.860
REMARK  Name = 
REMARK  8 active torsions:
REMARK  status: ('A' for Active; 'I' for Inactive)
REMARK    1  A    between atoms: C_1  and  O_2
REMARK    2  A    between atoms: O_2  and  C_3
REMARK    3  A    between atoms: C_6  and  S_7
REMARK    4  A    between atoms: S_7  and  N_10
REMARK    5  A    between atoms: C_13  and  C_14
REMARK    6  A    between atoms: C_20  and  C_21
REMARK    7  A    between atoms: C_26  and  O_27
REMARK    8  A    between atoms: O_27  and  C_28
REMARK                            x       y       z     vdW  Elec       q    Type
REMARK                         _______ _______ _______ _____ _____    ______ ____
ROOT
ATOM      1  N   UNL     1       0.490  10.081  20.130  0.00  0.00    +0.000 NA
ATOM      2  C   UNL     1      -0.739   9.896  19.321  0.00  0.00    +0.000 C 
ATOM      3  C   UNL     1      -0.921  10.978  18.264  0.00  0.00    +0.000 C 
ATOM      4  C   UNL     1      -0.733  12.387  18.828  0.00  0.00    +0.000 C 
ATOM      5  C   UNL     1       0.668  12.470  19.428  0.00  0.00    +0.000 C 
ATOM      6  C   UNL     1       0.860  11.453  20.545  0.00  0.00    +0.000 C 
ENDROOT
BRANCH   4   7
ATOM      7  C   UNL     1      -1.824  12.751  19.843  0.00  0.00    +0.000 C 
ATOM      8  O   UNL     1      -1.544  13.183  20.956  0.00  0.00    +0.000 OA
ATOM      9  N   UNL     1      -3.100  12.506  19.382  0.00  0.00    +0.000 N 
ATOM     10  C   UNL     1      -4.186  12.769  20.174  0.00  0.00    +0.000 A 
ATOM     11  N   UNL     1      -4.277  13.475  21.274  0.00  0.00    +0.000 NA
ATOM     12  N   UNL     1      -5.536  13.394  21.834  0.00  0.00    +0.000 NA
ATOM     13  C   UNL     1      -6.334  12.612  21.139  0.00  0.00    +0.000 A 
ATOM     14  C   UNL     1      -7.697  12.204  21.562  0.00  0.00    +0.000 C 
ATOM     15  S   UNL     1      -5.641  12.028  19.675  0.00  0.00    +0.000 S 
ATOM     16  H   UNL     1      -3.258  11.961  18.549  0.00  0.00    +0.000 HD
ENDBRANCH   4   7
BRANCH   1  17
ATOM     17  S   UNL     1       0.767   8.878  21.326  0.00  0.00    +0.000 S 
ATOM     18  O   UNL     1      -0.541   8.418  21.748  0.00  0.00    +0.000 OA
ATOM     19  O   UNL     1       1.727   9.383  22.284  0.00  0.00    +0.000 OA
BRANCH  17  23
ATOM     20  C   UNL     1       2.721   5.417  19.014  0.00  0.00    +0.000 A 
ATOM     21  C   UNL     1       2.056   5.176  20.226  0.00  0.00    +0.000 A 
ATOM     22  C   UNL     1       1.435   6.211  20.930  0.00  0.00    +0.000 A 
ATOM     23  C   UNL     1       1.543   7.519  20.466  0.00  0.00    +0.000 A 
ATOM     24  C   UNL     1       2.263   7.777  19.296  0.00  0.00    +0.000 A 
ATOM     25  C   UNL     1       2.857   6.740  18.560  0.00  0.00    +0.000 A 
BRANCH  20  27
ATOM     26  C   UNL     1       2.289   3.580  17.585  0.00  0.00    +0.000 C 
ATOM     27  O   UNL     1       3.244   4.386  18.278  0.00  0.00    +0.000 OA
ENDBRANCH  20  27
BRANCH  25  28
ATOM     28  O   UNL     1       3.477   7.206  17.432  0.00  0.00    +0.000 OA
ATOM     29  C   UNL     1       4.852   6.929  17.221  0.00  0.00    +0.000 C 
ENDBRANCH  25  28
ENDBRANCH  17  23
ENDBRANCH   1  17
TORSDOF 5
ENDMDL
MODEL 4
REMARK VINA RESULT:      -6.8      1.526      1.573
REMARK  Name = 
REMARK  8 active torsions:
REMARK  status: ('A' for Active; 'I' for Inactive)
REMARK    1  A    between atoms: C_1  and  O_2
REMARK    2  A    between atoms: O_2  and  C_3
REMARK    3  A    between atoms: C_6  and  S_7
REMARK    4  A    between atoms: S_7  and  N_10
REMARK    5  A    between atoms: C_13  and  C_14
REMARK    6  A    between atoms: C_20  and  C_21
REMARK    7  A    between atoms: C_26  and  O_27
REMARK    8  A    between atoms: O_27  and  C_28
REMARK                            x       y       z     vdW  Elec       q    Type
REMARK                         _______ _______ _______ _____ _____    ______ ____
ROOT
ATOM      1  N   UNL     1       0.323  10.644  20.407  0.00  0.00    +0.000 NA
ATOM      2  C   UNL     1      -0.509  10.469  19.193  0.00  0.00    +0.000 C 
ATOM      3  C   UNL     1      -0.770  11.780  18.460  0.00  0.00    +0.000 C 
ATOM      4  C   UNL     1      -1.234  12.895  19.399  0.00  0.00    +0.000 C 
ATOM      5  C   UNL     1      -0.156  13.093  20.461  0.00  0.00    +0.000 C 
ATOM      6  C   UNL     1       0.075  11.822  21.268  0.00  0.00    +0.000 C 
ENDROOT
BRANCH   4   7
ATOM      7  C   UNL     1      -2.608  12.597  20.011  0.00  0.00    +0.000 C 
ATOM      8  O   UNL     1      -3.393  11.823  19.474  0.00  0.00    +0.000 OA
ATOM      9  N   UNL     1      -2.855  13.306  21.167  0.00  0.00    +0.000 N 
ATOM     10  C   UNL     1      -4.044  13.160  21.830  0.00  0.00    +0.000 A 
ATOM     11  N   UNL     1      -4.970  12.241  21.708  0.00  0.00    +0.000 NA
ATOM     12  N   UNL     1      -6.078  12.523  22.483  0.00  0.00    +0.000 NA
ATOM     13  C   UNL     1      -5.943  13.654  23.141  0.00  0.00    +0.000 A 
ATOM     14  C   UNL     1      -7.015  14.302  23.937  0.00  0.00    +0.000 C 
ATOM     15  S   UNL     1      -4.395  14.387  22.964  0.00  0.00    +0.000 S 
ATOM     16  H   UNL     1      -2.265  14.075  21.443  0.00  0.00    +0.000 HD
ENDBRANCH   4   7
BRANCH   1  17
ATOM     17  S   UNL     1       0.675   9.197  21.267  0.00  0.00    +0.000 S 
ATOM     18  O   UNL     1      -0.597   8.535  21.482  0.00  0.00    +0.000 OA
ATOM     19  O   UNL     1       1.550   9.513  22.375  0.00  0.00    +0.000 OA
BRANCH  17  23
ATOM     20  C   UNL     1       3.138   6.551  18.426  0.00  0.00    +0.000 A 
ATOM     21  C   UNL     1       2.739   7.838  18.032  0.00  0.00    +0.000 A 
ATOM     22  C   UNL     1       2.013   8.665  18.891  0.00  0.00    +0.000 A 
ATOM     23  C   UNL     1       1.605   8.180  20.131  0.00  0.00    +0.000 A 
ATOM     24  C   UNL     1       1.938   6.875  20.503  0.00  0.00    +0.000 A 
ATOM     25  C   UNL     1       2.702   6.049  19.664  0.00  0.00    +0.000 A 
BRANCH  20  27
ATOM     26  C   UNL     1       4.692   6.495  16.641  0.00  0.00    +0.000 C 
ATOM     27  O   UNL     1       3.934   5.780  17.620  0.00  0.00    +0.000 OA
ENDBRANCH  20  27
BRANCH  25  28
ATOM     28  O   UNL     1       2.947   4.830  20.235  0.00  0.00    +0.000 OA
ATOM     29  C   UNL     1       1.887   4.115  20.850  0.00  0.00    +0.000 C 
ENDBRANCH  25  28
ENDBRANCH  17  23
ENDBRANCH   1  17
TORSDOF 5
ENDMDL
MODEL 5
REMARK VINA RESULT:      -6.7      1.995      2.107
REMARK  Name = 
REMARK  8 active torsions:
REMARK  status: ('A' for Active; 'I' for Inactive)
REMARK    1  A    between atoms: C_1  and  O_2
REMARK    2  A    between atoms: O_2  and  C_3
REMARK    3  A    between atoms: C_6  and  S_7
REMARK    4  A    between atoms: S_7  and  N_10
REMARK    5  A    between atoms: C_13  and  C_14
REMARK    6  A    between atoms: C_20  and  C_21
REMARK    7  A    between atoms: C_26  and  O_27
REMARK    8  A    between atoms: O_27  and  C_28
REMARK                            x       y       z     vdW  Elec       q    Type
REMARK                         _______ _______ _______ _____ _____    ______ ____
ROOT
ATOM      1  N   UNL     1       0.441  10.255  20.213  0.00  0.00    +0.000 NA
ATOM      2  C   UNL     1      -0.793  10.118  19.403  0.00  0.00    +0.000 C 
ATOM      3  C   UNL     1      -1.016  11.293  18.458  0.00  0.00    +0.000 C 
ATOM      4  C   UNL     1      -0.855  12.645  19.156  0.00  0.00    +0.000 C 
ATOM      5  C   UNL     1       0.551  12.704  19.746  0.00  0.00    +0.000 C 
ATOM      6  C   UNL     1       0.782  11.589  20.756  0.00  0.00    +0.000 C 
ENDROOT
BRANCH   4   7
ATOM      7  C   UNL     1      -1.942  12.880  20.213  0.00  0.00    +0.000 C 
ATOM      8  O   UNL     1      -3.048  12.360  20.120  0.00  0.00    +0.000 OA
ATOM      9  N   UNL     1      -1.548  13.740  21.215  0.00  0.00    +0.000 N 
ATOM     10  C   UNL     1      -2.409  14.062  22.231  0.00  0.00    +0.000 A 
ATOM     11  N   UNL     1      -3.532  13.493  22.596  0.00  0.00    +0.000 NA
ATOM     12  N   UNL     1      -4.162  14.200  23.602  0.00  0.00    +0.000 NA
ATOM     13  C   UNL     1      -3.492  15.281  23.936  0.00  0.00    +0.000 A 
ATOM     14  C   UNL     1      -3.981  16.323  24.875  0.00  0.00    +0.000 C 
ATOM     15  S   UNL     1      -1.975  15.440  23.139  0.00  0.00    +0.000 S 
ATOM     16  H   UNL     1      -0.711  14.294  21.129  0.00  0.00    +0.000 HD
ENDBRANCH   4   7
BRANCH   1  17
ATOM     17  S   UNL     1       0.763   8.948  21.283  0.00  0.00    +0.000 S 
ATOM     18  O   UNL     1      -0.526   8.389  21.639  0.00  0.00    +0.000 OA
ATOM     19  O   UNL     1       1.691   9.394  22.299  0.00  0.00    +0.000 OA
BRANCH  17  23
ATOM     20  C   UNL     1       2.995   5.758  18.837  0.00  0.00    +0.000 A 
ATOM     21  C   UNL     1       2.819   7.053  18.324  0.00  0.00    +0.000 A 
ATOM     22  C   UNL     1       2.166   8.042  19.063  0.00  0.00    +0.000 A 
ATOM     23  C   UNL     1       1.608   7.721  20.297  0.00  0.00    +0.000 A 
ATOM     24  C   UNL     1       1.717   6.415  20.785  0.00  0.00    +0.000 A 
ATOM     25  C   UNL     1       2.406   5.425  20.068  0.00  0.00    +0.000 A 
BRANCH  20  27
ATOM     26  C   UNL     1       5.131   4.842  18.385  0.00  0.00    +0.000 C 
ATOM     27  O   UNL     1       3.721   4.820  18.151  0.00  0.00    +0.000 OA
ENDBRANCH  20  27
BRANCH  25  28
ATOM     28  O   UNL     1       2.428   4.233  20.740  0.00  0.00    +0.000 OA
ATOM     29  C   UNL     1       1.274   3.406  20.745  0.00  0.00    +0.000 C 
ENDBRANCH  25  28
ENDBRANCH  17  23
ENDBRANCH   1  17
TORSDOF 5
ENDMDL
MODEL 6
REMARK VINA RESULT:      -6.6      1.680      1.830
REMARK  Name = 
REMARK  8 active torsions:
REMARK  status: ('A' for Active; 'I' for Inactive)
REMARK    1  A    between atoms: C_1  and  O_2
REMARK    2  A    between atoms: O_2  and  C_3
REMARK    3  A    between atoms: C_6  and  S_7
REMARK    4  A    between atoms: S_7  and  N_10
REMARK    5  A    between atoms: C_13  and  C_14
REMARK    6  A    between atoms: C_20  and  C_21
REMARK    7  A    between atoms: C_26  and  O_27
REMARK    8  A    between atoms: O_27  and  C_28
REMARK                            x       y       z     vdW  Elec       q    Type
REMARK                         _______ _______ _______ _____ _____    ______ ____
ROOT
ATOM      1  N   UNL     1      -0.317  10.507  19.167  0.00  0.00    +0.000 NA
ATOM      2  C   UNL     1      -1.367   9.723  18.474  0.00  0.00    +0.000 C 
ATOM      3  C   UNL     1      -2.039  10.500  17.348  0.00  0.00    +0.000 C 
ATOM      4  C   UNL     1      -2.468  11.904  17.778  0.00  0.00    +0.000 C 
ATOM      5  C   UNL     1      -1.224  12.648  18.259  0.00  0.00    +0.000 C 
ATOM      6  C   UNL     1      -0.571  11.940  19.438  0.00  0.00    +0.000 C 
ENDROOT
BRANCH   4   7
ATOM      7  C   UNL     1      -3.574  11.868  18.840  0.00  0.00    +0.000 C 
ATOM      8  O   UNL     1      -4.537  11.117  18.735  0.00  0.00    +0.000 OA
ATOM      9  N   UNL     1      -3.377  12.773  19.861  0.00  0.00    +0.000 N 
ATOM     10  C   UNL     1      -4.283  12.872  20.884  0.00  0.00    +0.000 A 
ATOM     11  N   UNL     1      -5.249  12.060  21.237  0.00  0.00    +0.000 NA
ATOM     12  N   UNL     1      -6.015  12.586  22.258  0.00  0.00    +0.000 NA
ATOM     13  C   UNL     1      -5.601  13.782  22.617  0.00  0.00    +0.000 A 
ATOM     14  C   UNL     1      -6.305  14.668  23.578  0.00  0.00    +0.000 C 
ATOM     15  S   UNL     1      -4.161  14.293  21.823  0.00  0.00    +0.000 S 
ATOM     16  H   UNL     1      -2.684  13.501  19.788  0.00  0.00    +0.000 HD
ENDBRANCH   4   7
BRANCH   1  17
ATOM     17  S   UNL     1       0.499   9.678  20.434  0.00  0.00    +0.000 S 
ATOM     18  O   UNL     1      -0.520   8.941  21.156  0.00  0.00    +0.000 OA
ATOM     19  O   UNL     1       1.373  10.608  21.114  0.00  0.00    +0.000 OA
BRANCH  17  23
ATOM     20  C   UNL     1       3.228   6.558  18.445  0.00  0.00    +0.000 A 
ATOM     21  C   UNL     1       2.916   7.755  17.781  0.00  0.00    +0.000 A 
ATOM     22  C   UNL     1       2.109   8.726  18.380  0.00  0.00    +0.000 A 
ATOM     23  C   UNL     1       1.537   8.471  19.624  0.00  0.00    +0.000 A 
ATOM     24  C   UNL     1       1.786   7.252  20.261  0.00  0.00    +0.000 A 
ATOM     25  C   UNL     1       2.627   6.288  19.686  0.00  0.00    +0.000 A 
BRANCH  20  27
ATOM     26  C   UNL     1       4.882   6.139  16.804  0.00  0.00    +0.000 C 
ATOM     27  O   UNL     1       4.098   5.653  17.896  0.00  0.00    +0.000 OA
ENDBRANCH  20  27
BRANCH  25  28
ATOM     28  O   UNL     1       2.767   5.189  20.490  0.00  0.00    +0.000 OA
ATOM     29  C   UNL     1       2.013   4.018  20.220  0.00  0.00    +0.000 C 
ENDBRANCH  25  28
ENDBRANCH  17  23
ENDBRANCH   1  17
TORSDOF 5
ENDMDL
MODEL 7
REMARK VINA RESULT:      -6.5      3.226      4.665
REMARK  Name = 
REMARK  8 active torsions:
REMARK  status: ('A' for Active; 'I' for Inactive)
REMARK    1  A    between atoms: C_1  and  O_2
REMARK    2  A    between atoms: O_2  and  C_3
REMARK    3  A    between atoms: C_6  and  S_7
REMARK    4  A    between atoms: S_7  and  N_10
REMARK    5  A    between atoms: C_13  and  C_14
REMARK    6  A    between atoms: C_20  and  C_21
REMARK    7  A    between atoms: C_26  and  O_27
REMARK    8  A    between atoms: O_27  and  C_28
REMARK                            x       y       z     vdW  Elec       q    Type
REMARK                         _______ _______ _______ _____ _____    ______ ____
ROOT
ATOM      1  N   UNL     1       2.413   7.546  18.876  0.00  0.00    +0.000 NA
ATOM      2  C   UNL     1       2.468   8.346  17.629  0.00  0.00    +0.000 C 
ATOM      3  C   UNL     1       2.447   9.848  17.886  0.00  0.00    +0.000 C 
ATOM      4  C   UNL     1       1.343  10.260  18.862  0.00  0.00    +0.000 C 
ATOM      5  C   UNL     1       1.567   9.506  20.170  0.00  0.00    +0.000 C 
ATOM      6  C   UNL     1       1.515   7.999  19.963  0.00  0.00    +0.000 C 
ENDROOT
BRANCH   4   7
ATOM      7  C   UNL     1      -0.057  10.019  18.283  0.00  0.00    +0.000 C 
ATOM      8  O   UNL     1      -0.240   9.238  17.356  0.00  0.00    +0.000 OA
ATOM      9  N   UNL     1      -1.033  10.786  18.882  0.00  0.00    +0.000 N 
ATOM     10  C   UNL     1      -2.337  10.695  18.470  0.00  0.00    +0.000 A 
ATOM     11  N   UNL     1      -2.925   9.791  17.726  0.00  0.00    +0.000 NA
ATOM     12  N   UNL     1      -4.233  10.131  17.444  0.00  0.00    +0.000 NA
ATOM     13  C   UNL     1      -4.566  11.288  17.974  0.00  0.00    +0.000 A 
ATOM     14  C   UNL     1      -5.848  11.994  17.726  0.00  0.00    +0.000 C 
ATOM     15  S   UNL     1      -3.344  11.980  18.970  0.00  0.00    +0.000 S 
ATOM     16  H   UNL     1      -0.794  11.555  19.488  0.00  0.00    +0.000 HD
ENDBRANCH   4   7
BRANCH   1  17
ATOM     17  S   UNL     1       2.458   5.842  18.656  0.00  0.00    +0.000 S 
ATOM     18  O   UNL     1       1.345   5.516  17.787  0.00  0.00    +0.000 OA
ATOM     19  O   UNL     1       2.610   5.207  19.947  0.00  0.00    +0.000 OA
BRANCH  17  23
ATOM     20  C   UNL     1       6.287   5.112  16.217  0.00  0.00    +0.000 A 
ATOM     21  C   UNL     1       5.356   4.078  16.403  0.00  0.00    +0.000 A 
ATOM     22  C   UNL     1       4.175   4.289  17.120  0.00  0.00    +0.000 A 
ATOM     23  C   UNL     1       3.951   5.520  17.730  0.00  0.00    +0.000 A 
ATOM     24  C   UNL     1       4.907   6.533  17.608  0.00  0.00    +0.000 A 
ATOM     25  C   UNL     1       6.077   6.345  16.857  0.00  0.00    +0.000 A 
BRANCH  20  27
ATOM     26  C   UNL     1       7.145   4.834  14.028  0.00  0.00    +0.000 C 
ATOM     27  O   UNL     1       7.395   4.930  15.432  0.00  0.00    +0.000 OA
ENDBRANCH  20  27
BRANCH  25  28
ATOM     28  O   UNL     1       6.855   7.471  16.834  0.00  0.00    +0.000 OA
ATOM     29  C   UNL     1       7.814   7.685  17.858  0.00  0.00    +0.000 C 
ENDBRANCH  25  28
ENDBRANCH  17  23
ENDBRANCH   1  17
TORSDOF 5
ENDMDL
MODEL 8
REMARK VINA RESULT:      -6.5      4.199      7.218
REMARK  Name = 
REMARK  8 active torsions:
REMARK  status: ('A' for Active; 'I' for Inactive)
REMARK    1  A    between atoms: C_1  and  O_2
REMARK    2  A    between atoms: O_2  and  C_3
REMARK    3  A    between atoms: C_6  and  S_7
REMARK    4  A    between atoms: S_7  and  N_10
REMARK    5  A    between atoms: C_13  and  C_14
REMARK    6  A    between atoms: C_20  and  C_21
REMARK    7  A    between atoms: C_26  and  O_27
REMARK    8  A    between atoms: O_27  and  C_28
REMARK                            x       y       z     vdW  Elec       q    Type
REMARK                         _______ _______ _______ _____ _____    ______ ____
ROOT
ATOM      1  N   UNL     1       2.659   3.151  19.081  0.00  0.00    +0.000 NA
ATOM      2  C   UNL     1       3.513   3.798  20.105  0.00  0.00    +0.000 C 
ATOM      3  C   UNL     1       2.753   4.139  21.382  0.00  0.00    +0.000 C 
ATOM      4  C   UNL     1       1.432   4.858  21.103  0.00  0.00    +0.000 C 
ATOM      5  C   UNL     1       0.583   3.954  20.212  0.00  0.00    +0.000 C 
ATOM      6  C   UNL     1       1.281   3.657  18.892  0.00  0.00    +0.000 C 
ENDROOT
BRANCH   4   7
ATOM      7  C   UNL     1       1.650   6.245  20.486  0.00  0.00    +0.000 C 
ATOM      8  O   UNL     1       2.511   6.438  19.634  0.00  0.00    +0.000 OA
ATOM      9  N   UNL     1       0.822   7.212  21.014  0.00  0.00    +0.000 N 
ATOM     10  C   UNL     1       0.900   8.508  20.575  0.00  0.00    +0.000 A 
ATOM     11  N   UNL     1       1.485   9.004  19.513  0.00  0.00    +0.000 NA
ATOM     12  N   UNL     1       1.433  10.384  19.496  0.00  0.00    +0.000 NA
ATOM     13  C   UNL     1       0.826  10.866  20.559  0.00  0.00    +0.000 A 
ATOM     14  C   UNL     1       0.744  12.307  20.905  0.00  0.00    +0.000 C 
ATOM     15  S   UNL     1       0.156   9.661  21.590  0.00  0.00    +0.000 S 
ATOM     16  H   UNL     1       0.286   7.041  21.850  0.00  0.00    +0.000 HD
ENDBRANCH   4   7
BRANCH   1  17
ATOM     17  S   UNL     1       3.463   2.718  17.624  0.00  0.00    +0.000 S 
ATOM     18  O   UNL     1       2.490   2.878  16.562  0.00  0.00    +0.000 OA
ATOM     19  O   UNL     1       4.151   1.461  17.826  0.00  0.00    +0.000 OA
BRANCH  17  23
ATOM     20  C   UNL     1       6.726   5.878  16.914  0.00  0.00    +0.000 A 
ATOM     21  C   UNL     1       6.337   5.540  18.219  0.00  0.00    +0.000 A 
ATOM     22  C   UNL     1       5.366   4.563  18.455  0.00  0.00    +0.000 A 
ATOM     23  C   UNL     1       4.712   3.971  17.378  0.00  0.00    +0.000 A 
ATOM     24  C   UNL     1       5.043   4.354  16.075  0.00  0.00    +0.000 A 
ATOM     25  C   UNL     1       6.046   5.303  15.827  0.00  0.00    +0.000 A 
BRANCH  20  27
ATOM     26  C   UNL     1       7.765   7.911  17.541  0.00  0.00    +0.000 C 
ATOM     27  O   UNL     1       7.747   6.764  16.689  0.00  0.00    +0.000 OA
ENDBRANCH  20  27
BRANCH  25  28
ATOM     28  O   UNL     1       6.238   5.502  14.486  0.00  0.00    +0.000 OA
ATOM     29  C   UNL     1       6.733   4.443  13.682  0.00  0.00    +0.000 C 
ENDBRANCH  25  28
ENDBRANCH  17  23
ENDBRANCH   1  17
TORSDOF 5
ENDMDL
MODEL 9
REMARK VINA RESULT:      -6.4      5.177     10.572
REMARK  Name = 
REMARK  8 active torsions:
REMARK  status: ('A' for Active; 'I' for Inactive)
REMARK    1  A    between atoms: C_1  and  O_2
REMARK    2  A    between atoms: O_2  and  C_3
REMARK    3  A    between atoms: C_6  and  S_7
REMARK    4  A    between atoms: S_7  and  N_10
REMARK    5  A    between atoms: C_13  and  C_14
REMARK    6  A    between atoms: C_20  and  C_21
REMARK    7  A    between atoms: C_26  and  O_27
REMARK    8  A    between atoms: O_27  and  C_28
REMARK                            x       y       z     vdW  Elec       q    Type
REMARK                         _______ _______ _______ _____ _____    ______ ____
ROOT
ATOM      1  N   UNL     1       4.277   6.322  18.857  0.00  0.00    +0.000 NA
ATOM      2  C   UNL     1       5.123   5.155  19.205  0.00  0.00    +0.000 C 
ATOM      3  C   UNL     1       6.604   5.395  18.934  0.00  0.00    +0.000 C 
ATOM      4  C   UNL     1       6.859   5.977  17.543  0.00  0.00    +0.000 C 
ATOM      5  C   UNL     1       6.086   7.289  17.434  0.00  0.00    +0.000 C 
ATOM      6  C   UNL     1       4.590   7.074  17.621  0.00  0.00    +0.000 C 
ENDROOT
BRANCH   4   7
ATOM      7  C   UNL     1       6.490   4.989  16.429  0.00  0.00    +0.000 C 
ATOM      8  O   UNL     1       5.848   3.971  16.664  0.00  0.00    +0.000 OA
ATOM      9  N   UNL     1       6.983   5.353  15.194  0.00  0.00    +0.000 N 
ATOM     10  C   UNL     1       6.749   4.568  14.096  0.00  0.00    +0.000 A 
ATOM     11  N   UNL     1       5.892   3.591  13.924  0.00  0.00    +0.000 NA
ATOM     12  N   UNL     1       6.056   2.974  12.700  0.00  0.00    +0.000 NA
ATOM     13  C   UNL     1       7.044   3.504  12.011  0.00  0.00    +0.000 A 
ATOM     14  C   UNL     1       7.564   2.966  10.728  0.00  0.00    +0.000 C 
ATOM     15  S   UNL     1       7.756   4.884  12.754  0.00  0.00    +0.000 S 
ATOM     16  H   UNL     1       7.672   6.081  15.101  0.00  0.00    +0.000 HD
ENDBRANCH   4   7
BRANCH   1  17
ATOM     17  S   UNL     1       2.597   6.124  19.162  0.00  0.00    +0.000 S 
ATOM     18  O   UNL     1       2.495   5.434  20.433  0.00  0.00    +0.000 OA
ATOM     19  O   UNL     1       1.964   5.597  17.973  0.00  0.00    +0.000 OA
BRANCH  17  23
ATOM     20  C   UNL     1       0.878  10.328  19.877  0.00  0.00    +0.000 A 
ATOM     21  C   UNL     1       1.233   9.916  18.583  0.00  0.00    +0.000 A 
ATOM     22  C   UNL     1       1.733   8.634  18.343  0.00  0.00    +0.000 A 
ATOM     23  C   UNL     1       1.960   7.774  19.414  0.00  0.00    +0.000 A 
ATOM     24  C   UNL     1       1.675   8.201  20.714  0.00  0.00    +0.000 A 
ATOM     25  C   UNL     1       1.135   9.472  20.962  0.00  0.00    +0.000 A 
BRANCH  20  27
ATOM     26  C   UNL     1      -1.088  11.641  19.755  0.00  0.00    +0.000 C 
ATOM     27  O   UNL     1       0.297  11.550  20.095  0.00  0.00    +0.000 OA
ENDBRANCH  20  27
BRANCH  25  28
ATOM     28  O   UNL     1       0.896   9.673  22.294  0.00  0.00    +0.000 OA
ATOM     29  C   UNL     1      -0.392   9.405  22.826  0.00  0.00    +0.000 C 
ENDBRANCH  25  28
ENDBRANCH  17  23
ENDBRANCH   1  17
TORSDOF 5
ENDMDL
