MODEL 1
REMARK VINA RESULT:      -7.6      0.000      0.000
REMARK  Name = 
REMARK  9 active torsions:
REMARK  status: ('A' for Active; 'I' for Inactive)
REMARK    1  A    between atoms: C_1  and  O_2
REMARK    2  A    between atoms: O_2  and  C_3
REMARK    3  A    between atoms: C_8  and  C_9
REMARK    4  A    between atoms: C_11  and  C_12
REMARK    5  A    between atoms: C_13  and  C_14
REMARK    6  A    between atoms: N_22  and  C_23
REMARK    7  A    between atoms: C_23  and  C_24
REMARK    8  A    between atoms: C_33  and  O_34
REMARK    9  A    between atoms: O_34  and  C_35
REMARK                            x       y       z     vdW  Elec       q    Type
REMARK                         _______ _______ _______ _____ _____    ______ ____
ROOT
ATOM      1  C   UNL     1       2.007   6.491  20.225  0.00  0.00    +0.000 A 
ATOM      2  C   UNL     1       1.198   7.280  21.033  0.00  0.00    +0.000 A 
ATOM      3  C   UNL     1       0.900   8.596  20.672  0.00  0.00    +0.000 A 
ATOM      4  C   UNL     1       0.024   9.359  21.583  0.00  0.00    +0.000 A 
ATOM      5  O   UNL     1      -0.451   8.814  22.576  0.00  0.00    +0.000 OA
ATOM      6  C   UNL     1      -0.208  10.775  21.264  0.00  0.00    +0.000 A 
ATOM      7  C   UNL     1       0.288  11.236  20.100  0.00  0.00    +0.000 A 
ATOM      8  N   UNL     1       1.056  10.518  19.181  0.00  0.00    +0.000 N 
ATOM      9  C   UNL     1       1.414   9.184  19.500  0.00  0.00    +0.000 A 
ATOM     10  C   UNL     1       2.262   8.379  18.718  0.00  0.00    +0.000 A 
ATOM     11  C   UNL     1       2.587   7.059  19.082  0.00  0.00    +0.000 A 
ENDROOT
BRANCH   6  12
ATOM     12  C   UNL     1      -0.870  11.707  22.179  0.00  0.00    +0.000 C 
ATOM     13  N   UNL     1      -0.428  12.867  22.543  0.00  0.00    +0.000 NA
ATOM     14  C   UNL     1      -1.429  13.351  23.514  0.00  0.00    +0.000 C 
ATOM     15  C   UNL     1      -1.892  14.731  23.062  0.00  0.00    +0.000 C 
ATOM     16  C   UNL     1      -2.489  12.239  23.608  0.00  0.00    +0.000 C 
ATOM     17  O   UNL     1      -2.039  11.257  22.677  0.00  0.00    +0.000 OA
BRANCH  16  18
ATOM     18  C   UNL     1      -3.910  12.662  23.309  0.00  0.00    +0.000 A 
ATOM     19  C   UNL     1      -4.851  12.830  24.335  0.00  0.00    +0.000 A 
ATOM     20  C   UNL     1      -6.199  13.010  24.035  0.00  0.00    +0.000 A 
ATOM     21  C   UNL     1      -6.619  13.047  22.707  0.00  0.00    +0.000 A 
ATOM     22  C   UNL     1      -5.685  12.948  21.678  0.00  0.00    +0.000 A 
ATOM     23  C   UNL     1      -4.334  12.765  21.975  0.00  0.00    +0.000 A 
ENDBRANCH  16  18
ENDBRANCH   6  12
BRANCH   1  25
ATOM     24  C   UNL     1       1.146   4.313  20.437  0.00  0.00    +0.000 C 
ATOM     25  O   UNL     1       2.278   5.181  20.523  0.00  0.00    +0.000 OA
ENDBRANCH   1  25
BRANCH  11  26
ATOM     26  O   UNL     1       3.404   6.248  18.334  0.00  0.00    +0.000 OA
ATOM     27  C   UNL     1       4.273   6.902  17.414  0.00  0.00    +0.000 C 
ENDBRANCH  11  26
BRANCH   8  28
ATOM     28  C   UNL     1       1.699  11.205  18.035  0.00  0.00    +0.000 C 
BRANCH  28  29
ATOM     29  C   UNL     1       1.882  12.689  18.301  0.00  0.00    +0.000 A 
ATOM     30  C   UNL     1       0.774  13.520  18.534  0.00  0.00    +0.000 A 
ATOM     31  C   UNL     1       0.934  14.904  18.643  0.00  0.00    +0.000 A 
ATOM     32  C   UNL     1       2.205  15.464  18.548  0.00  0.00    +0.000 A 
ATOM     33 CL   UNL     1       2.393  17.173  18.605  0.00  0.00    +0.000 Cl
ATOM     34  C   UNL     1       3.322  14.651  18.392  0.00  0.00    +0.000 A 
ATOM     35  C   UNL     1       3.162  13.269  18.276  0.00  0.00    +0.000 A 
ENDBRANCH  28  29
ENDBRANCH   8  28
TORSDOF 6
ENDMDL
MODEL 2
REMARK VINA RESULT:      -7.4      3.327      5.794
REMARK  Name = 
REMARK  9 active torsions:
REMARK  status: ('A' for Active; 'I' for Inactive)
REMARK    1  A    between atoms: C_1  and  O_2
REMARK    2  A    between atoms: O_2  and  C_3
REMARK    3  A    between atoms: C_8  and  C_9
REMARK    4  A    between atoms: C_11  and  C_12
REMARK    5  A    between atoms: C_13  and  C_14
REMARK    6  A    between atoms: N_22  and  C_23
REMARK    7  A    between atoms: C_23  and  C_24
REMARK    8  A    between atoms: C_33  and  O_34
REMARK    9  A    between atoms: O_34  and  C_35
REMARK                            x       y       z     vdW  Elec       q    Type
REMARK                         _______ _______ _______ _____ _____    ______ ____
ROOT
ATOM      1  C   UNL     1       3.097   3.333  20.886  0.00  0.00    +0.000 A 
ATOM      2  C   UNL     1       2.388   4.527  20.863  0.00  0.00    +0.000 A 
ATOM      3  C   UNL     1       2.628   5.476  19.866  0.00  0.00    +0.000 A 
ATOM      4  C   UNL     1       1.821   6.712  19.910  0.00  0.00    +0.000 A 
ATOM      5  O   UNL     1       0.949   6.844  20.765  0.00  0.00    +0.000 OA
ATOM      6  C   UNL     1       2.140   7.758  18.929  0.00  0.00    +0.000 A 
ATOM      7  C   UNL     1       3.052   7.463  17.984  0.00  0.00    +0.000 A 
ATOM      8  N   UNL     1       3.776   6.275  17.870  0.00  0.00    +0.000 N 
ATOM      9  C   UNL     1       3.598   5.280  18.865  0.00  0.00    +0.000 A 
ATOM     10  C   UNL     1       4.331   4.081  18.931  0.00  0.00    +0.000 A 
ATOM     11  C   UNL     1       4.114   3.127  19.943  0.00  0.00    +0.000 A 
ENDROOT
BRANCH   6  12
ATOM     12  C   UNL     1       1.579   9.111  18.985  0.00  0.00    +0.000 C 
ATOM     13  N   UNL     1       0.892   9.693  18.057  0.00  0.00    +0.000 NA
ATOM     14  C   UNL     1       0.637  11.047  18.588  0.00  0.00    +0.000 C 
ATOM     15  C   UNL     1      -0.865  11.299  18.532  0.00  0.00    +0.000 C 
ATOM     16  C   UNL     1       1.315  11.087  19.969  0.00  0.00    +0.000 C 
ATOM     17  O   UNL     1       1.851   9.775  20.126  0.00  0.00    +0.000 OA
BRANCH  16  18
ATOM     18  C   UNL     1       0.417  11.451  21.129  0.00  0.00    +0.000 A 
ATOM     19  C   UNL     1      -0.104  10.470  21.985  0.00  0.00    +0.000 A 
ATOM     20  C   UNL     1      -1.092  10.792  22.912  0.00  0.00    +0.000 A 
ATOM     21  C   UNL     1      -1.555  12.102  23.010  0.00  0.00    +0.000 A 
ATOM     22  C   UNL     1      -0.999  13.100  22.213  0.00  0.00    +0.000 A 
ATOM     23  C   UNL     1      -0.010  12.780  21.282  0.00  0.00    +0.000 A 
ENDBRANCH  16  18
ENDBRANCH   6  12
BRANCH   1  25
ATOM     24  C   UNL     1       1.484   2.249  22.209  0.00  0.00    +0.000 C 
ATOM     25  O   UNL     1       2.854   2.358  21.818  0.00  0.00    +0.000 OA
ENDBRANCH   1  25
BRANCH  11  26
ATOM     26  O   UNL     1       4.808   1.944  20.027  0.00  0.00    +0.000 OA
ATOM     27  C   UNL     1       4.418   0.918  19.121  0.00  0.00    +0.000 C 
ENDBRANCH  11  26
BRANCH   8  28
ATOM     28  C   UNL     1       4.888   6.158  16.896  0.00  0.00    +0.000 C 
BRANCH  28  29
ATOM     29  C   UNL     1       6.104   6.954  17.335  0.00  0.00    +0.000 A 
ATOM     30  C   UNL     1       7.096   6.367  18.137  0.00  0.00    +0.000 A 
ATOM     31  C   UNL     1       8.142   7.138  18.652  0.00  0.00    +0.000 A 
ATOM     32  C   UNL     1       8.220   8.494  18.345  0.00  0.00    +0.000 A 
ATOM     33 CL   UNL     1       9.463   9.459  19.040  0.00  0.00    +0.000 Cl
ATOM     34  C   UNL     1       7.288   9.076  17.493  0.00  0.00    +0.000 A 
ATOM     35  C   UNL     1       6.239   8.309  16.984  0.00  0.00    +0.000 A 
ENDBRANCH  28  29
ENDBRANCH   8  28
TORSDOF 6
ENDMDL
MODEL 3
REMARK VINA RESULT:      -7.2      3.959      6.866
REMARK  Name = 
REMARK  9 active torsions:
REMARK  status: ('A' for Active; 'I' for Inactive)
REMARK    1  A    between atoms: C_1  and  O_2
REMARK    2  A    between atoms: O_2  and  C_3
REMARK    3  A    between atoms: C_8  and  C_9
REMARK    4  A    between atoms: C_11  and  C_12
REMARK    5  A    between atoms: C_13  and  C_14
REMARK    6  A    between atoms: N_22  and  C_23
REMARK    7  A    between atoms: C_23  and  C_24
REMARK    8  A    between atoms: C_33  and  O_34
REMARK    9  A    between atoms: O_34  and  C_35
REMARK                            x       y       z     vdW  Elec       q    Type
REMARK                         _______ _______ _______ _____ _____    ______ ____
ROOT
ATOM      1  C   UNL     1       3.155   3.139  20.873  0.00  0.00    +0.000 A 
ATOM      2  C   UNL     1       2.362   4.266  20.698  0.00  0.00    +0.000 A 
ATOM      3  C   UNL     1       2.777   5.303  19.858  0.00  0.00    +0.000 A 
ATOM      4  C   UNL     1       1.868   6.458  19.721  0.00  0.00    +0.000 A 
ATOM      5  O   UNL     1       0.778   6.451  20.288  0.00  0.00    +0.000 OA
ATOM      6  C   UNL     1       2.344   7.597  18.923  0.00  0.00    +0.000 A 
ATOM      7  C   UNL     1       3.513   7.451  18.274  0.00  0.00    +0.000 A 
ATOM      8  N   UNL     1       4.359   6.342  18.323  0.00  0.00    +0.000 N 
ATOM      9  C   UNL     1       4.008   5.265  19.176  0.00  0.00    +0.000 A 
ATOM     10  C   UNL     1       4.812   4.132  19.400  0.00  0.00    +0.000 A 
ATOM     11  C   UNL     1       4.415   3.091  20.260  0.00  0.00    +0.000 A 
ENDROOT
BRANCH   6  12
ATOM     12  C   UNL     1       1.653   8.888  18.875  0.00  0.00    +0.000 C 
ATOM     13  N   UNL     1       0.951   9.343  17.888  0.00  0.00    +0.000 NA
ATOM     14  C   UNL     1       0.545  10.695  18.323  0.00  0.00    +0.000 C 
ATOM     15  C   UNL     1      -0.971  10.792  18.199  0.00  0.00    +0.000 C 
ATOM     16  C   UNL     1       1.159  10.884  19.722  0.00  0.00    +0.000 C 
ATOM     17  O   UNL     1       1.812   9.643  19.980  0.00  0.00    +0.000 OA
BRANCH  16  18
ATOM     18  C   UNL     1       0.183  11.226  20.824  0.00  0.00    +0.000 A 
ATOM     19  C   UNL     1      -0.186  12.554  21.086  0.00  0.00    +0.000 A 
ATOM     20  C   UNL     1      -0.913  12.873  22.230  0.00  0.00    +0.000 A 
ATOM     21  C   UNL     1      -1.299  11.868  23.113  0.00  0.00    +0.000 A 
ATOM     22  C   UNL     1      -0.998  10.537  22.831  0.00  0.00    +0.000 A 
ATOM     23  C   UNL     1      -0.268  10.214  21.687  0.00  0.00    +0.000 A 
ENDBRANCH  16  18
ENDBRANCH   6  12
BRANCH   1  25
ATOM     24  C   UNL     1       1.403   2.160  22.098  0.00  0.00    +0.000 C 
ATOM     25  O   UNL     1       2.757   2.081  21.649  0.00  0.00    +0.000 OA
ENDBRANCH   1  25
BRANCH  11  26
ATOM     26  O   UNL     1       5.174   1.970  20.490  0.00  0.00    +0.000 OA
ATOM     27  C   UNL     1       4.891   0.838  19.673  0.00  0.00    +0.000 C 
ENDBRANCH  11  26
BRANCH   8  28
ATOM     28  C   UNL     1       5.709   6.393  17.712  0.00  0.00    +0.000 C 
BRANCH  28  29
ATOM     29  C   UNL     1       5.794   5.528  16.466  0.00  0.00    +0.000 A 
ATOM     30  C   UNL     1       6.993   5.422  15.745  0.00  0.00    +0.000 A 
ATOM     31  C   UNL     1       7.032   4.737  14.527  0.00  0.00    +0.000 A 
ATOM     32  C   UNL     1       5.879   4.130  14.037  0.00  0.00    +0.000 A 
ATOM     33 CL   UNL     1       5.908   3.353  12.502  0.00  0.00    +0.000 Cl
ATOM     34  C   UNL     1       4.700   4.161  14.773  0.00  0.00    +0.000 A 
ATOM     35  C   UNL     1       4.659   4.851  15.986  0.00  0.00    +0.000 A 
ENDBRANCH  28  29
ENDBRANCH   8  28
TORSDOF 6
ENDMDL
MODEL 4
REMARK VINA RESULT:      -7.1      3.329      5.629
REMARK  Name = 
REMARK  9 active torsions:
REMARK  status: ('A' for Active; 'I' for Inactive)
REMARK    1  A    between atoms: C_1  and  O_2
REMARK    2  A    between atoms: O_2  and  C_3
REMARK    3  A    between atoms: C_8  and  C_9
REMARK    4  A    between atoms: C_11  and  C_12
REMARK    5  A    between atoms: C_13  and  C_14
REMARK    6  A    between atoms: N_22  and  C_23
REMARK    7  A    between atoms: C_23  and  C_24
REMARK    8  A    between atoms: C_33  and  O_34
REMARK    9  A    between atoms: O_34  and  C_35
REMARK                            x       y       z     vdW  Elec       q    Type
REMARK                         _______ _______ _______ _____ _____    ______ ____
ROOT
ATOM      1  C   UNL     1       2.522   4.443  20.770  0.00  0.00    +0.000 A 
ATOM      2  C   UNL     1       1.949   5.693  20.968  0.00  0.00    +0.000 A 
ATOM      3  C   UNL     1       2.021   6.673  19.974  0.00  0.00    +0.000 A 
ATOM      4  C   UNL     1       1.376   7.969  20.264  0.00  0.00    +0.000 A 
ATOM      5  O   UNL     1       0.763   8.126  21.317  0.00  0.00    +0.000 OA
ATOM      6  C   UNL     1       1.538   9.038  19.268  0.00  0.00    +0.000 A 
ATOM      7  C   UNL     1       2.149   8.719  18.113  0.00  0.00    +0.000 A 
ATOM      8  N   UNL     1       2.703   7.481  17.779  0.00  0.00    +0.000 N 
ATOM      9  C   UNL     1       2.685   6.451  18.753  0.00  0.00    +0.000 A 
ATOM     10  C   UNL     1       3.291   5.192  18.591  0.00  0.00    +0.000 A 
ATOM     11  C   UNL     1       3.244   4.204  19.593  0.00  0.00    +0.000 A 
ENDROOT
BRANCH   6  12
ATOM     12  C   UNL     1       1.143  10.427  19.510  0.00  0.00    +0.000 C 
ATOM     13  N   UNL     1       0.736  11.273  18.620  0.00  0.00    +0.000 NA
ATOM     14  C   UNL     1       0.542  12.528  19.373  0.00  0.00    +0.000 C 
ATOM     15  C   UNL     1      -0.876  13.021  19.105  0.00  0.00    +0.000 C 
ATOM     16  C   UNL     1       0.920  12.204  20.829  0.00  0.00    +0.000 C 
ATOM     17  O   UNL     1       1.251  10.818  20.796  0.00  0.00    +0.000 OA
BRANCH  16  18
ATOM     18  C   UNL     1      -0.148  12.485  21.861  0.00  0.00    +0.000 A 
ATOM     19  C   UNL     1      -1.054  11.493  22.262  0.00  0.00    +0.000 A 
ATOM     20  C   UNL     1      -2.158  11.818  23.047  0.00  0.00    +0.000 A 
ATOM     21  C   UNL     1      -2.356  13.133  23.460  0.00  0.00    +0.000 A 
ATOM     22  C   UNL     1      -1.427  14.117  23.125  0.00  0.00    +0.000 A 
ATOM     23  C   UNL     1      -0.322  13.795  22.337  0.00  0.00    +0.000 A 
ENDBRANCH  16  18
ENDBRANCH   6  12
BRANCH   1  25
ATOM     24  C   UNL     1       1.269   2.618  21.561  0.00  0.00    +0.000 C 
ATOM     25  O   UNL     1       2.427   3.442  21.702  0.00  0.00    +0.000 OA
ENDBRANCH   1  25
BRANCH  11  26
ATOM     26  O   UNL     1       3.819   2.964  19.458  0.00  0.00    +0.000 OA
ATOM     27  C   UNL     1       3.458   2.224  18.296  0.00  0.00    +0.000 C 
ENDBRANCH  11  26
BRANCH   8  28
ATOM     28  C   UNL     1       3.517   7.325  16.549  0.00  0.00    +0.000 C 
BRANCH  28  29
ATOM     29  C   UNL     1       4.828   6.611  16.832  0.00  0.00    +0.000 A 
ATOM     30  C   UNL     1       5.072   5.328  16.316  0.00  0.00    +0.000 A 
ATOM     31  C   UNL     1       6.218   4.619  16.689  0.00  0.00    +0.000 A 
ATOM     32  C   UNL     1       7.140   5.198  17.556  0.00  0.00    +0.000 A 
ATOM     33 CL   UNL     1       8.510   4.297  18.075  0.00  0.00    +0.000 Cl
ATOM     34  C   UNL     1       6.951   6.497  18.018  0.00  0.00    +0.000 A 
ATOM     35  C   UNL     1       5.804   7.203  17.652  0.00  0.00    +0.000 A 
ENDBRANCH  28  29
ENDBRANCH   8  28
TORSDOF 6
ENDMDL
MODEL 5
REMARK VINA RESULT:      -7.0      0.623      1.311
REMARK  Name = 
REMARK  9 active torsions:
REMARK  status: ('A' for Active; 'I' for Inactive)
REMARK    1  A    between atoms: C_1  and  O_2
REMARK    2  A    between atoms: O_2  and  C_3
REMARK    3  A    between atoms: C_8  and  C_9
REMARK    4  A    between atoms: C_11  and  C_12
REMARK    5  A    between atoms: C_13  and  C_14
REMARK    6  A    between atoms: N_22  and  C_23
REMARK    7  A    between atoms: C_23  and  C_24
REMARK    8  A    between atoms: C_33  and  O_34
REMARK    9  A    between atoms: O_34  and  C_35
REMARK                            x       y       z     vdW  Elec       q    Type
REMARK                         _______ _______ _______ _____ _____    ______ ____
ROOT
ATOM      1  C   UNL     1       2.297   6.625  19.499  0.00  0.00    +0.000 A 
ATOM      2  C   UNL     1       1.493   7.351  20.368  0.00  0.00    +0.000 A 
ATOM      3  C   UNL     1       1.209   8.696  20.117  0.00  0.00    +0.000 A 
ATOM      4  C   UNL     1       0.336   9.388  21.087  0.00  0.00    +0.000 A 
ATOM      5  O   UNL     1      -0.147   8.766  22.029  0.00  0.00    +0.000 OA
ATOM      6  C   UNL     1       0.119  10.828  20.888  0.00  0.00    +0.000 A 
ATOM      7  C   UNL     1       0.624  11.380  19.769  0.00  0.00    +0.000 A 
ATOM      8  N   UNL     1       1.389  10.735  18.795  0.00  0.00    +0.000 N 
ATOM      9  C   UNL     1       1.733   9.375  19.001  0.00  0.00    +0.000 A 
ATOM     10  C   UNL     1       2.577   8.631  18.157  0.00  0.00    +0.000 A 
ATOM     11  C   UNL     1       2.888   7.282  18.410  0.00  0.00    +0.000 A 
ENDROOT
BRANCH   6  12
ATOM     12  C   UNL     1      -0.538  11.686  21.877  0.00  0.00    +0.000 C 
ATOM     13  N   UNL     1      -0.148  12.861  22.249  0.00  0.00    +0.000 NA
ATOM     14  C   UNL     1      -1.110  13.248  23.300  0.00  0.00    +0.000 C 
ATOM     15  C   UNL     1      -1.692  14.606  22.928  0.00  0.00    +0.000 C 
ATOM     16  C   UNL     1      -2.087  12.065  23.427  0.00  0.00    +0.000 C 
ATOM     17  O   UNL     1      -1.638  11.143  22.435  0.00  0.00    +0.000 OA
BRANCH  16  18
ATOM     18  C   UNL     1      -3.549  12.400  23.238  0.00  0.00    +0.000 A 
ATOM     19  C   UNL     1      -4.088  12.617  21.962  0.00  0.00    +0.000 A 
ATOM     20  C   UNL     1      -5.375  13.130  21.816  0.00  0.00    +0.000 A 
ATOM     21  C   UNL     1      -6.145  13.410  22.942  0.00  0.00    +0.000 A 
ATOM     22  C   UNL     1      -5.647  13.136  24.214  0.00  0.00    +0.000 A 
ATOM     23  C   UNL     1      -4.358  12.624  24.363  0.00  0.00    +0.000 A 
ENDBRANCH  16  18
ENDBRANCH   6  12
BRANCH   1  25
ATOM     24  C   UNL     1       2.188   4.798  20.975  0.00  0.00    +0.000 C 
ATOM     25  O   UNL     1       2.555   5.292  19.685  0.00  0.00    +0.000 OA
ENDBRANCH   1  25
BRANCH  11  26
ATOM     26  O   UNL     1       3.700   6.529  17.598  0.00  0.00    +0.000 OA
ATOM     27  C   UNL     1       5.103   6.712  17.764  0.00  0.00    +0.000 C 
ENDBRANCH  11  26
BRANCH   8  28
ATOM     28  C   UNL     1       2.043  11.510  17.713  0.00  0.00    +0.000 C 
BRANCH  28  29
ATOM     29  C   UNL     1       2.186  12.976  18.081  0.00  0.00    +0.000 A 
ATOM     30  C   UNL     1       3.453  13.550  18.269  0.00  0.00    +0.000 A 
ATOM     31  C   UNL     1       3.577  14.861  18.740  0.00  0.00    +0.000 A 
ATOM     32  C   UNL     1       2.436  15.615  18.998  0.00  0.00    +0.000 A 
ATOM     33 CL   UNL     1       2.587  17.200  19.650  0.00  0.00    +0.000 Cl
ATOM     34  C   UNL     1       1.173  15.089  18.747  0.00  0.00    +0.000 A 
ATOM     35  C   UNL     1       1.049  13.778  18.283  0.00  0.00    +0.000 A 
ENDBRANCH  28  29
ENDBRANCH   8  28
TORSDOF 6
ENDMDL
MODEL 6
REMARK VINA RESULT:      -7.0      1.252      2.046
REMARK  Name = 
REMARK  9 active torsions:
REMARK  status: ('A' for Active; 'I' for Inactive)
REMARK    1  A    between atoms: C_1  and  O_2
REMARK    2  A    between atoms: O_2  and  C_3
REMARK    3  A    between atoms: C_8  and  C_9
REMARK    4  A    between atoms: C_11  and  C_12
REMARK    5  A    between atoms: C_13  and  C_14
REMARK    6  A    between atoms: N_22  and  C_23
REMARK    7  A    between atoms: C_23  and  C_24
REMARK    8  A    between atoms: C_33  and  O_34
REMARK    9  A    between atoms: O_34  and  C_35
REMARK                            x       y       z     vdW  Elec       q    Type
REMARK                         _______ _______ _______ _____ _____    ______ ____
ROOT
ATOM      1  C   UNL     1       1.964   6.408  20.313  0.00  0.00    +0.000 A 
ATOM      2  C   UNL     1       1.085   7.211  21.028  0.00  0.00    +0.000 A 
ATOM      3  C   UNL     1       0.824   8.521  20.616  0.00  0.00    +0.000 A 
ATOM      4  C   UNL     1      -0.131   9.300  21.428  0.00  0.00    +0.000 A 
ATOM      5  O   UNL     1      -0.697   8.773  22.382  0.00  0.00    +0.000 OA
ATOM      6  C   UNL     1      -0.329  10.710  21.063  0.00  0.00    +0.000 A 
ATOM      7  C   UNL     1       0.273  11.149  19.943  0.00  0.00    +0.000 A 
ATOM      8  N   UNL     1       1.122  10.415  19.112  0.00  0.00    +0.000 N 
ATOM      9  C   UNL     1       1.446   9.086  19.487  0.00  0.00    +0.000 A 
ATOM     10  C   UNL     1       2.362   8.268  18.802  0.00  0.00    +0.000 A 
ATOM     11  C   UNL     1       2.649   6.954  19.219  0.00  0.00    +0.000 A 
ENDROOT
BRANCH   6  12
ATOM     12  C   UNL     1      -1.073  11.659  21.896  0.00  0.00    +0.000 C 
ATOM     13  N   UNL     1      -0.757  12.036  23.092  0.00  0.00    +0.000 NA
ATOM     14  C   UNL     1      -1.862  12.930  23.495  0.00  0.00    +0.000 C 
ATOM     15  C   UNL     1      -1.254  14.253  23.946  0.00  0.00    +0.000 C 
ATOM     16  C   UNL     1      -2.829  12.962  22.298  0.00  0.00    +0.000 C 
ATOM     17  O   UNL     1      -2.194  12.139  21.322  0.00  0.00    +0.000 OA
BRANCH  16  18
ATOM     18  C   UNL     1      -3.135  14.333  21.739  0.00  0.00    +0.000 A 
ATOM     19  C   UNL     1      -2.268  14.961  20.833  0.00  0.00    +0.000 A 
ATOM     20  C   UNL     1      -2.449  16.299  20.493  0.00  0.00    +0.000 A 
ATOM     21  C   UNL     1      -3.511  17.019  21.036  0.00  0.00    +0.000 A 
ATOM     22  C   UNL     1      -4.419  16.389  21.885  0.00  0.00    +0.000 A 
ATOM     23  C   UNL     1      -4.239  15.049  22.230  0.00  0.00    +0.000 A 
ENDBRANCH  16  18
ENDBRANCH   6  12
BRANCH   1  25
ATOM     24  C   UNL     1       1.110   4.219  20.408  0.00  0.00    +0.000 C 
ATOM     25  O   UNL     1       2.204   5.103  20.658  0.00  0.00    +0.000 OA
ENDBRANCH   1  25
BRANCH  11  26
ATOM     26  O   UNL     1       3.531   6.129  18.565  0.00  0.00    +0.000 OA
ATOM     27  C   UNL     1       4.219   6.695  17.454  0.00  0.00    +0.000 C 
ENDBRANCH  11  26
BRANCH   8  28
ATOM     28  C   UNL     1       1.870  11.081  18.019  0.00  0.00    +0.000 C 
BRANCH  28  29
ATOM     29  C   UNL     1       1.961  12.581  18.234  0.00  0.00    +0.000 A 
ATOM     30  C   UNL     1       3.207  13.220  18.330  0.00  0.00    +0.000 A 
ATOM     31  C   UNL     1       3.289  14.575  18.663  0.00  0.00    +0.000 A 
ATOM     32  C   UNL     1       2.123  15.307  18.875  0.00  0.00    +0.000 A 
ATOM     33 CL   UNL     1       2.224  16.954  19.361  0.00  0.00    +0.000 Cl
ATOM     34  C   UNL     1       0.878  14.710  18.712  0.00  0.00    +0.000 A 
ATOM     35  C   UNL     1       0.797  13.355  18.386  0.00  0.00    +0.000 A 
ENDBRANCH  28  29
ENDBRANCH   8  28
TORSDOF 6
ENDMDL
MODEL 7
REMARK VINA RESULT:      -6.9      1.244      1.295
REMARK  Name = 
REMARK  9 active torsions:
REMARK  status: ('A' for Active; 'I' for Inactive)
REMARK    1  A    between atoms: C_1  and  O_2
REMARK    2  A    between atoms: O_2  and  C_3
REMARK    3  A    between atoms: C_8  and  C_9
REMARK    4  A    between atoms: C_11  and  C_12
REMARK    5  A    between atoms: C_13  and  C_14
REMARK    6  A    between atoms: N_22  and  C_23
REMARK    7  A    between atoms: C_23  and  C_24
REMARK    8  A    between atoms: C_33  and  O_34
REMARK    9  A    between atoms: O_34  and  C_35
REMARK                            x       y       z     vdW  Elec       q    Type
REMARK                         _______ _______ _______ _____ _____    ______ ____
ROOT
ATOM      1  C   UNL     1       1.679   7.363  20.526  0.00  0.00    +0.000 A 
ATOM      2  C   UNL     1       0.938   8.136  21.410  0.00  0.00    +0.000 A 
ATOM      3  C   UNL     1       0.452   9.387  21.025  0.00  0.00    +0.000 A 
ATOM      4  C   UNL     1      -0.336  10.136  22.024  0.00  0.00    +0.000 A 
ATOM      5  O   UNL     1      -0.582   9.629  23.116  0.00  0.00    +0.000 OA
ATOM      6  C   UNL     1      -0.761  11.496  21.663  0.00  0.00    +0.000 A 
ATOM      7  C   UNL     1      -0.514  11.908  20.406  0.00  0.00    +0.000 A 
ATOM      8  N   UNL     1       0.162  11.193  19.415  0.00  0.00    +0.000 N 
ATOM      9  C   UNL     1       0.702   9.926  19.749  0.00  0.00    +0.000 A 
ATOM     10  C   UNL     1       1.488   9.143  18.883  0.00  0.00    +0.000 A 
ATOM     11  C   UNL     1       2.002   7.890  19.268  0.00  0.00    +0.000 A 
ENDROOT
BRANCH   6  12
ATOM     12  C   UNL     1      -1.356  12.433  22.620  0.00  0.00    +0.000 C 
ATOM     13  N   UNL     1      -0.716  13.279  23.360  0.00  0.00    +0.000 NA
ATOM     14  C   UNL     1      -1.768  13.915  24.178  0.00  0.00    +0.000 C 
ATOM     15  C   UNL     1      -1.646  15.425  24.009  0.00  0.00    +0.000 C 
ATOM     16  C   UNL     1      -3.089  13.254  23.744  0.00  0.00    +0.000 C 
ATOM     17  O   UNL     1      -2.698  12.350  22.714  0.00  0.00    +0.000 OA
BRANCH  16  18
ATOM     18  C   UNL     1      -4.166  14.199  23.261  0.00  0.00    +0.000 A 
ATOM     19  C   UNL     1      -4.852  15.039  24.149  0.00  0.00    +0.000 A 
ATOM     20  C   UNL     1      -5.978  15.743  23.730  0.00  0.00    +0.000 A 
ATOM     21  C   UNL     1      -6.417  15.635  22.413  0.00  0.00    +0.000 A 
ATOM     22  C   UNL     1      -5.705  14.857  21.502  0.00  0.00    +0.000 A 
ATOM     23  C   UNL     1      -4.579  14.148  21.920  0.00  0.00    +0.000 A 
ENDBRANCH  16  18
ENDBRANCH   6  12
BRANCH   1  25
ATOM     24  C   UNL     1       1.232   5.055  20.502  0.00  0.00    +0.000 C 
ATOM     25  O   UNL     1       2.129   6.110  20.852  0.00  0.00    +0.000 OA
ENDBRANCH   1  25
BRANCH  11  26
ATOM     26  O   UNL     1       2.764   7.100  18.441  0.00  0.00    +0.000 OA
ATOM     27  C   UNL     1       3.564   7.780  17.479  0.00  0.00    +0.000 C 
ENDBRANCH  11  26
BRANCH   8  28
ATOM     28  C   UNL     1       0.533  11.844  18.135  0.00  0.00    +0.000 C 
BRANCH  28  29
ATOM     29  C   UNL     1       1.437  13.044  18.357  0.00  0.00    +0.000 A 
ATOM     30  C   UNL     1       0.897  14.312  18.624  0.00  0.00    +0.000 A 
ATOM     31  C   UNL     1       1.723  15.437  18.692  0.00  0.00    +0.000 A 
ATOM     32  C   UNL     1       3.098  15.297  18.523  0.00  0.00    +0.000 A 
ATOM     33 CL   UNL     1       4.107  16.691  18.531  0.00  0.00    +0.000 Cl
ATOM     34  C   UNL     1       3.660  14.039  18.333  0.00  0.00    +0.000 A 
ATOM     35  C   UNL     1       2.833  12.916  18.257  0.00  0.00    +0.000 A 
ENDBRANCH  28  29
ENDBRANCH   8  28
TORSDOF 6
ENDMDL
MODEL 8
REMARK VINA RESULT:      -6.9      3.422      5.895
REMARK  Name = 
REMARK  9 active torsions:
REMARK  status: ('A' for Active; 'I' for Inactive)
REMARK    1  A    between atoms: C_1  and  O_2
REMARK    2  A    between atoms: O_2  and  C_3
REMARK    3  A    between atoms: C_8  and  C_9
REMARK    4  A    between atoms: C_11  and  C_12
REMARK    5  A    between atoms: C_13  and  C_14
REMARK    6  A    between atoms: N_22  and  C_23
REMARK    7  A    between atoms: C_23  and  C_24
REMARK    8  A    between atoms: C_33  and  O_34
REMARK    9  A    between atoms: O_34  and  C_35
REMARK                            x       y       z     vdW  Elec       q    Type
REMARK                         _______ _______ _______ _____ _____    ______ ____
ROOT
ATOM      1  C   UNL     1       2.661  15.528  19.731  0.00  0.00    +0.000 A 
ATOM      2  C   UNL     1       1.640  15.328  20.651  0.00  0.00    +0.000 A 
ATOM      3  C   UNL     1       0.828  14.194  20.577  0.00  0.00    +0.000 A 
ATOM      4  C   UNL     1      -0.225  14.055  21.602  0.00  0.00    +0.000 A 
ATOM      5  O   UNL     1      -0.320  14.889  22.499  0.00  0.00    +0.000 OA
ATOM      6  C   UNL     1      -1.149  12.920  21.467  0.00  0.00    +0.000 A 
ATOM      7  C   UNL     1      -0.889  12.023  20.499  0.00  0.00    +0.000 A 
ATOM      8  N   UNL     1       0.144  12.086  19.562  0.00  0.00    +0.000 N 
ATOM      9  C   UNL     1       0.990  13.224  19.569  0.00  0.00    +0.000 A 
ATOM     10  C   UNL     1       2.004  13.467  18.624  0.00  0.00    +0.000 A 
ATOM     11  C   UNL     1       2.814  14.617  18.676  0.00  0.00    +0.000 A 
ENDROOT
BRANCH   6  12
ATOM     12  C   UNL     1      -2.363  12.773  22.274  0.00  0.00    +0.000 C 
ATOM     13  N   UNL     1      -2.453  12.182  23.421  0.00  0.00    +0.000 NA
ATOM     14  C   UNL     1      -3.889  12.254  23.756  0.00  0.00    +0.000 C 
ATOM     15  C   UNL     1      -4.016  12.878  25.141  0.00  0.00    +0.000 C 
ATOM     16  C   UNL     1      -4.555  12.990  22.580  0.00  0.00    +0.000 C 
ATOM     17  O   UNL     1      -3.468  13.304  21.713  0.00  0.00    +0.000 OA
BRANCH  16  18
ATOM     18  C   UNL     1      -5.339  14.231  22.943  0.00  0.00    +0.000 A 
ATOM     19  C   UNL     1      -6.699  14.162  23.278  0.00  0.00    +0.000 A 
ATOM     20  C   UNL     1      -7.456  15.325  23.401  0.00  0.00    +0.000 A 
ATOM     21  C   UNL     1      -6.859  16.569  23.215  0.00  0.00    +0.000 A 
ATOM     22  C   UNL     1      -5.494  16.654  22.949  0.00  0.00    +0.000 A 
ATOM     23  C   UNL     1      -4.733  15.492  22.822  0.00  0.00    +0.000 A 
ENDBRANCH  16  18
ENDBRANCH   6  12
BRANCH   1  25
ATOM     24  C   UNL     1       4.329  16.625  20.973  0.00  0.00    +0.000 C 
ATOM     25  O   UNL     1       3.509  16.603  19.804  0.00  0.00    +0.000 OA
ENDBRANCH   1  25
BRANCH  11  26
ATOM     26  O   UNL     1       3.817  14.876  17.774  0.00  0.00    +0.000 OA
ATOM     27  C   UNL     1       5.095  14.327  18.077  0.00  0.00    +0.000 C 
ENDBRANCH  11  26
BRANCH   8  28
ATOM     28  C   UNL     1       0.198  11.129  18.431  0.00  0.00    +0.000 C 
BRANCH  28  29
ATOM     29  C   UNL     1       1.006   9.891  18.781  0.00  0.00    +0.000 A 
ATOM     30  C   UNL     1       1.787   9.244  17.811  0.00  0.00    +0.000 A 
ATOM     31  C   UNL     1       2.418   8.031  18.099  0.00  0.00    +0.000 A 
ATOM     32  C   UNL     1       2.297   7.472  19.369  0.00  0.00    +0.000 A 
ATOM     33 CL   UNL     1       3.011   5.943  19.701  0.00  0.00    +0.000 Cl
ATOM     34  C   UNL     1       1.590   8.136  20.365  0.00  0.00    +0.000 A 
ATOM     35  C   UNL     1       0.952   9.344  20.075  0.00  0.00    +0.000 A 
ENDBRANCH  28  29
ENDBRANCH   8  28
TORSDOF 6
ENDMDL
MODEL 9
REMARK VINA RESULT:      -6.9      1.908      2.298
REMARK  Name = 
REMARK  9 active torsions:
REMARK  status: ('A' for Active; 'I' for Inactive)
REMARK    1  A    between atoms: C_1  and  O_2
REMARK    2  A    between atoms: O_2  and  C_3
REMARK    3  A    between atoms: C_8  and  C_9
REMARK    4  A    between atoms: C_11  and  C_12
REMARK    5  A    between atoms: C_13  and  C_14
REMARK    6  A    between atoms: N_22  and  C_23
REMARK    7  A    between atoms: C_23  and  C_24
REMARK    8  A    between atoms: C_33  and  O_34
REMARK    9  A    between atoms: O_34  and  C_35
REMARK                            x       y       z     vdW  Elec       q    Type
REMARK                         _______ _______ _______ _____ _____    ______ ____
ROOT
ATOM      1  C   UNL     1       1.330   8.229  20.931  0.00  0.00    +0.000 A 
ATOM      2  C   UNL     1       0.633   9.019  21.836  0.00  0.00    +0.000 A 
ATOM      3  C   UNL     1       0.109  10.253  21.445  0.00  0.00    +0.000 A 
ATOM      4  C   UNL     1      -0.628  11.022  22.467  0.00  0.00    +0.000 A 
ATOM      5  O   UNL     1      -0.803  10.545  23.585  0.00  0.00    +0.000 OA
ATOM      6  C   UNL     1      -1.090  12.367  22.094  0.00  0.00    +0.000 A 
ATOM      7  C   UNL     1      -0.923  12.744  20.813  0.00  0.00    +0.000 A 
ATOM      8  N   UNL     1      -0.298  12.009  19.804  0.00  0.00    +0.000 N 
ATOM      9  C   UNL     1       0.277  10.757  20.141  0.00  0.00    +0.000 A 
ATOM     10  C   UNL     1       1.020   9.958  19.253  0.00  0.00    +0.000 A 
ATOM     11  C   UNL     1       1.572   8.723  19.642  0.00  0.00    +0.000 A 
ENDROOT
BRANCH   6  12
ATOM     12  C   UNL     1      -1.639  13.324  23.057  0.00  0.00    +0.000 C 
ATOM     13  N   UNL     1      -0.967  13.998  23.933  0.00  0.00    +0.000 NA
ATOM     14  C   UNL     1      -1.995  14.747  24.683  0.00  0.00    +0.000 C 
ATOM     15  C   UNL     1      -1.612  16.222  24.660  0.00  0.00    +0.000 C 
ATOM     16  C   UNL     1      -3.342  14.350  24.053  0.00  0.00    +0.000 C 
ATOM     17  O   UNL     1      -2.979  13.464  22.997  0.00  0.00    +0.000 OA
BRANCH  16  18
ATOM     18  C   UNL     1      -4.186  15.494  23.538  0.00  0.00    +0.000 A 
ATOM     19  C   UNL     1      -5.144  16.118  24.351  0.00  0.00    +0.000 A 
ATOM     20  C   UNL     1      -6.055  17.019  23.806  0.00  0.00    +0.000 A 
ATOM     21  C   UNL     1      -6.005  17.326  22.448  0.00  0.00    +0.000 A 
ATOM     22  C   UNL     1      -5.016  16.765  21.642  0.00  0.00    +0.000 A 
ATOM     23  C   UNL     1      -4.103  15.860  22.185  0.00  0.00    +0.000 A 
ENDBRANCH  16  18
ENDBRANCH   6  12
BRANCH   1  25
ATOM     24  C   UNL     1       1.134   5.904  20.633  0.00  0.00    +0.000 C 
ATOM     25  O   UNL     1       1.813   6.990  21.266  0.00  0.00    +0.000 OA
ENDBRANCH   1  25
BRANCH  11  26
ATOM     26  O   UNL     1       2.293   7.918  18.794  0.00  0.00    +0.000 OA
ATOM     27  C   UNL     1       2.539   8.434  17.490  0.00  0.00    +0.000 C 
ENDBRANCH  11  26
BRANCH   8  28
ATOM     28  C   UNL     1      -0.011  12.626  18.487  0.00  0.00    +0.000 C 
BRANCH  28  29
ATOM     29  C   UNL     1       1.132  13.623  18.572  0.00  0.00    +0.000 A 
ATOM     30  C   UNL     1       0.887  14.976  18.855  0.00  0.00    +0.000 A 
ATOM     31  C   UNL     1       1.923  15.913  18.798  0.00  0.00    +0.000 A 
ATOM     32  C   UNL     1       3.215  15.499  18.485  0.00  0.00    +0.000 A 
ATOM     33 CL   UNL     1       4.474  16.663  18.339  0.00  0.00    +0.000 Cl
ATOM     34  C   UNL     1       3.491  14.153  18.274  0.00  0.00    +0.000 A 
ATOM     35  C   UNL     1       2.455  13.217  18.324  0.00  0.00    +0.000 A 
ENDBRANCH  28  29
ENDBRANCH   8  28
TORSDOF 6
ENDMDL
