MODEL 1
REMARK VINA RESULT:      -8.0      0.000      0.000
REMARK  Name = 
REMARK  7 active torsions:
REMARK  status: ('A' for Active; 'I' for Inactive)
REMARK    1  A    between atoms: C_1  and  O_2
REMARK    2  A    between atoms: O_2  and  N_3
REMARK    3  A    between atoms: C_4  and  C_5
REMARK    4  A    between atoms: C_4  and  C_19
REMARK    5  A    between atoms: C_5  and  C_6
REMARK    6  A    between atoms: C_6  and  N_7
REMARK    7  A    between atoms: C_23  and  C_24
REMARK                            x       y       z     vdW  Elec       q    Type
REMARK                         _______ _______ _______ _____ _____    ______ ____
ROOT
ATOM      1  C   UNL     1       4.226   6.254  18.533  0.00  0.00    +0.000 C 
ENDROOT
BRANCH   1   3
ATOM      2  N   UNL     1       2.574   4.981  19.728  0.00  0.00    +0.000 NA
ATOM      3  C   UNL     1       2.923   6.173  19.331  0.00  0.00    +0.000 C 
BRANCH   3   4
ATOM      4  C   UNL     1       2.158   7.452  19.545  0.00  0.00    +0.000 A 
ATOM      5  C   UNL     1       1.885   8.320  18.480  0.00  0.00    +0.000 A 
ATOM      6  C   UNL     1       1.158   9.497  18.675  0.00  0.00    +0.000 A 
ATOM      7  C   UNL     1       0.731   9.847  19.952  0.00  0.00    +0.000 A 
ATOM      8  C   UNL     1       1.036   9.024  21.033  0.00  0.00    +0.000 A 
ATOM      9  C   UNL     1       1.746   7.833  20.830  0.00  0.00    +0.000 A 
BRANCH   8  10
ATOM     10  C   UNL     1       0.637   9.389  22.359  0.00  0.00    +0.000 C 
ATOM     11  N   UNL     1       0.310   9.666  23.439  0.00  0.00    +0.000 NA
ENDBRANCH   8  10
ENDBRANCH   3   4
BRANCH   2  13
ATOM     12  C   UNL     1       0.957   3.636  20.645  0.00  0.00    +0.000 C 
ATOM     13  O   UNL     1       1.444   4.968  20.552  0.00  0.00    +0.000 OA
ENDBRANCH   2  13
ENDBRANCH   1   3
BRANCH   1  14
ATOM     14  C   UNL     1       5.413   5.532  19.197  0.00  0.00    +0.000 C 
BRANCH  14  15
ATOM     15  N   UNL     1       5.918   4.340  18.501  0.00  0.00    +0.000 NA
ATOM     16  C   UNL     1       5.019   3.877  17.418  0.00  0.00    +0.000 C 
ATOM     17  C   UNL     1       4.901   4.861  16.238  0.00  0.00    +0.000 C 
ATOM     18  N   UNL     1       6.215   5.249  15.707  0.00  0.00    +0.000 N 
ATOM     19  C   UNL     1       6.558   4.789  14.445  0.00  0.00    +0.000 A 
ATOM     20  C   UNL     1       7.541   5.440  13.699  0.00  0.00    +0.000 A 
ATOM     21  C   UNL     1       7.799   5.051  12.384  0.00  0.00    +0.000 A 
ATOM     22  C   UNL     1       7.078   4.003  11.836  0.00  0.00    +0.000 A 
ATOM     23  C   UNL     1       6.134   3.390  12.635  0.00  0.00    +0.000 A 
ATOM     24  N   UNL     1       5.864   3.762  13.906  0.00  0.00    +0.000 NA
ATOM     25  C   UNL     1       7.266   5.555  16.687  0.00  0.00    +0.000 C 
ATOM     26  C   UNL     1       7.247   4.583  17.896  0.00  0.00    +0.000 C 
ENDBRANCH  14  15
ENDBRANCH   1  14
TORSDOF 6
ENDMDL
MODEL 2
REMARK VINA RESULT:      -8.0      5.856      7.627
REMARK  Name = 
REMARK  7 active torsions:
REMARK  status: ('A' for Active; 'I' for Inactive)
REMARK    1  A    between atoms: C_1  and  O_2
REMARK    2  A    between atoms: O_2  and  N_3
REMARK    3  A    between atoms: C_4  and  C_5
REMARK    4  A    between atoms: C_4  and  C_19
REMARK    5  A    between atoms: C_5  and  C_6
REMARK    6  A    between atoms: C_6  and  N_7
REMARK    7  A    between atoms: C_23  and  C_24
REMARK                            x       y       z     vdW  Elec       q    Type
REMARK                         _______ _______ _______ _____ _____    ______ ____
ROOT
ATOM      1  C   UNL     1       8.309   9.363  17.604  0.00  0.00    +0.000 C 
ENDROOT
BRANCH   1   3
ATOM      2  N   UNL     1       8.949   9.861  19.867  0.00  0.00    +0.000 NA
ATOM      3  C   UNL     1       8.973  10.281  18.633  0.00  0.00    +0.000 C 
BRANCH   3   4
ATOM      4  C   UNL     1       9.548  11.582  18.136  0.00  0.00    +0.000 A 
ATOM      5  C   UNL     1      10.841  11.645  17.601  0.00  0.00    +0.000 A 
ATOM      6  C   UNL     1      11.366  12.847  17.122  0.00  0.00    +0.000 A 
ATOM      7  C   UNL     1      10.619  14.018  17.213  0.00  0.00    +0.000 A 
ATOM      8  C   UNL     1       9.352  13.986  17.788  0.00  0.00    +0.000 A 
ATOM      9  C   UNL     1       8.819  12.774  18.247  0.00  0.00    +0.000 A 
BRANCH   8  10
ATOM     10  C   UNL     1       8.586  15.189  17.924  0.00  0.00    +0.000 C 
ATOM     11  N   UNL     1       7.948  16.154  18.035  0.00  0.00    +0.000 NA
ENDBRANCH   8  10
ENDBRANCH   3   4
BRANCH   2  13
ATOM     12  C   UNL     1       8.762  11.271  21.666  0.00  0.00    +0.000 C 
ATOM     13  O   UNL     1       9.669  10.669  20.753  0.00  0.00    +0.000 OA
ENDBRANCH   2  13
ENDBRANCH   1   3
BRANCH   1  14
ATOM     14  C   UNL     1       7.706   8.082  18.206  0.00  0.00    +0.000 C 
BRANCH  14  15
ATOM     15  N   UNL     1       7.454   6.980  17.265  0.00  0.00    +0.000 NA
ATOM     16  C   UNL     1       7.425   5.652  17.923  0.00  0.00    +0.000 C 
ATOM     17  C   UNL     1       6.248   5.463  18.899  0.00  0.00    +0.000 C 
ATOM     18  N   UNL     1       4.954   5.774  18.275  0.00  0.00    +0.000 N 
ATOM     19  C   UNL     1       4.085   4.719  18.041  0.00  0.00    +0.000 A 
ATOM     20  C   UNL     1       2.719   4.953  17.879  0.00  0.00    +0.000 A 
ATOM     21  C   UNL     1       1.831   3.883  17.766  0.00  0.00    +0.000 A 
ATOM     22  C   UNL     1       2.325   2.589  17.803  0.00  0.00    +0.000 A 
ATOM     23  C   UNL     1       3.688   2.429  17.946  0.00  0.00    +0.000 A 
ATOM     24  N   UNL     1       4.560   3.454  18.069  0.00  0.00    +0.000 NA
ATOM     25  C   UNL     1       4.893   6.975  17.431  0.00  0.00    +0.000 C 
ATOM     26  C   UNL     1       6.164   7.149  16.558  0.00  0.00    +0.000 C 
ENDBRANCH  14  15
ENDBRANCH   1  14
TORSDOF 6
ENDMDL
MODEL 3
REMARK VINA RESULT:      -7.9      0.872      1.021
REMARK  Name = 
REMARK  7 active torsions:
REMARK  status: ('A' for Active; 'I' for Inactive)
REMARK    1  A    between atoms: C_1  and  O_2
REMARK    2  A    between atoms: O_2  and  N_3
REMARK    3  A    between atoms: C_4  and  C_5
REMARK    4  A    between atoms: C_4  and  C_19
REMARK    5  A    between atoms: C_5  and  C_6
REMARK    6  A    between atoms: C_6  and  N_7
REMARK    7  A    between atoms: C_23  and  C_24
REMARK                            x       y       z     vdW  Elec       q    Type
REMARK                         _______ _______ _______ _____ _____    ______ ____
ROOT
ATOM      1  C   UNL     1       4.537   4.956  20.060  0.00  0.00    +0.000 C 
ENDROOT
BRANCH   1   3
ATOM      2  N   UNL     1       2.463   3.928  19.413  0.00  0.00    +0.000 NA
ATOM      3  C   UNL     1       3.077   5.061  19.614  0.00  0.00    +0.000 C 
BRANCH   3   4
ATOM      4  C   UNL     1       2.509   6.441  19.412  0.00  0.00    +0.000 A 
ATOM      5  C   UNL     1       2.497   7.041  18.147  0.00  0.00    +0.000 A 
ATOM      6  C   UNL     1       1.952   8.313  17.957  0.00  0.00    +0.000 A 
ATOM      7  C   UNL     1       1.448   9.024  19.042  0.00  0.00    +0.000 A 
ATOM      8  C   UNL     1       1.497   8.466  20.316  0.00  0.00    +0.000 A 
ATOM      9  C   UNL     1       2.025   7.181  20.500  0.00  0.00    +0.000 A 
BRANCH   8  10
ATOM     10  C   UNL     1       1.019   9.199  21.449  0.00  0.00    +0.000 C 
ATOM     11  N   UNL     1       0.647   9.790  22.378  0.00  0.00    +0.000 NA
ENDBRANCH   8  10
ENDBRANCH   3   4
BRANCH   2  13
ATOM     12  C   UNL     1       0.563   2.788  18.820  0.00  0.00    +0.000 C 
ATOM     13  O   UNL     1       1.102   4.068  19.123  0.00  0.00    +0.000 OA
ENDBRANCH   2  13
ENDBRANCH   1   3
BRANCH   1  14
ATOM     14  C   UNL     1       5.555   5.314  18.963  0.00  0.00    +0.000 C 
BRANCH  14  15
ATOM     15  N   UNL     1       6.158   4.182  18.244  0.00  0.00    +0.000 NA
ATOM     16  C   UNL     1       5.276   3.632  17.187  0.00  0.00    +0.000 C 
ATOM     17  C   UNL     1       5.019   4.602  16.018  0.00  0.00    +0.000 C 
ATOM     18  N   UNL     1       6.268   5.127  15.447  0.00  0.00    +0.000 N 
ATOM     19  C   UNL     1       6.615   4.708  14.172  0.00  0.00    +0.000 A 
ATOM     20  C   UNL     1       7.501   5.460  13.399  0.00  0.00    +0.000 A 
ATOM     21  C   UNL     1       7.754   5.104  12.074  0.00  0.00    +0.000 A 
ATOM     22  C   UNL     1       7.128   3.990  11.543  0.00  0.00    +0.000 A 
ATOM     23  C   UNL     1       6.279   3.280  12.367  0.00  0.00    +0.000 A 
ATOM     24  N   UNL     1       6.013   3.617  13.649  0.00  0.00    +0.000 NA
ATOM     25  C   UNL     1       7.313   5.536  16.395  0.00  0.00    +0.000 C 
ATOM     26  C   UNL     1       7.435   4.563  17.597  0.00  0.00    +0.000 C 
ENDBRANCH  14  15
ENDBRANCH   1  14
TORSDOF 6
ENDMDL
MODEL 4
REMARK VINA RESULT:      -7.8      1.038      1.663
REMARK  Name = 
REMARK  7 active torsions:
REMARK  status: ('A' for Active; 'I' for Inactive)
REMARK    1  A    between atoms: C_1  and  O_2
REMARK    2  A    between atoms: O_2  and  N_3
REMARK    3  A    between atoms: C_4  and  C_5
REMARK    4  A    between atoms: C_4  and  C_19
REMARK    5  A    between atoms: C_5  and  C_6
REMARK    6  A    between atoms: C_6  and  N_7
REMARK    7  A    between atoms: C_23  and  C_24
REMARK                            x       y       z     vdW  Elec       q    Type
REMARK                         _______ _______ _______ _____ _____    ______ ____
ROOT
ATOM      1  C   UNL     1       4.550   5.463  20.062  0.00  0.00    +0.000 C 
ENDROOT
BRANCH   1   3
ATOM      2  N   UNL     1       2.583   4.312  19.295  0.00  0.00    +0.000 NA
ATOM      3  C   UNL     1       3.078   5.468  19.642  0.00  0.00    +0.000 C 
BRANCH   3   4
ATOM      4  C   UNL     1       2.363   6.793  19.631  0.00  0.00    +0.000 A 
ATOM      5  C   UNL     1       2.367   7.609  18.492  0.00  0.00    +0.000 A 
ATOM      6  C   UNL     1       1.687   8.829  18.475  0.00  0.00    +0.000 A 
ATOM      7  C   UNL     1       1.026   9.273  19.617  0.00  0.00    +0.000 A 
ATOM      8  C   UNL     1       1.053   8.501  20.775  0.00  0.00    +0.000 A 
ATOM      9  C   UNL     1       1.718   7.268  20.782  0.00  0.00    +0.000 A 
BRANCH   8  10
ATOM     10  C   UNL     1       0.412   8.962  21.970  0.00  0.00    +0.000 C 
ATOM     11  N   UNL     1      -0.125   9.341  22.928  0.00  0.00    +0.000 NA
ENDBRANCH   8  10
ENDBRANCH   3   4
BRANCH   2  13
ATOM     12  C   UNL     1       0.569   3.355  19.832  0.00  0.00    +0.000 C 
ATOM     13  O   UNL     1       1.210   4.342  19.035  0.00  0.00    +0.000 OA
ENDBRANCH   2  13
ENDBRANCH   1   3
BRANCH   1  14
ATOM     14  C   UNL     1       5.526   5.132  18.918  0.00  0.00    +0.000 C 
BRANCH  14  15
ATOM     15  N   UNL     1       5.542   6.070  17.786  0.00  0.00    +0.000 NA
ATOM     16  C   UNL     1       6.876   6.192  17.154  0.00  0.00    +0.000 C 
ATOM     17  C   UNL     1       7.359   4.905  16.458  0.00  0.00    +0.000 C 
ATOM     18  N   UNL     1       6.367   4.383  15.508  0.00  0.00    +0.000 N 
ATOM     19  C   UNL     1       6.674   4.455  14.157  0.00  0.00    +0.000 A 
ATOM     20  C   UNL     1       6.034   3.617  13.242  0.00  0.00    +0.000 A 
ATOM     21  C   UNL     1       6.429   3.605  11.905  0.00  0.00    +0.000 A 
ATOM     22  C   UNL     1       7.452   4.443  11.495  0.00  0.00    +0.000 A 
ATOM     23  C   UNL     1       8.029   5.259  12.447  0.00  0.00    +0.000 A 
ATOM     24  N   UNL     1       7.666   5.275  13.749  0.00  0.00    +0.000 NA
ATOM     25  C   UNL     1       4.964   4.382  15.942  0.00  0.00    +0.000 C 
ATOM     26  C   UNL     1       4.588   5.666  16.728  0.00  0.00    +0.000 C 
ENDBRANCH  14  15
ENDBRANCH   1  14
TORSDOF 6
ENDMDL
MODEL 5
REMARK VINA RESULT:      -7.7      2.549      9.737
REMARK  Name = 
REMARK  7 active torsions:
REMARK  status: ('A' for Active; 'I' for Inactive)
REMARK    1  A    between atoms: C_1  and  O_2
REMARK    2  A    between atoms: O_2  and  N_3
REMARK    3  A    between atoms: C_4  and  C_5
REMARK    4  A    between atoms: C_4  and  C_19
REMARK    5  A    between atoms: C_5  and  C_6
REMARK    6  A    between atoms: C_6  and  N_7
REMARK    7  A    between atoms: C_23  and  C_24
REMARK                            x       y       z     vdW  Elec       q    Type
REMARK                         _______ _______ _______ _____ _____    ______ ____
ROOT
ATOM      1  C   UNL     1       2.247   7.579  19.713  0.00  0.00    +0.000 C 
ENDROOT
BRANCH   1   3
ATOM      2  N   UNL     1       1.677   5.447  20.668  0.00  0.00    +0.000 NA
ATOM      3  C   UNL     1       2.302   6.050  19.694  0.00  0.00    +0.000 C 
BRANCH   3   4
ATOM      4  C   UNL     1       3.095   5.396  18.593  0.00  0.00    +0.000 A 
ATOM      5  C   UNL     1       2.643   4.223  17.974  0.00  0.00    +0.000 A 
ATOM      6  C   UNL     1       3.369   3.628  16.939  0.00  0.00    +0.000 A 
ATOM      7  C   UNL     1       4.583   4.175  16.536  0.00  0.00    +0.000 A 
ATOM      8  C   UNL     1       5.074   5.312  17.172  0.00  0.00    +0.000 A 
ATOM      9  C   UNL     1       4.333   5.919  18.196  0.00  0.00    +0.000 A 
BRANCH   8  10
ATOM     10  C   UNL     1       6.340   5.866  16.795  0.00  0.00    +0.000 C 
ATOM     11  N   UNL     1       7.376   6.302  16.502  0.00  0.00    +0.000 NA
ENDBRANCH   8  10
ENDBRANCH   3   4
BRANCH   2  13
ATOM     12  C   UNL     1       2.193   3.480  21.729  0.00  0.00    +0.000 C 
ATOM     13  O   UNL     1       1.653   4.054  20.546  0.00  0.00    +0.000 OA
ENDBRANCH   2  13
ENDBRANCH   1   3
BRANCH   1  14
ATOM     14  C   UNL     1       1.482   8.163  20.914  0.00  0.00    +0.000 C 
BRANCH  14  15
ATOM     15  N   UNL     1       0.105   8.607  20.653  0.00  0.00    +0.000 NA
ATOM     16  C   UNL     1      -0.741   8.617  21.870  0.00  0.00    +0.000 C 
ATOM     17  C   UNL     1      -0.308   9.653  22.925  0.00  0.00    +0.000 C 
ATOM     18  N   UNL     1      -0.179  11.002  22.358  0.00  0.00    +0.000 N 
ATOM     19  C   UNL     1      -1.108  11.953  22.749  0.00  0.00    +0.000 A 
ATOM     20  C   UNL     1      -0.820  13.314  22.628  0.00  0.00    +0.000 A 
ATOM     21  C   UNL     1      -1.704  14.267  23.134  0.00  0.00    +0.000 A 
ATOM     22  C   UNL     1      -2.875  13.847  23.743  0.00  0.00    +0.000 A 
ATOM     23  C   UNL     1      -3.107  12.488  23.812  0.00  0.00    +0.000 A 
ATOM     24  N   UNL     1      -2.256  11.551  23.338  0.00  0.00    +0.000 NA
ATOM     25  C   UNL     1       0.480  11.115  21.049  0.00  0.00    +0.000 C 
ATOM     26  C   UNL     1       0.071   9.973  20.082  0.00  0.00    +0.000 C 
ENDBRANCH  14  15
ENDBRANCH   1  14
TORSDOF 6
ENDMDL
MODEL 6
REMARK VINA RESULT:      -7.7      2.457      7.958
REMARK  Name = 
REMARK  7 active torsions:
REMARK  status: ('A' for Active; 'I' for Inactive)
REMARK    1  A    between atoms: C_1  and  O_2
REMARK    2  A    between atoms: O_2  and  N_3
REMARK    3  A    between atoms: C_4  and  C_5
REMARK    4  A    between atoms: C_4  and  C_19
REMARK    5  A    between atoms: C_5  and  C_6
REMARK    6  A    between atoms: C_6  and  N_7
REMARK    7  A    between atoms: C_23  and  C_24
REMARK                            x       y       z     vdW  Elec       q    Type
REMARK                         _______ _______ _______ _____ _____    ______ ____
ROOT
ATOM      1  C   UNL     1       2.079   4.906  17.817  0.00  0.00    +0.000 C 
ENDROOT
BRANCH   1   3
ATOM      2  N   UNL     1       2.906   2.926  18.902  0.00  0.00    +0.000 NA
ATOM      3  C   UNL     1       3.210   3.918  18.112  0.00  0.00    +0.000 C 
BRANCH   3   4
ATOM      4  C   UNL     1       4.558   4.203  17.504  0.00  0.00    +0.000 A 
ATOM      5  C   UNL     1       5.592   4.764  18.266  0.00  0.00    +0.000 A 
ATOM      6  C   UNL     1       6.848   5.010  17.707  0.00  0.00    +0.000 A 
ATOM      7  C   UNL     1       7.077   4.738  16.361  0.00  0.00    +0.000 A 
ATOM      8  C   UNL     1       6.048   4.228  15.575  0.00  0.00    +0.000 A 
ATOM      9  C   UNL     1       4.795   3.963  16.144  0.00  0.00    +0.000 A 
BRANCH   8  10
ATOM     10  C   UNL     1       6.255   3.979  14.180  0.00  0.00    +0.000 C 
ATOM     11  N   UNL     1       6.430   3.759  13.052  0.00  0.00    +0.000 NA
ENDBRANCH   8  10
ENDBRANCH   3   4
BRANCH   2  13
ATOM     12  C   UNL     1       4.436   2.061  20.375  0.00  0.00    +0.000 C 
ATOM     13  O   UNL     1       3.931   1.986  19.049  0.00  0.00    +0.000 OA
ENDBRANCH   2  13
ENDBRANCH   1   3
BRANCH   1  14
ATOM     14  C   UNL     1       1.676   5.775  19.021  0.00  0.00    +0.000 C 
BRANCH  14  15
ATOM     15  N   UNL     1       2.629   6.824  19.412  0.00  0.00    +0.000 NA
ATOM     16  C   UNL     1       2.999   7.718  18.289  0.00  0.00    +0.000 C 
ATOM     17  C   UNL     1       1.834   8.579  17.765  0.00  0.00    +0.000 C 
ATOM     18  N   UNL     1       1.169   9.326  18.841  0.00  0.00    +0.000 N 
ATOM     19  C   UNL     1       1.326  10.704  18.857  0.00  0.00    +0.000 A 
ATOM     20  C   UNL     1       0.411  11.511  19.534  0.00  0.00    +0.000 A 
ATOM     21  C   UNL     1       0.501  12.900  19.448  0.00  0.00    +0.000 A 
ATOM     22  C   UNL     1       1.515  13.466  18.694  0.00  0.00    +0.000 A 
ATOM     23  C   UNL     1       2.397  12.611  18.066  0.00  0.00    +0.000 A 
ATOM     24  N   UNL     1       2.318  11.263  18.129  0.00  0.00    +0.000 NA
ATOM     25  C   UNL     1       0.911   8.603  20.094  0.00  0.00    +0.000 C 
ATOM     26  C   UNL     1       2.089   7.677  20.495  0.00  0.00    +0.000 C 
ENDBRANCH  14  15
ENDBRANCH   1  14
TORSDOF 6
ENDMDL
MODEL 7
REMARK VINA RESULT:      -7.6      1.739      2.519
REMARK  Name = 
REMARK  7 active torsions:
REMARK  status: ('A' for Active; 'I' for Inactive)
REMARK    1  A    between atoms: C_1  and  O_2
REMARK    2  A    between atoms: O_2  and  N_3
REMARK    3  A    between atoms: C_4  and  C_5
REMARK    4  A    between atoms: C_4  and  C_19
REMARK    5  A    between atoms: C_5  and  C_6
REMARK    6  A    between atoms: C_6  and  N_7
REMARK    7  A    between atoms: C_23  and  C_24
REMARK                            x       y       z     vdW  Elec       q    Type
REMARK                         _______ _______ _______ _____ _____    ______ ____
ROOT
ATOM      1  C   UNL     1       4.439   4.712  20.147  0.00  0.00    +0.000 C 
ENDROOT
BRANCH   1   3
ATOM      2  N   UNL     1       2.525   3.841  18.982  0.00  0.00    +0.000 NA
ATOM      3  C   UNL     1       3.008   4.866  19.627  0.00  0.00    +0.000 C 
BRANCH   3   4
ATOM      4  C   UNL     1       2.317   6.182  19.870  0.00  0.00    +0.000 A 
ATOM      5  C   UNL     1       1.494   6.373  20.987  0.00  0.00    +0.000 A 
ATOM      6  C   UNL     1       0.870   7.600  21.223  0.00  0.00    +0.000 A 
ATOM      7  C   UNL     1       1.025   8.645  20.317  0.00  0.00    +0.000 A 
ATOM      8  C   UNL     1       1.797   8.460  19.174  0.00  0.00    +0.000 A 
ATOM      9  C   UNL     1       2.440   7.235  18.951  0.00  0.00    +0.000 A 
BRANCH   8  10
ATOM     10  C   UNL     1       1.935   9.513  18.213  0.00  0.00    +0.000 C 
ATOM     11  N   UNL     1       2.062  10.374  17.444  0.00  0.00    +0.000 NA
ENDBRANCH   8  10
ENDBRANCH   3   4
BRANCH   2  13
ATOM     12  C   UNL     1       0.452   2.873  19.147  0.00  0.00    +0.000 C 
ATOM     13  O   UNL     1       1.179   3.978  18.628  0.00  0.00    +0.000 OA
ENDBRANCH   2  13
ENDBRANCH   1   3
BRANCH   1  14
ATOM     14  C   UNL     1       5.497   4.578  19.038  0.00  0.00    +0.000 C 
BRANCH  14  15
ATOM     15  N   UNL     1       5.499   5.630  18.012  0.00  0.00    +0.000 NA
ATOM     16  C   UNL     1       6.839   5.864  17.425  0.00  0.00    +0.000 C 
ATOM     17  C   UNL     1       7.382   4.676  16.609  0.00  0.00    +0.000 C 
ATOM     18  N   UNL     1       6.428   4.222  15.587  0.00  0.00    +0.000 N 
ATOM     19  C   UNL     1       6.756   4.447  14.259  0.00  0.00    +0.000 A 
ATOM     20  C   UNL     1       6.165   3.688  13.248  0.00  0.00    +0.000 A 
ATOM     21  C   UNL     1       6.584   3.831  11.925  0.00  0.00    +0.000 A 
ATOM     22  C   UNL     1       7.583   4.743  11.628  0.00  0.00    +0.000 A 
ATOM     23  C   UNL     1       8.111   5.474  12.672  0.00  0.00    +0.000 A 
ATOM     24  N   UNL     1       7.725   5.340  13.961  0.00  0.00    +0.000 NA
ATOM     25  C   UNL     1       5.018   4.126  15.989  0.00  0.00    +0.000 C 
ATOM     26  C   UNL     1       4.580   5.306  16.896  0.00  0.00    +0.000 C 
ENDBRANCH  14  15
ENDBRANCH   1  14
TORSDOF 6
ENDMDL
MODEL 8
REMARK VINA RESULT:      -7.6      3.242      9.367
REMARK  Name = 
REMARK  7 active torsions:
REMARK  status: ('A' for Active; 'I' for Inactive)
REMARK    1  A    between atoms: C_1  and  O_2
REMARK    2  A    between atoms: O_2  and  N_3
REMARK    3  A    between atoms: C_4  and  C_5
REMARK    4  A    between atoms: C_4  and  C_19
REMARK    5  A    between atoms: C_5  and  C_6
REMARK    6  A    between atoms: C_6  and  N_7
REMARK    7  A    between atoms: C_23  and  C_24
REMARK                            x       y       z     vdW  Elec       q    Type
REMARK                         _______ _______ _______ _____ _____    ______ ____
ROOT
ATOM      1  C   UNL     1       2.190   7.672  19.303  0.00  0.00    +0.000 C 
ENDROOT
BRANCH   1   3
ATOM      2  N   UNL     1       3.769   7.379  17.514  0.00  0.00    +0.000 NA
ATOM      3  C   UNL     1       2.998   6.767  18.369  0.00  0.00    +0.000 C 
BRANCH   3   4
ATOM      4  C   UNL     1       2.798   5.280  18.498  0.00  0.00    +0.000 A 
ATOM      5  C   UNL     1       1.718   4.638  17.878  0.00  0.00    +0.000 A 
ATOM      6  C   UNL     1       1.544   3.256  17.981  0.00  0.00    +0.000 A 
ATOM      7  C   UNL     1       2.427   2.498  18.745  0.00  0.00    +0.000 A 
ATOM      8  C   UNL     1       3.477   3.125  19.411  0.00  0.00    +0.000 A 
ATOM      9  C   UNL     1       3.661   4.508  19.287  0.00  0.00    +0.000 A 
BRANCH   8  10
ATOM     10  C   UNL     1       4.372   2.365  20.231  0.00  0.00    +0.000 C 
ATOM     11  N   UNL     1       5.083   1.735  20.900  0.00  0.00    +0.000 NA
ENDBRANCH   8  10
ENDBRANCH   3   4
BRANCH   2  13
ATOM     12  C   UNL     1       5.929   6.696  17.156  0.00  0.00    +0.000 C 
ATOM     13  O   UNL     1       4.575   6.516  16.764  0.00  0.00    +0.000 OA
ENDBRANCH   2  13
ENDBRANCH   1   3
BRANCH   1  14
ATOM     14  C   UNL     1       1.794   9.022  18.678  0.00  0.00    +0.000 C 
BRANCH  14  15
ATOM     15  N   UNL     1       0.436   9.500  18.974  0.00  0.00    +0.000 NA
ATOM     16  C   UNL     1       0.103   9.442  20.417  0.00  0.00    +0.000 C 
ATOM     17  C   UNL     1       0.933  10.401  21.290  0.00  0.00    +0.000 C 
ATOM     18  N   UNL     1       0.891  11.783  20.791  0.00  0.00    +0.000 N 
ATOM     19  C   UNL     1       0.208  12.718  21.553  0.00  0.00    +0.000 A 
ATOM     20  C   UNL     1       0.480  14.080  21.409  0.00  0.00    +0.000 A 
ATOM     21  C   UNL     1      -0.119  15.009  22.260  0.00  0.00    +0.000 A 
ATOM     22  C   UNL     1      -0.994  14.566  23.237  0.00  0.00    +0.000 A 
ATOM     23  C   UNL     1      -1.233  13.209  23.312  0.00  0.00    +0.000 A 
ATOM     24  N   UNL     1      -0.653  12.293  22.504  0.00  0.00    +0.000 NA
ATOM     25  C   UNL     1       1.021  11.971  19.340  0.00  0.00    +0.000 C 
ATOM     26  C   UNL     1       0.241  10.900  18.533  0.00  0.00    +0.000 C 
ENDBRANCH  14  15
ENDBRANCH   1  14
TORSDOF 6
ENDMDL
MODEL 9
REMARK VINA RESULT:      -7.6      1.576      3.385
REMARK  Name = 
REMARK  7 active torsions:
REMARK  status: ('A' for Active; 'I' for Inactive)
REMARK    1  A    between atoms: C_1  and  O_2
REMARK    2  A    between atoms: O_2  and  N_3
REMARK    3  A    between atoms: C_4  and  C_5
REMARK    4  A    between atoms: C_4  and  C_19
REMARK    5  A    between atoms: C_5  and  C_6
REMARK    6  A    between atoms: C_6  and  N_7
REMARK    7  A    between atoms: C_23  and  C_24
REMARK                            x       y       z     vdW  Elec       q    Type
REMARK                         _______ _______ _______ _____ _____    ______ ____
ROOT
ATOM      1  C   UNL     1       4.422   6.418  18.248  0.00  0.00    +0.000 C 
ENDROOT
BRANCH   1   3
ATOM      2  N   UNL     1       2.679   7.607  19.400  0.00  0.00    +0.000 NA
ATOM      3  C   UNL     1       3.048   6.452  18.922  0.00  0.00    +0.000 C 
BRANCH   3   4
ATOM      4  C   UNL     1       2.281   5.158  19.002  0.00  0.00    +0.000 A 
ATOM      5  C   UNL     1       1.634   4.629  17.878  0.00  0.00    +0.000 A 
ATOM      6  C   UNL     1       0.940   3.419  17.948  0.00  0.00    +0.000 A 
ATOM      7  C   UNL     1       0.845   2.739  19.159  0.00  0.00    +0.000 A 
ATOM      8  C   UNL     1       1.438   3.274  20.299  0.00  0.00    +0.000 A 
ATOM      9  C   UNL     1       2.152   4.477  20.221  0.00  0.00    +0.000 A 
BRANCH   8  10
ATOM     10  C   UNL     1       1.317   2.608  21.561  0.00  0.00    +0.000 C 
ATOM     11  N   UNL     1       1.218   2.084  22.594  0.00  0.00    +0.000 NA
ENDBRANCH   8  10
ENDBRANCH   3   4
BRANCH   2  13
ATOM     12  C   UNL     1       1.352   8.356  21.115  0.00  0.00    +0.000 C 
ATOM     13  O   UNL     1       1.373   7.620  19.899  0.00  0.00    +0.000 OA
ENDBRANCH   2  13
ENDBRANCH   1   3
BRANCH   1  14
ATOM     14  C   UNL     1       5.483   5.624  19.030  0.00  0.00    +0.000 C 
BRANCH  14  15
ATOM     15  N   UNL     1       6.012   4.422  18.369  0.00  0.00    +0.000 NA
ATOM     16  C   UNL     1       5.113   3.900  17.313  0.00  0.00    +0.000 C 
ATOM     17  C   UNL     1       4.956   4.839  16.102  0.00  0.00    +0.000 C 
ATOM     18  N   UNL     1       6.253   5.244  15.542  0.00  0.00    +0.000 N 
ATOM     19  C   UNL     1       6.593   4.750  14.292  0.00  0.00    +0.000 A 
ATOM     20  C   UNL     1       7.550   5.402  13.512  0.00  0.00    +0.000 A 
ATOM     21  C   UNL     1       7.802   4.975  12.208  0.00  0.00    +0.000 A 
ATOM     22  C   UNL     1       7.103   3.891  11.705  0.00  0.00    +0.000 A 
ATOM     23  C   UNL     1       6.186   3.281  12.535  0.00  0.00    +0.000 A 
ATOM     24  N   UNL     1       5.920   3.689  13.796  0.00  0.00    +0.000 NA
ATOM     25  C   UNL     1       7.307   5.610  16.498  0.00  0.00    +0.000 C 
ATOM     26  C   UNL     1       7.328   4.679  17.739  0.00  0.00    +0.000 C 
ENDBRANCH  14  15
ENDBRANCH   1  14
TORSDOF 6
ENDMDL
