MODEL 1
REMARK VINA RESULT:      -7.7      0.000      0.000
REMARK  Name = 
REMARK  4 active torsions:
REMARK  status: ('A' for Active; 'I' for Inactive)
REMARK    1  A    between atoms: C_2  and  C_16
REMARK    2  A    between atoms: N_3  and  C_4
REMARK    3  A    between atoms: C_7  and  C_8
REMARK    4  A    between atoms: C_19  and  C_20
REMARK                            x       y       z     vdW  Elec       q    Type
REMARK                         _______ _______ _______ _____ _____    ______ ____
ROOT
ATOM      1  O   UNL     1       8.602   7.511  18.954  0.00  0.00    +0.000 OA
ATOM      2  C   UNL     1       8.080   8.378  18.288  0.00  0.00    +0.000 C 
ATOM      3  N   UNL     1       7.025   8.243  17.379  0.00  0.00    +0.000 N 
ATOM      4  H   UNL     1       6.838   9.004  16.740  0.00  0.00    +0.000 HD
ENDROOT
BRANCH   3   5
ATOM      5  C   UNL     1       6.329   7.034  17.151  0.00  0.00    +0.000 A 
ATOM      6  C   UNL     1       7.009   5.833  17.015  0.00  0.00    +0.000 A 
ATOM      7  C   UNL     1       6.322   4.622  16.977  0.00  0.00    +0.000 A 
ATOM      8  C   UNL     1       4.937   4.599  17.103  0.00  0.00    +0.000 A 
ATOM      9  C   UNL     1       4.239   5.815  17.006  0.00  0.00    +0.000 A 
ATOM     10  C   UNL     1       4.936   7.026  17.097  0.00  0.00    +0.000 A 
BRANCH   8  11
ATOM     11  C   UNL     1       4.214   3.316  17.515  0.00  0.00    +0.000 C 
ATOM     12  C   UNL     1       2.722   3.214  17.077  0.00  0.00    +0.000 C 
ATOM     13  C   UNL     1       1.721   3.888  18.024  0.00  0.00    +0.000 C 
ATOM     14  C   UNL     1       2.023   3.628  19.499  0.00  0.00    +0.000 C 
ATOM     15  N   UNL     1       3.426   3.868  19.823  0.00  0.00    +0.000 NA
ATOM     16  C   UNL     1       4.321   3.033  19.019  0.00  0.00    +0.000 C 
ATOM     17  H   UNL     1       3.597   3.717  20.814  0.00  0.00    +0.000 HD
ENDBRANCH   8  11
ENDBRANCH   3   5
BRANCH   2  18
ATOM     18  C   UNL     1       8.665   9.722  18.359  0.00  0.00    +0.000 A 
ATOM     19  C   UNL     1       9.704  10.045  19.222  0.00  0.00    +0.000 A 
ATOM     20  C   UNL     1      10.172  11.361  19.261  0.00  0.00    +0.000 A 
ATOM     21  C   UNL     1       9.591  12.320  18.426  0.00  0.00    +0.000 A 
ATOM     22  N   UNL     1       8.578  12.002  17.566  0.00  0.00    +0.000 NA
ATOM     23  C   UNL     1       8.142  10.718  17.548  0.00  0.00    +0.000 A 
BRANCH  21  24
ATOM     24  C   UNL     1      10.078  13.764  18.480  0.00  0.00    +0.000 C 
ATOM     25  F   UNL     1       9.152  14.619  19.010  0.00  0.00    +0.000 F 
ATOM     26  F   UNL     1      11.198  13.925  19.243  0.00  0.00    +0.000 F 
ATOM     27  F   UNL     1      10.376  14.275  17.252  0.00  0.00    +0.000 F 
ENDBRANCH  21  24
ENDBRANCH   2  18
TORSDOF 4
ENDMDL
MODEL 2
REMARK VINA RESULT:      -7.7      7.322      8.664
REMARK  Name = 
REMARK  4 active torsions:
REMARK  status: ('A' for Active; 'I' for Inactive)
REMARK    1  A    between atoms: C_2  and  C_16
REMARK    2  A    between atoms: N_3  and  C_4
REMARK    3  A    between atoms: C_7  and  C_8
REMARK    4  A    between atoms: C_19  and  C_20
REMARK                            x       y       z     vdW  Elec       q    Type
REMARK                         _______ _______ _______ _____ _____    ______ ____
ROOT
ATOM      1  O   UNL     1       1.698   9.252  22.313  0.00  0.00    +0.000 OA
ATOM      2  C   UNL     1       0.859   9.449  21.462  0.00  0.00    +0.000 C 
ATOM      3  N   UNL     1       0.818   8.931  20.163  0.00  0.00    +0.000 N 
ATOM      4  H   UNL     1       0.182   9.348  19.497  0.00  0.00    +0.000 HD
ENDROOT
BRANCH   3   5
ATOM      5  C   UNL     1       1.749   7.998  19.655  0.00  0.00    +0.000 A 
ATOM      6  C   UNL     1       2.005   6.809  20.320  0.00  0.00    +0.000 A 
ATOM      7  C   UNL     1       2.776   5.810  19.732  0.00  0.00    +0.000 A 
ATOM      8  C   UNL     1       3.282   5.982  18.447  0.00  0.00    +0.000 A 
ATOM      9  C   UNL     1       3.222   7.264  17.874  0.00  0.00    +0.000 A 
ATOM     10  C   UNL     1       2.402   8.244  18.447  0.00  0.00    +0.000 A 
BRANCH   8  11
ATOM     11  C   UNL     1       3.725   4.777  17.617  0.00  0.00    +0.000 C 
ATOM     12  C   UNL     1       2.675   3.635  17.475  0.00  0.00    +0.000 C 
ATOM     13  C   UNL     1       2.656   2.625  18.630  0.00  0.00    +0.000 C 
ATOM     14  C   UNL     1       4.054   2.219  19.095  0.00  0.00    +0.000 C 
ATOM     15  N   UNL     1       4.919   3.376  19.309  0.00  0.00    +0.000 NA
ATOM     16  C   UNL     1       5.057   4.185  18.096  0.00  0.00    +0.000 C 
ATOM     17  H   UNL     1       5.833   3.083  19.645  0.00  0.00    +0.000 HD
ENDBRANCH   8  11
ENDBRANCH   3   5
BRANCH   2  18
ATOM     18  C   UNL     1      -0.202  10.413  21.777  0.00  0.00    +0.000 A 
ATOM     19  C   UNL     1      -0.772  10.518  23.039  0.00  0.00    +0.000 A 
ATOM     20  C   UNL     1      -1.811  11.430  23.242  0.00  0.00    +0.000 A 
ATOM     21  C   UNL     1      -2.247  12.221  22.175  0.00  0.00    +0.000 A 
ATOM     22  N   UNL     1      -1.678  12.130  20.936  0.00  0.00    +0.000 NA
ATOM     23  C   UNL     1      -0.672  11.237  20.765  0.00  0.00    +0.000 A 
BRANCH  21  24
ATOM     24  C   UNL     1      -3.397  13.201  22.382  0.00  0.00    +0.000 C 
ATOM     25  F   UNL     1      -3.455  13.693  23.657  0.00  0.00    +0.000 F 
ATOM     26  F   UNL     1      -3.322  14.297  21.574  0.00  0.00    +0.000 F 
ATOM     27  F   UNL     1      -4.622  12.644  22.158  0.00  0.00    +0.000 F 
ENDBRANCH  21  24
ENDBRANCH   2  18
TORSDOF 4
ENDMDL
MODEL 3
REMARK VINA RESULT:      -7.7      7.356      9.144
REMARK  Name = 
REMARK  4 active torsions:
REMARK  status: ('A' for Active; 'I' for Inactive)
REMARK    1  A    between atoms: C_2  and  C_16
REMARK    2  A    between atoms: N_3  and  C_4
REMARK    3  A    between atoms: C_7  and  C_8
REMARK    4  A    between atoms: C_19  and  C_20
REMARK                            x       y       z     vdW  Elec       q    Type
REMARK                         _______ _______ _______ _____ _____    ______ ____
ROOT
ATOM      1  O   UNL     1       2.100   6.613  19.886  0.00  0.00    +0.000 OA
ATOM      2  C   UNL     1       2.455   7.214  18.896  0.00  0.00    +0.000 C 
ATOM      3  N   UNL     1       2.032   8.475  18.460  0.00  0.00    +0.000 N 
ATOM      4  H   UNL     1       2.248   8.755  17.513  0.00  0.00    +0.000 HD
ENDROOT
BRANCH   3   5
ATOM      5  C   UNL     1       1.148   9.304  19.184  0.00  0.00    +0.000 A 
ATOM      6  C   UNL     1       1.153   9.318  20.571  0.00  0.00    +0.000 A 
ATOM      7  C   UNL     1       0.418  10.264  21.281  0.00  0.00    +0.000 A 
ATOM      8  C   UNL     1      -0.315  11.233  20.604  0.00  0.00    +0.000 A 
ATOM      9  C   UNL     1      -0.507  11.076  19.220  0.00  0.00    +0.000 A 
ATOM     10  C   UNL     1       0.274  10.158  18.509  0.00  0.00    +0.000 A 
BRANCH   8  11
ATOM     11  C   UNL     1      -0.745  12.519  21.309  0.00  0.00    +0.000 C 
ATOM     12  C   UNL     1      -1.052  12.381  22.831  0.00  0.00    +0.000 C 
ATOM     13  C   UNL     1      -2.474  11.916  23.166  0.00  0.00    +0.000 C 
ATOM     14  C   UNL     1      -3.544  12.591  22.308  0.00  0.00    +0.000 C 
ATOM     15  N   UNL     1      -3.209  12.559  20.888  0.00  0.00    +0.000 NA
ATOM     16  C   UNL     1      -1.926  13.210  20.615  0.00  0.00    +0.000 C 
ATOM     17  H   UNL     1      -3.948  12.987  20.335  0.00  0.00    +0.000 HD
ENDBRANCH   8  11
ENDBRANCH   3   5
BRANCH   2  18
ATOM     18  C   UNL     1       3.370   6.519  17.982  0.00  0.00    +0.000 A 
ATOM     19  C   UNL     1       4.300   7.188  17.197  0.00  0.00    +0.000 A 
ATOM     20  C   UNL     1       5.101   6.454  16.318  0.00  0.00    +0.000 A 
ATOM     21  C   UNL     1       4.956   5.066  16.256  0.00  0.00    +0.000 A 
ATOM     22  N   UNL     1       4.052   4.403  17.038  0.00  0.00    +0.000 NA
ATOM     23  C   UNL     1       3.286   5.139  17.882  0.00  0.00    +0.000 A 
BRANCH  21  24
ATOM     24  C   UNL     1       5.809   4.260  15.281  0.00  0.00    +0.000 C 
ATOM     25  F   UNL     1       5.280   4.217  14.021  0.00  0.00    +0.000 F 
ATOM     26  F   UNL     1       7.068   4.761  15.129  0.00  0.00    +0.000 F 
ATOM     27  F   UNL     1       5.958   2.956  15.651  0.00  0.00    +0.000 F 
ENDBRANCH  21  24
ENDBRANCH   2  18
TORSDOF 4
ENDMDL
MODEL 4
REMARK VINA RESULT:      -7.7      7.306      8.583
REMARK  Name = 
REMARK  4 active torsions:
REMARK  status: ('A' for Active; 'I' for Inactive)
REMARK    1  A    between atoms: C_2  and  C_16
REMARK    2  A    between atoms: N_3  and  C_4
REMARK    3  A    between atoms: C_7  and  C_8
REMARK    4  A    between atoms: C_19  and  C_20
REMARK                            x       y       z     vdW  Elec       q    Type
REMARK                         _______ _______ _______ _____ _____    ______ ____
ROOT
ATOM      1  O   UNL     1       1.900   9.382  22.492  0.00  0.00    +0.000 OA
ATOM      2  C   UNL     1       0.995   9.576  21.710  0.00  0.00    +0.000 C 
ATOM      3  N   UNL     1       0.781   8.953  20.475  0.00  0.00    +0.000 N 
ATOM      4  H   UNL     1       0.113   9.364  19.837  0.00  0.00    +0.000 HD
ENDROOT
BRANCH   3   5
ATOM      5  C   UNL     1       1.581   7.903  19.971  0.00  0.00    +0.000 A 
ATOM      6  C   UNL     1       1.665   6.688  20.634  0.00  0.00    +0.000 A 
ATOM      7  C   UNL     1       2.299   5.594  20.047  0.00  0.00    +0.000 A 
ATOM      8  C   UNL     1       2.836   5.700  18.768  0.00  0.00    +0.000 A 
ATOM      9  C   UNL     1       2.956   6.980  18.200  0.00  0.00    +0.000 A 
ATOM     10  C   UNL     1       2.272   8.061  18.770  0.00  0.00    +0.000 A 
BRANCH   8  11
ATOM     11  C   UNL     1       3.118   4.449  17.937  0.00  0.00    +0.000 C 
ATOM     12  C   UNL     1       2.211   3.219  18.242  0.00  0.00    +0.000 C 
ATOM     13  C   UNL     1       2.677   2.346  19.414  0.00  0.00    +0.000 C 
ATOM     14  C   UNL     1       4.187   2.105  19.419  0.00  0.00    +0.000 C 
ATOM     15  N   UNL     1       4.940   3.343  19.242  0.00  0.00    +0.000 NA
ATOM     16  C   UNL     1       4.590   4.020  17.992  0.00  0.00    +0.000 C 
ATOM     17  H   UNL     1       5.941   3.162  19.278  0.00  0.00    +0.000 HD
ENDBRANCH   8  11
ENDBRANCH   3   5
BRANCH   2  18
ATOM     18  C   UNL     1       0.049  10.650  22.032  0.00  0.00    +0.000 A 
ATOM     19  C   UNL     1       0.104  11.904  21.437  0.00  0.00    +0.000 A 
ATOM     20  C   UNL     1      -0.807  12.886  21.836  0.00  0.00    +0.000 A 
ATOM     21  C   UNL     1      -1.757  12.583  22.815  0.00  0.00    +0.000 A 
ATOM     22  N   UNL     1      -1.823  11.346  23.391  0.00  0.00    +0.000 NA
ATOM     23  C   UNL     1      -0.928  10.410  22.987  0.00  0.00    +0.000 A 
BRANCH  21  24
ATOM     24  C   UNL     1      -2.738  13.657  23.274  0.00  0.00    +0.000 C 
ATOM     25  F   UNL     1      -3.642  13.999  22.307  0.00  0.00    +0.000 F 
ATOM     26  F   UNL     1      -3.485  13.279  24.350  0.00  0.00    +0.000 F 
ATOM     27  F   UNL     1      -2.128  14.825  23.623  0.00  0.00    +0.000 F 
ENDBRANCH  21  24
ENDBRANCH   2  18
TORSDOF 4
ENDMDL
MODEL 5
REMARK VINA RESULT:      -7.7      7.046      8.297
REMARK  Name = 
REMARK  4 active torsions:
REMARK  status: ('A' for Active; 'I' for Inactive)
REMARK    1  A    between atoms: C_2  and  C_16
REMARK    2  A    between atoms: N_3  and  C_4
REMARK    3  A    between atoms: C_7  and  C_8
REMARK    4  A    between atoms: C_19  and  C_20
REMARK                            x       y       z     vdW  Elec       q    Type
REMARK                         _______ _______ _______ _____ _____    ______ ____
ROOT
ATOM      1  O   UNL     1      -0.632   8.099  21.519  0.00  0.00    +0.000 OA
ATOM      2  C   UNL     1       0.026   9.055  21.173  0.00  0.00    +0.000 C 
ATOM      3  N   UNL     1       1.204   9.057  20.416  0.00  0.00    +0.000 N 
ATOM      4  H   UNL     1       1.757   9.902  20.387  0.00  0.00    +0.000 HD
ENDROOT
BRANCH   3   5
ATOM      5  C   UNL     1       1.782   7.898  19.853  0.00  0.00    +0.000 A 
ATOM      6  C   UNL     1       1.769   6.690  20.533  0.00  0.00    +0.000 A 
ATOM      7  C   UNL     1       2.168   5.510  19.909  0.00  0.00    +0.000 A 
ATOM      8  C   UNL     1       2.563   5.525  18.574  0.00  0.00    +0.000 A 
ATOM      9  C   UNL     1       2.798   6.769  17.963  0.00  0.00    +0.000 A 
ATOM     10  C   UNL     1       2.346   7.942  18.578  0.00  0.00    +0.000 A 
BRANCH   8  11
ATOM     11  C   UNL     1       2.567   4.238  17.750  0.00  0.00    +0.000 C 
ATOM     12  C   UNL     1       1.670   3.087  18.296  0.00  0.00    +0.000 C 
ATOM     13  C   UNL     1       2.326   2.207  19.368  0.00  0.00    +0.000 C 
ATOM     14  C   UNL     1       3.778   1.854  19.048  0.00  0.00    +0.000 C 
ATOM     15  N   UNL     1       4.556   3.028  18.661  0.00  0.00    +0.000 NA
ATOM     16  C   UNL     1       3.982   3.702  17.494  0.00  0.00    +0.000 C 
ATOM     17  H   UNL     1       5.524   2.774  18.481  0.00  0.00    +0.000 HD
ENDBRANCH   8  11
ENDBRANCH   3   5
BRANCH   2  18
ATOM     18  C   UNL     1      -0.391  10.372  21.668  0.00  0.00    +0.000 A 
ATOM     19  C   UNL     1      -0.208  11.541  20.942  0.00  0.00    +0.000 A 
ATOM     20  C   UNL     1      -0.592  12.760  21.507  0.00  0.00    +0.000 A 
ATOM     21  C   UNL     1      -1.159  12.775  22.785  0.00  0.00    +0.000 A 
ATOM     22  N   UNL     1      -1.354  11.625  23.496  0.00  0.00    +0.000 NA
ATOM     23  C   UNL     1      -0.972  10.455  22.924  0.00  0.00    +0.000 A 
BRANCH  21  24
ATOM     24  C   UNL     1      -1.557  14.104  23.419  0.00  0.00    +0.000 C 
ATOM     25  F   UNL     1      -2.845  14.110  23.878  0.00  0.00    +0.000 F 
ATOM     26  F   UNL     1      -0.788  14.438  24.494  0.00  0.00    +0.000 F 
ATOM     27  F   UNL     1      -1.480  15.154  22.554  0.00  0.00    +0.000 F 
ENDBRANCH  21  24
ENDBRANCH   2  18
TORSDOF 4
ENDMDL
MODEL 6
REMARK VINA RESULT:      -7.6      6.931      8.079
REMARK  Name = 
REMARK  4 active torsions:
REMARK  status: ('A' for Active; 'I' for Inactive)
REMARK    1  A    between atoms: C_2  and  C_16
REMARK    2  A    between atoms: N_3  and  C_4
REMARK    3  A    between atoms: C_7  and  C_8
REMARK    4  A    between atoms: C_19  and  C_20
REMARK                            x       y       z     vdW  Elec       q    Type
REMARK                         _______ _______ _______ _____ _____    ______ ____
ROOT
ATOM      1  O   UNL     1       0.083   9.855  18.968  0.00  0.00    +0.000 OA
ATOM      2  C   UNL     1       0.463   9.839  20.118  0.00  0.00    +0.000 C 
ATOM      3  N   UNL     1       1.222   8.852  20.756  0.00  0.00    +0.000 N 
ATOM      4  H   UNL     1       1.281   8.867  21.765  0.00  0.00    +0.000 HD
ENDROOT
BRANCH   3   5
ATOM      5  C   UNL     1       1.748   7.715  20.104  0.00  0.00    +0.000 A 
ATOM      6  C   UNL     1       1.648   6.454  20.673  0.00  0.00    +0.000 A 
ATOM      7  C   UNL     1       1.996   5.313  19.953  0.00  0.00    +0.000 A 
ATOM      8  C   UNL     1       2.426   5.422  18.635  0.00  0.00    +0.000 A 
ATOM      9  C   UNL     1       2.747   6.699  18.142  0.00  0.00    +0.000 A 
ATOM     10  C   UNL     1       2.347   7.838  18.850  0.00  0.00    +0.000 A 
BRANCH   8  11
ATOM     11  C   UNL     1       2.377   4.215  17.698  0.00  0.00    +0.000 C 
ATOM     12  C   UNL     1       1.501   3.022  18.184  0.00  0.00    +0.000 C 
ATOM     13  C   UNL     1       2.205   2.047  19.137  0.00  0.00    +0.000 C 
ATOM     14  C   UNL     1       3.636   1.720  18.711  0.00  0.00    +0.000 C 
ATOM     15  N   UNL     1       4.401   2.922  18.392  0.00  0.00    +0.000 NA
ATOM     16  C   UNL     1       3.773   3.700  17.322  0.00  0.00    +0.000 C 
ATOM     17  H   UNL     1       5.357   2.683  18.141  0.00  0.00    +0.000 HD
ENDBRANCH   8  11
ENDBRANCH   3   5
BRANCH   2  18
ATOM     18  C   UNL     1       0.010  10.930  20.989  0.00  0.00    +0.000 A 
ATOM     19  C   UNL     1      -0.688  10.709  22.169  0.00  0.00    +0.000 A 
ATOM     20  C   UNL     1      -1.124  11.807  22.916  0.00  0.00    +0.000 A 
ATOM     21  C   UNL     1      -0.841  13.099  22.464  0.00  0.00    +0.000 A 
ATOM     22  N   UNL     1      -0.143  13.319  21.311  0.00  0.00    +0.000 NA
ATOM     23  C   UNL     1       0.269  12.237  20.605  0.00  0.00    +0.000 A 
BRANCH  21  24
ATOM     24  C   UNL     1      -1.336  14.302  23.261  0.00  0.00    +0.000 C 
ATOM     25  F   UNL     1      -0.317  15.074  23.747  0.00  0.00    +0.000 F 
ATOM     26  F   UNL     1      -2.115  15.149  22.529  0.00  0.00    +0.000 F 
ATOM     27  F   UNL     1      -2.074  13.954  24.354  0.00  0.00    +0.000 F 
ENDBRANCH  21  24
ENDBRANCH   2  18
TORSDOF 4
ENDMDL
MODEL 7
REMARK VINA RESULT:      -7.6      7.184      8.968
REMARK  Name = 
REMARK  4 active torsions:
REMARK  status: ('A' for Active; 'I' for Inactive)
REMARK    1  A    between atoms: C_2  and  C_16
REMARK    2  A    between atoms: N_3  and  C_4
REMARK    3  A    between atoms: C_7  and  C_8
REMARK    4  A    between atoms: C_19  and  C_20
REMARK                            x       y       z     vdW  Elec       q    Type
REMARK                         _______ _______ _______ _____ _____    ______ ____
ROOT
ATOM      1  O   UNL     1       2.069   6.500  19.847  0.00  0.00    +0.000 OA
ATOM      2  C   UNL     1       2.472   7.080  18.863  0.00  0.00    +0.000 C 
ATOM      3  N   UNL     1       2.095   8.346  18.400  0.00  0.00    +0.000 N 
ATOM      4  H   UNL     1       2.349   8.610  17.458  0.00  0.00    +0.000 HD
ENDROOT
BRANCH   3   5
ATOM      5  C   UNL     1       1.207   9.205  19.085  0.00  0.00    +0.000 A 
ATOM      6  C   UNL     1       1.168   9.235  20.470  0.00  0.00    +0.000 A 
ATOM      7  C   UNL     1       0.434  10.207  21.146  0.00  0.00    +0.000 A 
ATOM      8  C   UNL     1      -0.253  11.185  20.434  0.00  0.00    +0.000 A 
ATOM      9  C   UNL     1      -0.403  11.017  19.046  0.00  0.00    +0.000 A 
ATOM     10  C   UNL     1       0.378  10.071  18.372  0.00  0.00    +0.000 A 
BRANCH   8  11
ATOM     11  C   UNL     1      -0.674  12.490  21.111  0.00  0.00    +0.000 C 
ATOM     12  C   UNL     1      -0.952  12.394  22.641  0.00  0.00    +0.000 C 
ATOM     13  C   UNL     1      -2.367  11.935  23.015  0.00  0.00    +0.000 C 
ATOM     14  C   UNL     1      -3.455  12.583  22.158  0.00  0.00    +0.000 C 
ATOM     15  N   UNL     1      -3.145  12.511  20.733  0.00  0.00    +0.000 NA
ATOM     16  C   UNL     1      -1.870  13.157  20.418  0.00  0.00    +0.000 C 
ATOM     17  H   UNL     1      -3.895  12.922  20.182  0.00  0.00    +0.000 HD
ENDBRANCH   8  11
ENDBRANCH   3   5
BRANCH   2  18
ATOM     18  C   UNL     1       3.399   6.353  17.988  0.00  0.00    +0.000 A 
ATOM     19  C   UNL     1       3.381   4.971  17.858  0.00  0.00    +0.000 A 
ATOM     20  C   UNL     1       4.330   4.353  17.038  0.00  0.00    +0.000 A 
ATOM     21  C   UNL     1       5.268   5.139  16.363  0.00  0.00    +0.000 A 
ATOM     22  N   UNL     1       5.278   6.500  16.477  0.00  0.00    +0.000 NA
ATOM     23  C   UNL     1       4.347   7.075  17.279  0.00  0.00    +0.000 A 
BRANCH  21  24
ATOM     24  C   UNL     1       6.322   4.470  15.487  0.00  0.00    +0.000 C 
ATOM     25  F   UNL     1       7.527   4.329  16.118  0.00  0.00    +0.000 F 
ATOM     26  F   UNL     1       5.973   3.214  15.088  0.00  0.00    +0.000 F 
ATOM     27  F   UNL     1       6.595   5.169  14.348  0.00  0.00    +0.000 F 
ENDBRANCH  21  24
ENDBRANCH   2  18
TORSDOF 4
ENDMDL
MODEL 8
REMARK VINA RESULT:      -7.6      7.930      9.355
REMARK  Name = 
REMARK  4 active torsions:
REMARK  status: ('A' for Active; 'I' for Inactive)
REMARK    1  A    between atoms: C_2  and  C_16
REMARK    2  A    between atoms: N_3  and  C_4
REMARK    3  A    between atoms: C_7  and  C_8
REMARK    4  A    between atoms: C_19  and  C_20
REMARK                            x       y       z     vdW  Elec       q    Type
REMARK                         _______ _______ _______ _____ _____    ______ ____
ROOT
ATOM      1  O   UNL     1       1.404  10.424  22.037  0.00  0.00    +0.000 OA
ATOM      2  C   UNL     1       0.416  10.309  21.346  0.00  0.00    +0.000 C 
ATOM      3  N   UNL     1       0.275   9.566  20.168  0.00  0.00    +0.000 N 
ATOM      4  H   UNL     1      -0.534   9.735  19.586  0.00  0.00    +0.000 HD
ENDROOT
BRANCH   3   5
ATOM      5  C   UNL     1       1.287   8.741  19.629  0.00  0.00    +0.000 A 
ATOM      6  C   UNL     1       1.719   7.608  20.302  0.00  0.00    +0.000 A 
ATOM      7  C   UNL     1       2.577   6.696  19.692  0.00  0.00    +0.000 A 
ATOM      8  C   UNL     1       2.994   6.897  18.380  0.00  0.00    +0.000 A 
ATOM      9  C   UNL     1       2.749   8.148  17.787  0.00  0.00    +0.000 A 
ATOM     10  C   UNL     1       1.845   9.035  18.385  0.00  0.00    +0.000 A 
BRANCH   8  11
ATOM     11  C   UNL     1       3.540   5.736  17.549  0.00  0.00    +0.000 C 
ATOM     12  C   UNL     1       3.830   4.423  18.338  0.00  0.00    +0.000 C 
ATOM     13  C   UNL     1       5.204   4.367  19.018  0.00  0.00    +0.000 C 
ATOM     14  C   UNL     1       6.332   4.904  18.137  0.00  0.00    +0.000 C 
ATOM     15  N   UNL     1       5.997   6.195  17.543  0.00  0.00    +0.000 NA
ATOM     16  C   UNL     1       4.780   6.122  16.732  0.00  0.00    +0.000 C 
ATOM     17  H   UNL     1       6.773   6.545  16.986  0.00  0.00    +0.000 HD
ENDBRANCH   8  11
ENDBRANCH   3   5
BRANCH   2  18
ATOM     18  C   UNL     1      -0.759  11.105  21.718  0.00  0.00    +0.000 A 
ATOM     19  C   UNL     1      -1.267  11.137  23.011  0.00  0.00    +0.000 A 
ATOM     20  C   UNL     1      -2.418  11.884  23.271  0.00  0.00    +0.000 A 
ATOM     21  C   UNL     1      -3.028  12.589  22.228  0.00  0.00    +0.000 A 
ATOM     22  N   UNL     1      -2.523  12.571  20.959  0.00  0.00    +0.000 NA
ATOM     23  C   UNL     1      -1.404  11.838  20.734  0.00  0.00    +0.000 A 
BRANCH  21  24
ATOM     24  C   UNL     1      -4.299  13.386  22.499  0.00  0.00    +0.000 C 
ATOM     25  F   UNL     1      -5.434  12.628  22.404  0.00  0.00    +0.000 F 
ATOM     26  F   UNL     1      -4.334  13.936  23.746  0.00  0.00    +0.000 F 
ATOM     27  F   UNL     1      -4.482  14.416  21.623  0.00  0.00    +0.000 F 
ENDBRANCH  21  24
ENDBRANCH   2  18
TORSDOF 4
ENDMDL
MODEL 9
REMARK VINA RESULT:      -7.6      8.162      9.671
REMARK  Name = 
REMARK  4 active torsions:
REMARK  status: ('A' for Active; 'I' for Inactive)
REMARK    1  A    between atoms: C_2  and  C_16
REMARK    2  A    between atoms: N_3  and  C_4
REMARK    3  A    between atoms: C_7  and  C_8
REMARK    4  A    between atoms: C_19  and  C_20
REMARK                            x       y       z     vdW  Elec       q    Type
REMARK                         _______ _______ _______ _____ _____    ______ ____
ROOT
ATOM      1  O   UNL     1       1.275  11.398  21.280  0.00  0.00    +0.000 OA
ATOM      2  C   UNL     1       0.237  10.806  21.080  0.00  0.00    +0.000 C 
ATOM      3  N   UNL     1       0.047   9.634  20.339  0.00  0.00    +0.000 N 
ATOM      4  H   UNL     1      -0.894   9.376  20.079  0.00  0.00    +0.000 HD
ENDROOT
BRANCH   3   5
ATOM      5  C   UNL     1       1.097   8.893  19.753  0.00  0.00    +0.000 A 
ATOM      6  C   UNL     1       1.664   7.813  20.412  0.00  0.00    +0.000 A 
ATOM      7  C   UNL     1       2.565   6.970  19.765  0.00  0.00    +0.000 A 
ATOM      8  C   UNL     1       2.888   7.186  18.429  0.00  0.00    +0.000 A 
ATOM      9  C   UNL     1       2.500   8.401  17.837  0.00  0.00    +0.000 A 
ATOM     10  C   UNL     1       1.556   9.214  18.475  0.00  0.00    +0.000 A 
BRANCH   8  11
ATOM     11  C   UNL     1       3.487   6.063  17.582  0.00  0.00    +0.000 C 
ATOM     12  C   UNL     1       3.860   4.763  18.355  0.00  0.00    +0.000 C 
ATOM     13  C   UNL     1       5.243   4.777  19.019  0.00  0.00    +0.000 C 
ATOM     14  C   UNL     1       6.329   5.384  18.130  0.00  0.00    +0.000 C 
ATOM     15  N   UNL     1       5.915   6.659  17.551  0.00  0.00    +0.000 NA
ATOM     16  C   UNL     1       4.694   6.525  16.754  0.00  0.00    +0.000 C 
ATOM     17  H   UNL     1       6.663   7.056  16.988  0.00  0.00    +0.000 HD
ENDBRANCH   8  11
ENDBRANCH   3   5
BRANCH   2  18
ATOM     18  C   UNL     1      -0.994  11.420  21.592  0.00  0.00    +0.000 A 
ATOM     19  C   UNL     1      -1.785  12.268  20.827  0.00  0.00    +0.000 A 
ATOM     20  C   UNL     1      -2.917  12.848  21.406  0.00  0.00    +0.000 A 
ATOM     21  C   UNL     1      -3.233  12.554  22.736  0.00  0.00    +0.000 A 
ATOM     22  N   UNL     1      -2.465  11.709  23.486  0.00  0.00    +0.000 NA
ATOM     23  C   UNL     1      -1.372  11.159  22.900  0.00  0.00    +0.000 A 
BRANCH  21  24
ATOM     24  C   UNL     1      -4.452  13.203  23.383  0.00  0.00    +0.000 C 
ATOM     25  F   UNL     1      -5.634  12.741  22.874  0.00  0.00    +0.000 F 
ATOM     26  F   UNL     1      -4.528  12.985  24.727  0.00  0.00    +0.000 F 
ATOM     27  F   UNL     1      -4.494  14.555  23.212  0.00  0.00    +0.000 F 
ENDBRANCH  21  24
ENDBRANCH   2  18
TORSDOF 4
ENDMDL
