MODEL 1
REMARK VINA RESULT:      -6.7      0.000      0.000
REMARK  Name = 
REMARK  3 active torsions:
REMARK  status: ('A' for Active; 'I' for Inactive)
REMARK    1  A    between atoms: N_1  and  C_2
REMARK    2  A    between atoms: C_5  and  O_6
REMARK    3  A    between atoms: O_6  and  C_7
REMARK                            x       y       z     vdW  Elec       q    Type
REMARK                         _______ _______ _______ _____ _____    ______ ____
ROOT
ATOM      1  C   UNL     1       5.978   5.442  16.683  0.00  0.00    +0.000 A 
ATOM      2  C   UNL     1       5.178   5.970  17.667  0.00  0.00    +0.000 A 
ATOM      3  C   UNL     1       3.979   5.206  17.903  0.00  0.00    +0.000 A 
ATOM      4  C   UNL     1       2.911   5.400  18.810  0.00  0.00    +0.000 A 
ATOM      5  C   UNL     1       1.833   4.525  18.692  0.00  0.00    +0.000 A 
ATOM      6  N   UNL     1       1.796   3.449  17.880  0.00  0.00    +0.000 NA
ATOM      7  C   UNL     1       2.853   3.210  17.075  0.00  0.00    +0.000 A 
ATOM      8  C   UNL     1       3.930   4.097  17.054  0.00  0.00    +0.000 A 
ATOM      9  S   UNL     1       5.324   4.005  16.050  0.00  0.00    +0.000 S 
ENDROOT
BRANCH   1  10
ATOM     10  N   UNL     1       7.144   5.939  16.228  0.00  0.00    +0.000 N 
ATOM     11  H   UNL     1       7.314   6.939  16.212  0.00  0.00    +0.000 HD
ATOM     12  H   UNL     1       7.657   5.421  15.520  0.00  0.00    +0.000 HD
ENDBRANCH   1  10
BRANCH   4  13
ATOM     13  O   UNL     1       2.958   6.458  19.695  0.00  0.00    +0.000 OA
BRANCH  13  14
ATOM     14  C   UNL     1       2.210   7.585  19.433  0.00  0.00    +0.000 A 
ATOM     15  C   UNL     1       2.137   8.200  18.178  0.00  0.00    +0.000 A 
ATOM     16  C   UNL     1       1.412   9.384  18.021  0.00  0.00    +0.000 A 
ATOM     17  C   UNL     1       0.711   9.915  19.101  0.00  0.00    +0.000 A 
ATOM     18 CL   UNL     1      -0.157  11.388  18.913  0.00  0.00    +0.000 Cl
ATOM     19  C   UNL     1       0.711   9.261  20.332  0.00  0.00    +0.000 A 
ATOM     20  C   UNL     1       1.460   8.092  20.498  0.00  0.00    +0.000 A 
ENDBRANCH  13  14
ENDBRANCH   4  13
TORSDOF 3
ENDMDL
MODEL 2
REMARK VINA RESULT:      -6.7      4.252      6.525
REMARK  Name = 
REMARK  3 active torsions:
REMARK  status: ('A' for Active; 'I' for Inactive)
REMARK    1  A    between atoms: N_1  and  C_2
REMARK    2  A    between atoms: C_5  and  O_6
REMARK    3  A    between atoms: O_6  and  C_7
REMARK                            x       y       z     vdW  Elec       q    Type
REMARK                         _______ _______ _______ _____ _____    ______ ____
ROOT
ATOM      1  C   UNL     1       0.069   9.416  22.163  0.00  0.00    +0.000 A 
ATOM      2  C   UNL     1       0.948   8.533  21.586  0.00  0.00    +0.000 A 
ATOM      3  C   UNL     1       1.255   8.844  20.213  0.00  0.00    +0.000 A 
ATOM      4  C   UNL     1       2.097   8.203  19.276  0.00  0.00    +0.000 A 
ATOM      5  C   UNL     1       2.071   8.705  17.976  0.00  0.00    +0.000 A 
ATOM      6  N   UNL     1       1.414   9.818  17.589  0.00  0.00    +0.000 NA
ATOM      7  C   UNL     1       0.679  10.484  18.504  0.00  0.00    +0.000 A 
ATOM      8  C   UNL     1       0.566   9.989  19.805  0.00  0.00    +0.000 A 
ATOM      9  S   UNL     1      -0.379  10.650  21.082  0.00  0.00    +0.000 S 
ENDROOT
BRANCH   1  10
ATOM     10  N   UNL     1      -0.420   9.377  23.418  0.00  0.00    +0.000 N 
ATOM     11  H   UNL     1      -0.147   8.640  24.061  0.00  0.00    +0.000 HD
ATOM     12  H   UNL     1      -1.340   9.765  23.601  0.00  0.00    +0.000 HD
ENDBRANCH   1  10
BRANCH   4  13
ATOM     13  O   UNL     1       2.829   7.100  19.667  0.00  0.00    +0.000 OA
BRANCH  13  14
ATOM     14  C   UNL     1       2.344   5.840  19.387  0.00  0.00    +0.000 A 
ATOM     15  C   UNL     1       2.417   5.237  18.126  0.00  0.00    +0.000 A 
ATOM     16  C   UNL     1       1.831   3.987  17.915  0.00  0.00    +0.000 A 
ATOM     17  C   UNL     1       1.230   3.315  18.978  0.00  0.00    +0.000 A 
ATOM     18 CL   UNL     1       0.484   1.789  18.709  0.00  0.00    +0.000 Cl
ATOM     19  C   UNL     1       1.228   3.874  20.255  0.00  0.00    +0.000 A 
ATOM     20  C   UNL     1       1.789   5.138  20.460  0.00  0.00    +0.000 A 
ENDBRANCH  13  14
ENDBRANCH   4  13
TORSDOF 3
ENDMDL
MODEL 3
REMARK VINA RESULT:      -6.7      0.200      1.156
REMARK  Name = 
REMARK  3 active torsions:
REMARK  status: ('A' for Active; 'I' for Inactive)
REMARK    1  A    between atoms: N_1  and  C_2
REMARK    2  A    between atoms: C_5  and  O_6
REMARK    3  A    between atoms: O_6  and  C_7
REMARK                            x       y       z     vdW  Elec       q    Type
REMARK                         _______ _______ _______ _____ _____    ______ ____
ROOT
ATOM      1  C   UNL     1       6.117   5.526  16.728  0.00  0.00    +0.000 A 
ATOM      2  C   UNL     1       5.296   6.021  17.712  0.00  0.00    +0.000 A 
ATOM      3  C   UNL     1       4.074   5.273  17.869  0.00  0.00    +0.000 A 
ATOM      4  C   UNL     1       2.982   5.443  18.751  0.00  0.00    +0.000 A 
ATOM      5  C   UNL     1       1.891   4.600  18.553  0.00  0.00    +0.000 A 
ATOM      6  N   UNL     1       1.857   3.569  17.685  0.00  0.00    +0.000 NA
ATOM      7  C   UNL     1       2.935   3.348  16.903  0.00  0.00    +0.000 A 
ATOM      8  C   UNL     1       4.031   4.211  16.962  0.00  0.00    +0.000 A 
ATOM      9  S   UNL     1       5.454   4.139  15.999  0.00  0.00    +0.000 S 
ENDROOT
BRANCH   1  10
ATOM     10  N   UNL     1       7.307   6.020  16.336  0.00  0.00    +0.000 N 
ATOM     11  H   UNL     1       7.919   5.485  15.727  0.00  0.00    +0.000 HD
ATOM     12  H   UNL     1       7.796   6.670  16.945  0.00  0.00    +0.000 HD
ENDBRANCH   1  10
BRANCH   4  13
ATOM     13  O   UNL     1       3.022   6.453  19.692  0.00  0.00    +0.000 OA
BRANCH  13  14
ATOM     14  C   UNL     1       2.246   7.576  19.502  0.00  0.00    +0.000 A 
ATOM     15  C   UNL     1       1.499   8.190  20.514  0.00  0.00    +0.000 A 
ATOM     16  C   UNL     1       0.680   9.281  20.214  0.00  0.00    +0.000 A 
ATOM     17  C   UNL     1       0.658   9.795  18.919  0.00  0.00    +0.000 A 
ATOM     18 CL   UNL     1      -0.373  11.121  18.546  0.00  0.00    +0.000 Cl
ATOM     19  C   UNL     1       1.463   9.240  17.926  0.00  0.00    +0.000 A 
ATOM     20  C   UNL     1       2.261   8.130  18.219  0.00  0.00    +0.000 A 
ENDBRANCH  13  14
ENDBRANCH   4  13
TORSDOF 3
ENDMDL
MODEL 4
REMARK VINA RESULT:      -6.7      4.253      6.618
REMARK  Name = 
REMARK  3 active torsions:
REMARK  status: ('A' for Active; 'I' for Inactive)
REMARK    1  A    between atoms: N_1  and  C_2
REMARK    2  A    between atoms: C_5  and  O_6
REMARK    3  A    between atoms: O_6  and  C_7
REMARK                            x       y       z     vdW  Elec       q    Type
REMARK                         _______ _______ _______ _____ _____    ______ ____
ROOT
ATOM      1  C   UNL     1      -0.026   9.357  22.056  0.00  0.00    +0.000 A 
ATOM      2  C   UNL     1       0.869   8.463  21.520  0.00  0.00    +0.000 A 
ATOM      3  C   UNL     1       1.274   8.792  20.177  0.00  0.00    +0.000 A 
ATOM      4  C   UNL     1       2.162   8.148  19.285  0.00  0.00    +0.000 A 
ATOM      5  C   UNL     1       2.237   8.675  17.998  0.00  0.00    +0.000 A 
ATOM      6  N   UNL     1       1.635   9.812  17.591  0.00  0.00    +0.000 NA
ATOM      7  C   UNL     1       0.856  10.479  18.469  0.00  0.00    +0.000 A 
ATOM      8  C   UNL     1       0.643   9.963  19.748  0.00  0.00    +0.000 A 
ATOM      9  S   UNL     1      -0.369  10.624  20.972  0.00  0.00    +0.000 S 
ENDROOT
BRANCH   1  10
ATOM     10  N   UNL     1      -0.598   9.306  23.274  0.00  0.00    +0.000 N 
ATOM     11  H   UNL     1      -1.592   9.127  23.376  0.00  0.00    +0.000 HD
ATOM     12  H   UNL     1      -0.197   9.854  24.030  0.00  0.00    +0.000 HD
ENDBRANCH   1  10
BRANCH   4  13
ATOM     13  O   UNL     1       2.839   7.019  19.701  0.00  0.00    +0.000 OA
BRANCH  13  14
ATOM     14  C   UNL     1       2.254   5.784  19.524  0.00  0.00    +0.000 A 
ATOM     15  C   UNL     1       1.642   5.054  20.550  0.00  0.00    +0.000 A 
ATOM     16  C   UNL     1       1.141   3.776  20.295  0.00  0.00    +0.000 A 
ATOM     17  C   UNL     1       1.196   3.255  19.004  0.00  0.00    +0.000 A 
ATOM     18 CL   UNL     1       0.604   1.669  18.698  0.00  0.00    +0.000 Cl
ATOM     19  C   UNL     1       1.729   4.011  17.961  0.00  0.00    +0.000 A 
ATOM     20  C   UNL     1       2.257   5.278  18.221  0.00  0.00    +0.000 A 
ENDBRANCH  13  14
ENDBRANCH   4  13
TORSDOF 3
ENDMDL
MODEL 5
REMARK VINA RESULT:      -6.7      3.793      5.279
REMARK  Name = 
REMARK  3 active torsions:
REMARK  status: ('A' for Active; 'I' for Inactive)
REMARK    1  A    between atoms: N_1  and  C_2
REMARK    2  A    between atoms: C_5  and  O_6
REMARK    3  A    between atoms: O_6  and  C_7
REMARK                            x       y       z     vdW  Elec       q    Type
REMARK                         _______ _______ _______ _____ _____    ______ ____
ROOT
ATOM      1  C   UNL     1       2.147   5.946  20.073  0.00  0.00    +0.000 A 
ATOM      2  C   UNL     1       2.949   5.709  18.984  0.00  0.00    +0.000 A 
ATOM      3  C   UNL     1       3.074   4.310  18.658  0.00  0.00    +0.000 A 
ATOM      4  C   UNL     1       3.790   3.651  17.632  0.00  0.00    +0.000 A 
ATOM      5  C   UNL     1       3.792   2.258  17.676  0.00  0.00    +0.000 A 
ATOM      6  N   UNL     1       3.066   1.510  18.532  0.00  0.00    +0.000 NA
ATOM      7  C   UNL     1       2.310   2.139  19.457  0.00  0.00    +0.000 A 
ATOM      8  C   UNL     1       2.333   3.531  19.550  0.00  0.00    +0.000 A 
ATOM      9  S   UNL     1       1.503   4.502  20.702  0.00  0.00    +0.000 S 
ENDROOT
BRANCH   1  10
ATOM     10  N   UNL     1       1.858   7.139  20.627  0.00  0.00    +0.000 N 
ATOM     11  H   UNL     1       1.121   7.228  21.320  0.00  0.00    +0.000 HD
ATOM     12  H   UNL     1       2.024   7.985  20.090  0.00  0.00    +0.000 HD
ENDBRANCH   1  10
BRANCH   4  13
ATOM     13  O   UNL     1       4.490   4.399  16.706  0.00  0.00    +0.000 OA
BRANCH  13  14
ATOM     14  C   UNL     1       5.517   5.209  17.137  0.00  0.00    +0.000 A 
ATOM     15  C   UNL     1       6.565   4.774  17.957  0.00  0.00    +0.000 A 
ATOM     16  C   UNL     1       7.524   5.684  18.408  0.00  0.00    +0.000 A 
ATOM     17  C   UNL     1       7.470   7.011  17.989  0.00  0.00    +0.000 A 
ATOM     18 CL   UNL     1       8.635   8.136  18.569  0.00  0.00    +0.000 Cl
ATOM     19  C   UNL     1       6.477   7.432  17.106  0.00  0.00    +0.000 A 
ATOM     20  C   UNL     1       5.501   6.529  16.677  0.00  0.00    +0.000 A 
ENDBRANCH  13  14
ENDBRANCH   4  13
TORSDOF 3
ENDMDL
MODEL 6
REMARK VINA RESULT:      -6.6      4.018      5.477
REMARK  Name = 
REMARK  3 active torsions:
REMARK  status: ('A' for Active; 'I' for Inactive)
REMARK    1  A    between atoms: N_1  and  C_2
REMARK    2  A    between atoms: C_5  and  O_6
REMARK    3  A    between atoms: O_6  and  C_7
REMARK                            x       y       z     vdW  Elec       q    Type
REMARK                         _______ _______ _______ _____ _____    ______ ____
ROOT
ATOM      1  C   UNL     1       3.532   1.800  18.836  0.00  0.00    +0.000 A 
ATOM      2  C   UNL     1       4.235   2.979  18.828  0.00  0.00    +0.000 A 
ATOM      3  C   UNL     1       3.495   4.092  19.369  0.00  0.00    +0.000 A 
ATOM      4  C   UNL     1       3.845   5.451  19.541  0.00  0.00    +0.000 A 
ATOM      5  C   UNL     1       2.834   6.297  19.991  0.00  0.00    +0.000 A 
ATOM      6  N   UNL     1       1.610   5.896  20.392  0.00  0.00    +0.000 NA
ATOM      7  C   UNL     1       1.303   4.584  20.313  0.00  0.00    +0.000 A 
ATOM      8  C   UNL     1       2.222   3.682  19.773  0.00  0.00    +0.000 A 
ATOM      9  S   UNL     1       1.987   1.997  19.521  0.00  0.00    +0.000 S 
ENDROOT
BRANCH   1  10
ATOM     10  N   UNL     1       3.946   0.601  18.381  0.00  0.00    +0.000 N 
ATOM     11  H   UNL     1       3.287  -0.155  18.229  0.00  0.00    +0.000 HD
ATOM     12  H   UNL     1       4.889   0.291  18.598  0.00  0.00    +0.000 HD
ENDBRANCH   1  10
BRANCH   4  13
ATOM     13  O   UNL     1       5.114   5.872  19.197  0.00  0.00    +0.000 OA
BRANCH  13  14
ATOM     14  C   UNL     1       5.549   5.701  17.901  0.00  0.00    +0.000 A 
ATOM     15  C   UNL     1       4.865   6.177  16.777  0.00  0.00    +0.000 A 
ATOM     16  C   UNL     1       5.341   5.892  15.495  0.00  0.00    +0.000 A 
ATOM     17  C   UNL     1       6.532   5.185  15.341  0.00  0.00    +0.000 A 
ATOM     18 CL   UNL     1       7.101   4.809  13.762  0.00  0.00    +0.000 Cl
ATOM     19  C   UNL     1       7.261   4.780  16.457  0.00  0.00    +0.000 A 
ATOM     20  C   UNL     1       6.771   5.040  17.740  0.00  0.00    +0.000 A 
ENDBRANCH  13  14
ENDBRANCH   4  13
TORSDOF 3
ENDMDL
MODEL 7
REMARK VINA RESULT:      -6.5      1.529      1.801
REMARK  Name = 
REMARK  3 active torsions:
REMARK  status: ('A' for Active; 'I' for Inactive)
REMARK    1  A    between atoms: N_1  and  C_2
REMARK    2  A    between atoms: C_5  and  O_6
REMARK    3  A    between atoms: O_6  and  C_7
REMARK                            x       y       z     vdW  Elec       q    Type
REMARK                         _______ _______ _______ _____ _____    ______ ____
ROOT
ATOM      1  C   UNL     1       4.479   3.513  17.323  0.00  0.00    +0.000 A 
ATOM      2  C   UNL     1       4.162   4.613  18.082  0.00  0.00    +0.000 A 
ATOM      3  C   UNL     1       3.048   4.394  18.971  0.00  0.00    +0.000 A 
ATOM      4  C   UNL     1       2.417   5.249  19.903  0.00  0.00    +0.000 A 
ATOM      5  C   UNL     1       1.273   4.750  20.523  0.00  0.00    +0.000 A 
ATOM      6  N   UNL     1       0.813   3.488  20.398  0.00  0.00    +0.000 NA
ATOM      7  C   UNL     1       1.467   2.641  19.575  0.00  0.00    +0.000 A 
ATOM      8  C   UNL     1       2.561   3.092  18.834  0.00  0.00    +0.000 A 
ATOM      9  S   UNL     1       3.471   2.191  17.685  0.00  0.00    +0.000 S 
ENDROOT
BRANCH   1  10
ATOM     10  N   UNL     1       5.449   3.417  16.394  0.00  0.00    +0.000 N 
ATOM     11  H   UNL     1       6.304   2.904  16.584  0.00  0.00    +0.000 HD
ATOM     12  H   UNL     1       5.558   4.166  15.716  0.00  0.00    +0.000 HD
ENDBRANCH   1  10
BRANCH   4  13
ATOM     13  O   UNL     1       2.910   6.524  20.096  0.00  0.00    +0.000 OA
BRANCH  13  14
ATOM     14  C   UNL     1       2.172   7.601  19.654  0.00  0.00    +0.000 A 
ATOM     15  C   UNL     1       2.124   8.021  18.320  0.00  0.00    +0.000 A 
ATOM     16  C   UNL     1       1.410   9.171  17.975  0.00  0.00    +0.000 A 
ATOM     17  C   UNL     1       0.694   9.861  18.951  0.00  0.00    +0.000 A 
ATOM     18 CL   UNL     1      -0.162  11.292  18.529  0.00  0.00    +0.000 Cl
ATOM     19  C   UNL     1       0.670   9.399  20.266  0.00  0.00    +0.000 A 
ATOM     20  C   UNL     1       1.408   8.266  20.618  0.00  0.00    +0.000 A 
ENDBRANCH  13  14
ENDBRANCH   4  13
TORSDOF 3
ENDMDL
MODEL 8
REMARK VINA RESULT:      -6.4      2.083      2.818
REMARK  Name = 
REMARK  3 active torsions:
REMARK  status: ('A' for Active; 'I' for Inactive)
REMARK    1  A    between atoms: N_1  and  C_2
REMARK    2  A    between atoms: C_5  and  O_6
REMARK    3  A    between atoms: O_6  and  C_7
REMARK                            x       y       z     vdW  Elec       q    Type
REMARK                         _______ _______ _______ _____ _____    ______ ____
ROOT
ATOM      1  C   UNL     1       5.607   4.347  14.830  0.00  0.00    +0.000 A 
ATOM      2  C   UNL     1       4.715   4.507  15.863  0.00  0.00    +0.000 A 
ATOM      3  C   UNL     1       5.346   4.809  17.123  0.00  0.00    +0.000 A 
ATOM      4  C   UNL     1       4.803   5.045  18.407  0.00  0.00    +0.000 A 
ATOM      5  C   UNL     1       5.717   5.192  19.448  0.00  0.00    +0.000 A 
ATOM      6  N   UNL     1       7.056   5.257  19.299  0.00  0.00    +0.000 NA
ATOM      7  C   UNL     1       7.574   5.121  18.060  0.00  0.00    +0.000 A 
ATOM      8  C   UNL     1       6.735   4.864  16.975  0.00  0.00    +0.000 A 
ATOM      9  S   UNL     1       7.210   4.589  15.345  0.00  0.00    +0.000 S 
ENDROOT
BRANCH   1  10
ATOM     10  N   UNL     1       5.323   4.041  13.550  0.00  0.00    +0.000 N 
ATOM     11  H   UNL     1       5.391   3.085  13.214  0.00  0.00    +0.000 HD
ATOM     12  H   UNL     1       5.472   4.743  12.831  0.00  0.00    +0.000 HD
ENDBRANCH   1  10
BRANCH   4  13
ATOM     13  O   UNL     1       3.432   5.047  18.572  0.00  0.00    +0.000 OA
BRANCH  13  14
ATOM     14  C   UNL     1       2.795   6.234  18.863  0.00  0.00    +0.000 A 
ATOM     15  C   UNL     1       2.675   7.299  17.962  0.00  0.00    +0.000 A 
ATOM     16  C   UNL     1       2.078   8.494  18.368  0.00  0.00    +0.000 A 
ATOM     17  C   UNL     1       1.546   8.602  19.651  0.00  0.00    +0.000 A 
ATOM     18 CL   UNL     1       0.837  10.084  20.159  0.00  0.00    +0.000 Cl
ATOM     19  C   UNL     1       1.588   7.516  20.526  0.00  0.00    +0.000 A 
ATOM     20  C   UNL     1       2.211   6.330  20.130  0.00  0.00    +0.000 A 
ENDBRANCH  13  14
ENDBRANCH   4  13
TORSDOF 3
ENDMDL
MODEL 9
REMARK VINA RESULT:      -6.4      2.064      2.997
REMARK  Name = 
REMARK  3 active torsions:
REMARK  status: ('A' for Active; 'I' for Inactive)
REMARK    1  A    between atoms: N_1  and  C_2
REMARK    2  A    between atoms: C_5  and  O_6
REMARK    3  A    between atoms: O_6  and  C_7
REMARK                            x       y       z     vdW  Elec       q    Type
REMARK                         _______ _______ _______ _____ _____    ______ ____
ROOT
ATOM      1  C   UNL     1       5.599   4.333  14.784  0.00  0.00    +0.000 A 
ATOM      2  C   UNL     1       4.702   4.517  15.809  0.00  0.00    +0.000 A 
ATOM      3  C   UNL     1       5.330   4.806  17.074  0.00  0.00    +0.000 A 
ATOM      4  C   UNL     1       4.781   5.057  18.352  0.00  0.00    +0.000 A 
ATOM      5  C   UNL     1       5.689   5.184  19.401  0.00  0.00    +0.000 A 
ATOM      6  N   UNL     1       7.031   5.215  19.263  0.00  0.00    +0.000 NA
ATOM      7  C   UNL     1       7.556   5.065  18.029  0.00  0.00    +0.000 A 
ATOM      8  C   UNL     1       6.720   4.827  16.937  0.00  0.00    +0.000 A 
ATOM      9  S   UNL     1       7.203   4.536  15.312  0.00  0.00    +0.000 S 
ENDROOT
BRANCH   1  10
ATOM     10  N   UNL     1       5.318   4.032  13.501  0.00  0.00    +0.000 N 
ATOM     11  H   UNL     1       5.121   4.762  12.825  0.00  0.00    +0.000 HD
ATOM     12  H   UNL     1       4.875   3.142  13.290  0.00  0.00    +0.000 HD
ENDBRANCH   1  10
BRANCH   4  13
ATOM     13  O   UNL     1       3.409   5.093  18.505  0.00  0.00    +0.000 OA
BRANCH  13  14
ATOM     14  C   UNL     1       2.808   6.277  18.876  0.00  0.00    +0.000 A 
ATOM     15  C   UNL     1       2.269   6.516  20.145  0.00  0.00    +0.000 A 
ATOM     16  C   UNL     1       1.610   7.719  20.410  0.00  0.00    +0.000 A 
ATOM     17  C   UNL     1       1.546   8.704  19.427  0.00  0.00    +0.000 A 
ATOM     18 CL   UNL     1       0.710  10.173  19.745  0.00  0.00    +0.000 Cl
ATOM     19  C   UNL     1       2.154   8.505  18.188  0.00  0.00    +0.000 A 
ATOM     20  C   UNL     1       2.788   7.290  17.913  0.00  0.00    +0.000 A 
ENDBRANCH  13  14
ENDBRANCH   4  13
TORSDOF 3
ENDMDL
