MODEL 1
REMARK VINA RESULT:      -7.7      0.000      0.000
REMARK  Name = 
REMARK  9 active torsions:
REMARK  status: ('A' for Active; 'I' for Inactive)
REMARK    1  A    between atoms: C_1  and  C_2
REMARK    2  A    between atoms: C_4  and  C_5
REMARK    3  A    between atoms: C_5  and  N_6
REMARK    4  A    between atoms: N_6  and  C_7
REMARK    5  A    between atoms: N_6  and  C_22
REMARK    6  A    between atoms: C_7  and  C_8
REMARK    7  A    between atoms: N_11  and  C_12
REMARK    8  A    between atoms: C_12  and  C_13
REMARK    9  A    between atoms: C_22  and  C_23
REMARK                            x       y       z     vdW  Elec       q    Type
REMARK                         _______ _______ _______ _____ _____    ______ ____
ROOT
ATOM      1  N   UNL     1       4.360   4.502  18.491  0.00  0.00    +0.000 NA
ENDROOT
BRANCH   1   2
ATOM      2  C   UNL     1       5.809   4.390  18.702  0.00  0.00    +0.000 C 
BRANCH   2   6
ATOM      3  C   UNL     1       8.098   8.624  17.875  0.00  0.00    +0.000 C 
ATOM      4  C   UNL     1       7.663   7.224  17.667  0.00  0.00    +0.000 A 
ATOM      5  N   UNL     1       7.234   6.400  18.596  0.00  0.00    +0.000 NA
ATOM      6  C   UNL     1       6.677   5.328  17.930  0.00  0.00    +0.000 A 
ATOM      7  C   UNL     1       6.884   5.465  16.573  0.00  0.00    +0.000 A 
ATOM      8  N   UNL     1       7.544   6.655  16.424  0.00  0.00    +0.000 N 
ATOM      9  H   UNL     1       7.783   7.101  15.549  0.00  0.00    +0.000 HD
ENDBRANCH   2   6
ENDBRANCH   1   2
BRANCH   1  10
ATOM     10  C   UNL     1       3.798   5.872  18.455  0.00  0.00    +0.000 C 
BRANCH  10  11
ATOM     11  C   UNL     1       2.257   6.094  18.372  0.00  0.00    +0.000 C 
ATOM     12  C   UNL     1       1.826   7.520  18.024  0.00  0.00    +0.000 C 
ATOM     13  C   UNL     1       2.111   8.505  19.159  0.00  0.00    +0.000 C 
ATOM     14  N   UNL     1       1.357   8.116  20.364  0.00  0.00    +0.000 NA
ATOM     15  C   UNL     1       1.754   6.765  20.801  0.00  0.00    +0.000 C 
ATOM     16  C   UNL     1       1.561   5.717  19.699  0.00  0.00    +0.000 C 
BRANCH  14  17
ATOM     17  C   UNL     1       1.580   9.072  21.468  0.00  0.00    +0.000 C 
BRANCH  17  18
ATOM     18  C   UNL     1       0.464  10.075  21.677  0.00  0.00    +0.000 A 
ATOM     19  C   UNL     1       0.097  10.981  20.675  0.00  0.00    +0.000 A 
ATOM     20  C   UNL     1      -0.962  11.872  20.879  0.00  0.00    +0.000 A 
ATOM     21  C   UNL     1      -1.665  11.864  22.084  0.00  0.00    +0.000 A 
ATOM     22  C   UNL     1      -1.307  10.969  23.087  0.00  0.00    +0.000 A 
ATOM     23  C   UNL     1      -0.248  10.085  22.877  0.00  0.00    +0.000 A 
ATOM     24  F   UNL     1       0.064   9.222  23.857  0.00  0.00    +0.000 F 
ENDBRANCH  17  18
ENDBRANCH  14  17
ENDBRANCH  10  11
ENDBRANCH   1  10
BRANCH   1  25
ATOM     25  C   UNL     1       3.962   3.727  17.291  0.00  0.00    +0.000 C 
BRANCH  25  26
ATOM     26  C   UNL     1       3.176   2.411  17.521  0.00  0.00    +0.000 C 
ATOM     27  C   UNL     1       3.438   1.745  18.866  0.00  0.00    +0.000 C 
ATOM     28  C   UNL     1       2.301   2.253  19.716  0.00  0.00    +0.000 C 
ATOM     29  C   UNL     1       1.172   2.319  18.715  0.00  0.00    +0.000 C 
ATOM     30  O   UNL     1       1.763   2.716  17.475  0.00  0.00    +0.000 OA
ENDBRANCH  25  26
ENDBRANCH   1  25
TORSDOF 8
ENDMDL
MODEL 2
REMARK VINA RESULT:      -7.7      2.471      4.389
REMARK  Name = 
REMARK  9 active torsions:
REMARK  status: ('A' for Active; 'I' for Inactive)
REMARK    1  A    between atoms: C_1  and  C_2
REMARK    2  A    between atoms: C_4  and  C_5
REMARK    3  A    between atoms: C_5  and  N_6
REMARK    4  A    between atoms: N_6  and  C_7
REMARK    5  A    between atoms: N_6  and  C_22
REMARK    6  A    between atoms: C_7  and  C_8
REMARK    7  A    between atoms: N_11  and  C_12
REMARK    8  A    between atoms: C_12  and  C_13
REMARK    9  A    between atoms: C_22  and  C_23
REMARK                            x       y       z     vdW  Elec       q    Type
REMARK                         _______ _______ _______ _____ _____    ______ ____
ROOT
ATOM      1  N   UNL     1       5.322   4.349  16.406  0.00  0.00    +0.000 NA
ENDROOT
BRANCH   1   2
ATOM      2  C   UNL     1       5.474   5.810  16.369  0.00  0.00    +0.000 C 
BRANCH   2   6
ATOM      3  C   UNL     1       8.517   9.249  18.028  0.00  0.00    +0.000 C 
ATOM      4  C   UNL     1       7.729   7.996  18.003  0.00  0.00    +0.000 A 
ATOM      5  N   UNL     1       6.652   7.773  17.284  0.00  0.00    +0.000 NA
ATOM      6  C   UNL     1       6.422   6.415  17.351  0.00  0.00    +0.000 A 
ATOM      7  C   UNL     1       7.317   5.833  18.225  0.00  0.00    +0.000 A 
ATOM      8  N   UNL     1       8.116   6.855  18.660  0.00  0.00    +0.000 N 
ATOM      9  H   UNL     1       8.930   6.768  19.254  0.00  0.00    +0.000 HD
ENDBRANCH   2   6
ENDBRANCH   1   2
BRANCH   1  10
ATOM     10  C   UNL     1       3.944   3.829  16.565  0.00  0.00    +0.000 C 
BRANCH  10  11
ATOM     11  C   UNL     1       3.567   2.948  17.794  0.00  0.00    +0.000 C 
ATOM     12  C   UNL     1       2.099   3.025  18.220  0.00  0.00    +0.000 C 
ATOM     13  C   UNL     1       1.743   4.382  18.828  0.00  0.00    +0.000 C 
ATOM     14  N   UNL     1       2.550   4.618  20.039  0.00  0.00    +0.000 NA
ATOM     15  C   UNL     1       3.986   4.612  19.705  0.00  0.00    +0.000 C 
ATOM     16  C   UNL     1       4.421   3.307  19.029  0.00  0.00    +0.000 C 
BRANCH  14  17
ATOM     17  C   UNL     1       2.201   5.905  20.674  0.00  0.00    +0.000 C 
BRANCH  17  18
ATOM     18  C   UNL     1       2.162   7.091  19.732  0.00  0.00    +0.000 A 
ATOM     19  C   UNL     1       2.893   7.101  18.538  0.00  0.00    +0.000 A 
ATOM     20  C   UNL     1       2.811   8.192  17.667  0.00  0.00    +0.000 A 
ATOM     21  C   UNL     1       1.996   9.282  17.979  0.00  0.00    +0.000 A 
ATOM     22  C   UNL     1       1.267   9.282  19.164  0.00  0.00    +0.000 A 
ATOM     23  C   UNL     1       1.357   8.191  20.030  0.00  0.00    +0.000 A 
ATOM     24  F   UNL     1       0.629   8.212  21.157  0.00  0.00    +0.000 F 
ENDBRANCH  17  18
ENDBRANCH  14  17
ENDBRANCH  10  11
ENDBRANCH   1  10
BRANCH   1  25
ATOM     25  C   UNL     1       5.992   3.741  15.231  0.00  0.00    +0.000 C 
BRANCH  25  26
ATOM     26  C   UNL     1       5.766   4.417  13.854  0.00  0.00    +0.000 C 
ATOM     27  C   UNL     1       6.978   4.391  12.931  0.00  0.00    +0.000 C 
ATOM     28  C   UNL     1       6.717   3.179  12.073  0.00  0.00    +0.000 C 
ATOM     29  C   UNL     1       5.215   3.221  11.926  0.00  0.00    +0.000 C 
ATOM     30  O   UNL     1       4.707   3.707  13.172  0.00  0.00    +0.000 OA
ENDBRANCH  25  26
ENDBRANCH   1  25
TORSDOF 8
ENDMDL
MODEL 3
REMARK VINA RESULT:      -7.4      2.043      2.521
REMARK  Name = 
REMARK  9 active torsions:
REMARK  status: ('A' for Active; 'I' for Inactive)
REMARK    1  A    between atoms: C_1  and  C_2
REMARK    2  A    between atoms: C_4  and  C_5
REMARK    3  A    between atoms: C_5  and  N_6
REMARK    4  A    between atoms: N_6  and  C_7
REMARK    5  A    between atoms: N_6  and  C_22
REMARK    6  A    between atoms: C_7  and  C_8
REMARK    7  A    between atoms: N_11  and  C_12
REMARK    8  A    between atoms: C_12  and  C_13
REMARK    9  A    between atoms: C_22  and  C_23
REMARK                            x       y       z     vdW  Elec       q    Type
REMARK                         _______ _______ _______ _____ _____    ______ ____
ROOT
ATOM      1  N   UNL     1       3.224   4.033  17.833  0.00  0.00    +0.000 NA
ENDROOT
BRANCH   1   2
ATOM      2  C   UNL     1       4.111   3.907  16.670  0.00  0.00    +0.000 C 
BRANCH   2   6
ATOM      3  C   UNL     1       7.943   5.691  19.114  0.00  0.00    +0.000 C 
ATOM      4  C   UNL     1       7.186   4.986  18.055  0.00  0.00    +0.000 A 
ATOM      5  N   UNL     1       5.980   4.478  18.174  0.00  0.00    +0.000 NA
ATOM      6  C   UNL     1       5.561   4.183  16.893  0.00  0.00    +0.000 A 
ATOM      7  C   UNL     1       6.589   4.414  16.002  0.00  0.00    +0.000 A 
ATOM      8  N   UNL     1       7.626   4.888  16.760  0.00  0.00    +0.000 N 
ATOM      9  H   UNL     1       8.512   5.231  16.414  0.00  0.00    +0.000 HD
ENDBRANCH   2   6
ENDBRANCH   1   2
BRANCH   1  10
ATOM     10  C   UNL     1       2.569   5.347  18.030  0.00  0.00    +0.000 C 
BRANCH  10  11
ATOM     11  C   UNL     1       3.284   6.476  18.833  0.00  0.00    +0.000 C 
ATOM     12  C   UNL     1       2.466   7.071  19.981  0.00  0.00    +0.000 C 
ATOM     13  C   UNL     1       1.281   7.899  19.481  0.00  0.00    +0.000 C 
ATOM     14  N   UNL     1       1.766   9.032  18.672  0.00  0.00    +0.000 NA
ATOM     15  C   UNL     1       2.525   8.541  17.507  0.00  0.00    +0.000 C 
ATOM     16  C   UNL     1       3.700   7.645  17.914  0.00  0.00    +0.000 C 
BRANCH  14  17
ATOM     17  C   UNL     1       0.646   9.876  18.205  0.00  0.00    +0.000 C 
BRANCH  17  18
ATOM     18  C   UNL     1       0.134  10.873  19.224  0.00  0.00    +0.000 A 
ATOM     19  C   UNL     1       1.008  11.670  19.973  0.00  0.00    +0.000 A 
ATOM     20  C   UNL     1       0.510  12.610  20.881  0.00  0.00    +0.000 A 
ATOM     21  C   UNL     1      -0.868  12.765  21.046  0.00  0.00    +0.000 A 
ATOM     22  C   UNL     1      -1.745  11.977  20.308  0.00  0.00    +0.000 A 
ATOM     23  C   UNL     1      -1.240  11.039  19.406  0.00  0.00    +0.000 A 
ATOM     24  F   UNL     1      -2.111  10.306  18.697  0.00  0.00    +0.000 F 
ENDBRANCH  17  18
ENDBRANCH  14  17
ENDBRANCH  10  11
ENDBRANCH   1  10
BRANCH   1  25
ATOM     25  C   UNL     1       2.230   2.933  17.832  0.00  0.00    +0.000 C 
BRANCH  25  26
ATOM     26  C   UNL     1       2.065   2.120  19.142  0.00  0.00    +0.000 C 
ATOM     27  C   UNL     1       3.156   2.362  20.177  0.00  0.00    +0.000 C 
ATOM     28  C   UNL     1       2.541   3.408  21.072  0.00  0.00    +0.000 C 
ATOM     29  C   UNL     1       1.088   3.000  21.071  0.00  0.00    +0.000 C 
ATOM     30  O   UNL     1       0.815   2.504  19.757  0.00  0.00    +0.000 OA
ENDBRANCH  25  26
ENDBRANCH   1  25
TORSDOF 8
ENDMDL
MODEL 4
REMARK VINA RESULT:      -7.3      1.816      2.410
REMARK  Name = 
REMARK  9 active torsions:
REMARK  status: ('A' for Active; 'I' for Inactive)
REMARK    1  A    between atoms: C_1  and  C_2
REMARK    2  A    between atoms: C_4  and  C_5
REMARK    3  A    between atoms: C_5  and  N_6
REMARK    4  A    between atoms: N_6  and  C_7
REMARK    5  A    between atoms: N_6  and  C_22
REMARK    6  A    between atoms: C_7  and  C_8
REMARK    7  A    between atoms: N_11  and  C_12
REMARK    8  A    between atoms: C_12  and  C_13
REMARK    9  A    between atoms: C_22  and  C_23
REMARK                            x       y       z     vdW  Elec       q    Type
REMARK                         _______ _______ _______ _____ _____    ______ ____
ROOT
ATOM      1  N   UNL     1       4.500   4.556  19.184  0.00  0.00    +0.000 NA
ENDROOT
BRANCH   1   2
ATOM      2  C   UNL     1       5.740   4.676  18.406  0.00  0.00    +0.000 C 
BRANCH   2   6
ATOM      3  C   UNL     1       6.435   4.019  13.618  0.00  0.00    +0.000 C 
ATOM      4  C   UNL     1       5.944   4.634  14.872  0.00  0.00    +0.000 A 
ATOM      5  N   UNL     1       5.802   4.027  16.028  0.00  0.00    +0.000 NA
ATOM      6  C   UNL     1       5.600   5.023  16.961  0.00  0.00    +0.000 A 
ATOM      7  C   UNL     1       5.505   6.244  16.326  0.00  0.00    +0.000 A 
ATOM      8  N   UNL     1       5.688   5.976  14.996  0.00  0.00    +0.000 N 
ATOM      9  H   UNL     1       5.755   6.658  14.252  0.00  0.00    +0.000 HD
ENDBRANCH   2   6
ENDBRANCH   1   2
BRANCH   1  10
ATOM     10  C   UNL     1       3.781   5.816  19.485  0.00  0.00    +0.000 C 
BRANCH  10  11
ATOM     11  C   UNL     1       2.261   5.955  19.170  0.00  0.00    +0.000 C 
ATOM     12  C   UNL     1       1.911   7.014  18.122  0.00  0.00    +0.000 C 
ATOM     13  C   UNL     1       2.141   8.435  18.636  0.00  0.00    +0.000 C 
ATOM     14  N   UNL     1       1.281   8.693  19.805  0.00  0.00    +0.000 NA
ATOM     15  C   UNL     1       1.591   7.744  20.888  0.00  0.00    +0.000 C 
ATOM     16  C   UNL     1       1.449   6.284  20.442  0.00  0.00    +0.000 C 
BRANCH  14  17
ATOM     17  C   UNL     1       1.450  10.075  20.301  0.00  0.00    +0.000 C 
BRANCH  17  18
ATOM     18  C   UNL     1       0.265  10.625  21.068  0.00  0.00    +0.000 A 
ATOM     19  C   UNL     1      -0.002  10.231  22.385  0.00  0.00    +0.000 A 
ATOM     20  C   UNL     1      -1.081  10.781  23.085  0.00  0.00    +0.000 A 
ATOM     21  C   UNL     1      -1.901  11.733  22.476  0.00  0.00    +0.000 A 
ATOM     22  C   UNL     1      -1.645  12.130  21.168  0.00  0.00    +0.000 A 
ATOM     23  C   UNL     1      -0.569  11.574  20.475  0.00  0.00    +0.000 A 
ATOM     24  F   UNL     1      -0.338  11.989  19.220  0.00  0.00    +0.000 F 
ENDBRANCH  17  18
ENDBRANCH  14  17
ENDBRANCH  10  11
ENDBRANCH   1  10
BRANCH   1  25
ATOM     25  C   UNL     1       3.600   3.563  18.550  0.00  0.00    +0.000 C 
BRANCH  25  26
ATOM     26  C   UNL     1       3.119   2.377  19.425  0.00  0.00    +0.000 C 
ATOM     27  C   UNL     1       3.626   2.404  20.861  0.00  0.00    +0.000 C 
ATOM     28  C   UNL     1       2.488   3.057  21.604  0.00  0.00    +0.000 C 
ATOM     29  C   UNL     1       1.287   2.519  20.865  0.00  0.00    +0.000 C 
ATOM     30  O   UNL     1       1.676   2.422  19.492  0.00  0.00    +0.000 OA
ENDBRANCH  25  26
ENDBRANCH   1  25
TORSDOF 8
ENDMDL
MODEL 5
REMARK VINA RESULT:      -7.3      1.576      1.900
REMARK  Name = 
REMARK  9 active torsions:
REMARK  status: ('A' for Active; 'I' for Inactive)
REMARK    1  A    between atoms: C_1  and  C_2
REMARK    2  A    between atoms: C_4  and  C_5
REMARK    3  A    between atoms: C_5  and  N_6
REMARK    4  A    between atoms: N_6  and  C_7
REMARK    5  A    between atoms: N_6  and  C_22
REMARK    6  A    between atoms: C_7  and  C_8
REMARK    7  A    between atoms: N_11  and  C_12
REMARK    8  A    between atoms: C_12  and  C_13
REMARK    9  A    between atoms: C_22  and  C_23
REMARK                            x       y       z     vdW  Elec       q    Type
REMARK                         _______ _______ _______ _____ _____    ______ ____
ROOT
ATOM      1  N   UNL     1       4.708   4.580  19.073  0.00  0.00    +0.000 NA
ENDROOT
BRANCH   1   2
ATOM      2  C   UNL     1       6.175   4.602  19.133  0.00  0.00    +0.000 C 
BRANCH   2   6
ATOM      3  C   UNL     1       8.176   8.859  17.824  0.00  0.00    +0.000 C 
ATOM      4  C   UNL     1       7.750   7.445  17.728  0.00  0.00    +0.000 A 
ATOM      5  N   UNL     1       7.506   6.639  18.737  0.00  0.00    +0.000 NA
ATOM      6  C   UNL     1       6.875   5.536  18.202  0.00  0.00    +0.000 A 
ATOM      7  C   UNL     1       6.846   5.637  16.826  0.00  0.00    +0.000 A 
ATOM      8  N   UNL     1       7.438   6.837  16.538  0.00  0.00    +0.000 N 
ATOM      9  H   UNL     1       7.515   7.262  15.624  0.00  0.00    +0.000 HD
ENDBRANCH   2   6
ENDBRANCH   1   2
BRANCH   1  10
ATOM     10  C   UNL     1       4.023   5.893  19.079  0.00  0.00    +0.000 C 
BRANCH  10  11
ATOM     11  C   UNL     1       2.502   5.996  18.751  0.00  0.00    +0.000 C 
ATOM     12  C   UNL     1       2.113   7.160  17.838  0.00  0.00    +0.000 C 
ATOM     13  C   UNL     1       2.261   8.515  18.532  0.00  0.00    +0.000 C 
ATOM     14  N   UNL     1       1.371   8.579  19.705  0.00  0.00    +0.000 NA
ATOM     15  C   UNL     1       1.715   7.516  20.666  0.00  0.00    +0.000 C 
ATOM     16  C   UNL     1       1.655   6.120  20.037  0.00  0.00    +0.000 C 
BRANCH  14  17
ATOM     17  C   UNL     1       1.461   9.893  20.375  0.00  0.00    +0.000 C 
BRANCH  17  18
ATOM     18  C   UNL     1       0.801  11.034  19.629  0.00  0.00    +0.000 A 
ATOM     19  C   UNL     1       1.514  12.184  19.270  0.00  0.00    +0.000 A 
ATOM     20  C   UNL     1       0.892  13.208  18.549  0.00  0.00    +0.000 A 
ATOM     21  C   UNL     1      -0.449  13.091  18.178  0.00  0.00    +0.000 A 
ATOM     22  C   UNL     1      -1.167  11.954  18.532  0.00  0.00    +0.000 A 
ATOM     23  C   UNL     1      -0.540  10.938  19.254  0.00  0.00    +0.000 A 
ATOM     24  F   UNL     1      -1.254   9.846  19.566  0.00  0.00    +0.000 F 
ENDBRANCH  17  18
ENDBRANCH  14  17
ENDBRANCH  10  11
ENDBRANCH   1  10
BRANCH   1  25
ATOM     25  C   UNL     1       4.261   3.748  17.929  0.00  0.00    +0.000 C 
BRANCH  25  26
ATOM     26  C   UNL     1       3.576   2.397  18.256  0.00  0.00    +0.000 C 
ATOM     27  C   UNL     1       3.402   2.120  19.744  0.00  0.00    +0.000 C 
ATOM     28  C   UNL     1       1.993   2.586  20.008  0.00  0.00    +0.000 C 
ATOM     29  C   UNL     1       1.296   2.207  18.723  0.00  0.00    +0.000 C 
ATOM     30  O   UNL     1       2.251   2.411  17.678  0.00  0.00    +0.000 OA
ENDBRANCH  25  26
ENDBRANCH   1  25
TORSDOF 8
ENDMDL
MODEL 6
REMARK VINA RESULT:      -7.2      1.154      1.442
REMARK  Name = 
REMARK  9 active torsions:
REMARK  status: ('A' for Active; 'I' for Inactive)
REMARK    1  A    between atoms: C_1  and  C_2
REMARK    2  A    between atoms: C_4  and  C_5
REMARK    3  A    between atoms: C_5  and  N_6
REMARK    4  A    between atoms: N_6  and  C_7
REMARK    5  A    between atoms: N_6  and  C_22
REMARK    6  A    between atoms: C_7  and  C_8
REMARK    7  A    between atoms: N_11  and  C_12
REMARK    8  A    between atoms: C_12  and  C_13
REMARK    9  A    between atoms: C_22  and  C_23
REMARK                            x       y       z     vdW  Elec       q    Type
REMARK                         _______ _______ _______ _____ _____    ______ ____
ROOT
ATOM      1  N   UNL     1       4.720   4.486  18.754  0.00  0.00    +0.000 NA
ENDROOT
BRANCH   1   2
ATOM      2  C   UNL     1       6.170   4.614  18.558  0.00  0.00    +0.000 C 
BRANCH   2   6
ATOM      3  C   UNL     1       8.400   8.946  18.249  0.00  0.00    +0.000 C 
ATOM      4  C   UNL     1       7.673   7.732  17.815  0.00  0.00    +0.000 A 
ATOM      5  N   UNL     1       7.660   6.574  18.436  0.00  0.00    +0.000 NA
ATOM      6  C   UNL     1       6.650   5.838  17.852  0.00  0.00    +0.000 A 
ATOM      7  C   UNL     1       6.127   6.532  16.781  0.00  0.00    +0.000 A 
ATOM      8  N   UNL     1       6.811   7.717  16.747  0.00  0.00    +0.000 N 
ATOM      9  H   UNL     1       6.627   8.497  16.131  0.00  0.00    +0.000 HD
ENDBRANCH   2   6
ENDBRANCH   1   2
BRANCH   1  10
ATOM     10  C   UNL     1       3.990   5.720  19.130  0.00  0.00    +0.000 C 
BRANCH  10  11
ATOM     11  C   UNL     1       2.465   5.857  18.840  0.00  0.00    +0.000 C 
ATOM     12  C   UNL     1       2.089   6.973  17.863  0.00  0.00    +0.000 C 
ATOM     13  C   UNL     1       2.306   8.364  18.460  0.00  0.00    +0.000 C 
ATOM     14  N   UNL     1       1.456   8.538  19.652  0.00  0.00    +0.000 NA
ATOM     15  C   UNL     1       1.792   7.529  20.672  0.00  0.00    +0.000 C 
ATOM     16  C   UNL     1       1.663   6.097  20.139  0.00  0.00    +0.000 C 
BRANCH  14  17
ATOM     17  C   UNL     1       1.613   9.889  20.230  0.00  0.00    +0.000 C 
BRANCH  17  18
ATOM     18  C   UNL     1       0.511  10.306  21.182  0.00  0.00    +0.000 A 
ATOM     19  C   UNL     1       0.352   9.695  22.432  0.00  0.00    +0.000 A 
ATOM     20  C   UNL     1      -0.650  10.123  23.308  0.00  0.00    +0.000 A 
ATOM     21  C   UNL     1      -1.502  11.168  22.944  0.00  0.00    +0.000 A 
ATOM     22  C   UNL     1      -1.354  11.780  21.704  0.00  0.00    +0.000 A 
ATOM     23  C   UNL     1      -0.353  11.345  20.834  0.00  0.00    +0.000 A 
ATOM     24  F   UNL     1      -0.225  11.966  19.652  0.00  0.00    +0.000 F 
ENDBRANCH  17  18
ENDBRANCH  14  17
ENDBRANCH  10  11
ENDBRANCH   1  10
BRANCH   1  25
ATOM     25  C   UNL     1       4.104   3.839  17.571  0.00  0.00    +0.000 C 
BRANCH  25  26
ATOM     26  C   UNL     1       3.409   2.471  17.789  0.00  0.00    +0.000 C 
ATOM     27  C   UNL     1       3.456   1.959  19.223  0.00  0.00    +0.000 C 
ATOM     28  C   UNL     1       2.131   2.412  19.782  0.00  0.00    +0.000 C 
ATOM     29  C   UNL     1       1.223   2.266  18.584  0.00  0.00    +0.000 C 
ATOM     30  O   UNL     1       2.013   2.614  17.443  0.00  0.00    +0.000 OA
ENDBRANCH  25  26
ENDBRANCH   1  25
TORSDOF 8
ENDMDL
MODEL 7
REMARK VINA RESULT:      -7.2      1.844      2.348
REMARK  Name = 
REMARK  9 active torsions:
REMARK  status: ('A' for Active; 'I' for Inactive)
REMARK    1  A    between atoms: C_1  and  C_2
REMARK    2  A    between atoms: C_4  and  C_5
REMARK    3  A    between atoms: C_5  and  N_6
REMARK    4  A    between atoms: N_6  and  C_7
REMARK    5  A    between atoms: N_6  and  C_22
REMARK    6  A    between atoms: C_7  and  C_8
REMARK    7  A    between atoms: N_11  and  C_12
REMARK    8  A    between atoms: C_12  and  C_13
REMARK    9  A    between atoms: C_22  and  C_23
REMARK                            x       y       z     vdW  Elec       q    Type
REMARK                         _______ _______ _______ _____ _____    ______ ____
ROOT
ATOM      1  N   UNL     1       4.697   4.499  19.212  0.00  0.00    +0.000 NA
ENDROOT
BRANCH   1   2
ATOM      2  C   UNL     1       6.086   4.458  18.734  0.00  0.00    +0.000 C 
BRANCH   2   6
ATOM      3  C   UNL     1       6.530   4.194  13.879  0.00  0.00    +0.000 C 
ATOM      4  C   UNL     1       6.500   4.790  15.234  0.00  0.00    +0.000 A 
ATOM      5  N   UNL     1       5.880   4.298  16.283  0.00  0.00    +0.000 NA
ATOM      6  C   UNL     1       6.348   5.005  17.370  0.00  0.00    +0.000 A 
ATOM      7  C   UNL     1       7.180   6.020  16.944  0.00  0.00    +0.000 A 
ATOM      8  N   UNL     1       7.237   5.894  15.582  0.00  0.00    +0.000 N 
ATOM      9  H   UNL     1       7.821   6.431  14.956  0.00  0.00    +0.000 HD
ENDBRANCH   2   6
ENDBRANCH   1   2
BRANCH   1  10
ATOM     10  C   UNL     1       4.017   5.814  19.161  0.00  0.00    +0.000 C 
BRANCH  10  11
ATOM     11  C   UNL     1       2.497   5.907  18.828  0.00  0.00    +0.000 C 
ATOM     12  C   UNL     1       2.125   6.964  17.785  0.00  0.00    +0.000 C 
ATOM     13  C   UNL     1       2.303   8.387  18.314  0.00  0.00    +0.000 C 
ATOM     14  N   UNL     1       1.421   8.607  19.474  0.00  0.00    +0.000 NA
ATOM     15  C   UNL     1       1.750   7.658  20.553  0.00  0.00    +0.000 C 
ATOM     16  C   UNL     1       1.660   6.199  20.093  0.00  0.00    +0.000 C 
BRANCH  14  17
ATOM     17  C   UNL     1       1.540   9.988  19.985  0.00  0.00    +0.000 C 
BRANCH  17  18
ATOM     18  C   UNL     1       0.323  10.860  19.751  0.00  0.00    +0.000 A 
ATOM     19  C   UNL     1      -0.766  10.410  18.995  0.00  0.00    +0.000 A 
ATOM     20  C   UNL     1      -1.894  11.220  18.824  0.00  0.00    +0.000 A 
ATOM     21  C   UNL     1      -1.945  12.485  19.412  0.00  0.00    +0.000 A 
ATOM     22  C   UNL     1      -0.868  12.942  20.164  0.00  0.00    +0.000 A 
ATOM     23  C   UNL     1       0.255  12.129  20.327  0.00  0.00    +0.000 A 
ATOM     24  F   UNL     1       1.271  12.591  21.071  0.00  0.00    +0.000 F 
ENDBRANCH  17  18
ENDBRANCH  14  17
ENDBRANCH  10  11
ENDBRANCH   1  10
BRANCH   1  25
ATOM     25  C   UNL     1       3.896   3.455  18.529  0.00  0.00    +0.000 C 
BRANCH  25  26
ATOM     26  C   UNL     1       3.341   2.300  19.401  0.00  0.00    +0.000 C 
ATOM     27  C   UNL     1       3.708   2.389  20.877  0.00  0.00    +0.000 C 
ATOM     28  C   UNL     1       2.499   3.060  21.480  0.00  0.00    +0.000 C 
ATOM     29  C   UNL     1       1.378   2.480  20.651  0.00  0.00    +0.000 C 
ATOM     30  O   UNL     1       1.898   2.332  19.327  0.00  0.00    +0.000 OA
ENDBRANCH  25  26
ENDBRANCH   1  25
TORSDOF 8
ENDMDL
MODEL 8
REMARK VINA RESULT:      -7.1      2.628      3.935
REMARK  Name = 
REMARK  9 active torsions:
REMARK  status: ('A' for Active; 'I' for Inactive)
REMARK    1  A    between atoms: C_1  and  C_2
REMARK    2  A    between atoms: C_4  and  C_5
REMARK    3  A    between atoms: C_5  and  N_6
REMARK    4  A    between atoms: N_6  and  C_7
REMARK    5  A    between atoms: N_6  and  C_22
REMARK    6  A    between atoms: C_7  and  C_8
REMARK    7  A    between atoms: N_11  and  C_12
REMARK    8  A    between atoms: C_12  and  C_13
REMARK    9  A    between atoms: C_22  and  C_23
REMARK                            x       y       z     vdW  Elec       q    Type
REMARK                         _______ _______ _______ _____ _____    ______ ____
ROOT
ATOM      1  N   UNL     1       5.861   4.471  16.059  0.00  0.00    +0.000 NA
ENDROOT
BRANCH   1   2
ATOM      2  C   UNL     1       6.702   5.658  15.855  0.00  0.00    +0.000 C 
BRANCH   2   6
ATOM      3  C   UNL     1       8.606   9.403  18.343  0.00  0.00    +0.000 C 
ATOM      4  C   UNL     1       8.018   8.068  18.090  0.00  0.00    +0.000 A 
ATOM      5  N   UNL     1       7.277   7.732  17.058  0.00  0.00    +0.000 NA
ATOM      6  C   UNL     1       7.193   6.355  17.081  0.00  0.00    +0.000 A 
ATOM      7  C   UNL     1       7.803   5.870  18.219  0.00  0.00    +0.000 A 
ATOM      8  N   UNL     1       8.290   6.971  18.868  0.00  0.00    +0.000 N 
ATOM      9  H   UNL     1       8.862   6.971  19.702  0.00  0.00    +0.000 HD
ENDBRANCH   2   6
ENDBRANCH   1   2
BRANCH   1  10
ATOM     10  C   UNL     1       4.434   4.714  16.373  0.00  0.00    +0.000 C 
BRANCH  10  11
ATOM     11  C   UNL     1       3.897   4.514  17.823  0.00  0.00    +0.000 C 
ATOM     12  C   UNL     1       2.379   4.630  17.973  0.00  0.00    +0.000 C 
ATOM     13  C   UNL     1       1.885   6.063  17.772  0.00  0.00    +0.000 C 
ATOM     14  N   UNL     1       2.482   6.948  18.788  0.00  0.00    +0.000 NA
ATOM     15  C   UNL     1       3.951   6.936  18.678  0.00  0.00    +0.000 C 
ATOM     16  C   UNL     1       4.532   5.523  18.804  0.00  0.00    +0.000 C 
BRANCH  14  17
ATOM     17  C   UNL     1       1.992   8.335  18.646  0.00  0.00    +0.000 C 
BRANCH  17  18
ATOM     18  C   UNL     1       1.197   8.854  19.826  0.00  0.00    +0.000 A 
ATOM     19  C   UNL     1       1.361   8.321  21.111  0.00  0.00    +0.000 A 
ATOM     20  C   UNL     1       0.642   8.842  22.191  0.00  0.00    +0.000 A 
ATOM     21  C   UNL     1      -0.244   9.903  21.999  0.00  0.00    +0.000 A 
ATOM     22  C   UNL     1      -0.415  10.439  20.727  0.00  0.00    +0.000 A 
ATOM     23  C   UNL     1       0.303   9.911  19.653  0.00  0.00    +0.000 A 
ATOM     24  F   UNL     1       0.129  10.460  18.441  0.00  0.00    +0.000 F 
ENDBRANCH  17  18
ENDBRANCH  14  17
ENDBRANCH  10  11
ENDBRANCH   1  10
BRANCH   1  25
ATOM     25  C   UNL     1       6.006   3.545  14.909  0.00  0.00    +0.000 C 
BRANCH  25  26
ATOM     26  C   UNL     1       5.903   4.154  13.487  0.00  0.00    +0.000 C 
ATOM     27  C   UNL     1       7.033   3.757  12.546  0.00  0.00    +0.000 C 
ATOM     28  C   UNL     1       6.444   2.590  11.793  0.00  0.00    +0.000 C 
ATOM     29  C   UNL     1       4.995   3.000  11.672  0.00  0.00    +0.000 C 
ATOM     30  O   UNL     1       4.675   3.687  12.885  0.00  0.00    +0.000 OA
ENDBRANCH  25  26
ENDBRANCH   1  25
TORSDOF 8
ENDMDL
MODEL 9
REMARK VINA RESULT:      -7.1      4.077      9.431
REMARK  Name = 
REMARK  9 active torsions:
REMARK  status: ('A' for Active; 'I' for Inactive)
REMARK    1  A    between atoms: C_1  and  C_2
REMARK    2  A    between atoms: C_4  and  C_5
REMARK    3  A    between atoms: C_5  and  N_6
REMARK    4  A    between atoms: N_6  and  C_7
REMARK    5  A    between atoms: N_6  and  C_22
REMARK    6  A    between atoms: C_7  and  C_8
REMARK    7  A    between atoms: N_11  and  C_12
REMARK    8  A    between atoms: C_12  and  C_13
REMARK    9  A    between atoms: C_22  and  C_23
REMARK                            x       y       z     vdW  Elec       q    Type
REMARK                         _______ _______ _______ _____ _____    ______ ____
ROOT
ATOM      1  N   UNL     1      -1.506  11.325  19.534  0.00  0.00    +0.000 NA
ENDROOT
BRANCH   1   2
ATOM      2  C   UNL     1      -1.783  12.003  18.261  0.00  0.00    +0.000 C 
BRANCH   2   6
ATOM      3  C   UNL     1      -3.371  10.057  14.074  0.00  0.00    +0.000 C 
ATOM      4  C   UNL     1      -3.392  10.509  15.484  0.00  0.00    +0.000 A 
ATOM      5  N   UNL     1      -2.344  10.680  16.257  0.00  0.00    +0.000 NA
ATOM      6  C   UNL     1      -2.794  11.369  17.365  0.00  0.00    +0.000 A 
ATOM      7  C   UNL     1      -4.165  11.509  17.300  0.00  0.00    +0.000 A 
ATOM      8  N   UNL     1      -4.535  10.926  16.119  0.00  0.00    +0.000 N 
ATOM      9  H   UNL     1      -5.464  10.918  15.719  0.00  0.00    +0.000 HD
ENDBRANCH   2   6
ENDBRANCH   1   2
BRANCH   1  10
ATOM     10  C   UNL     1      -0.643  10.123  19.472  0.00  0.00    +0.000 C 
BRANCH  10  11
ATOM     11  C   UNL     1       0.870  10.215  19.839  0.00  0.00    +0.000 C 
ATOM     12  C   UNL     1       1.827   9.646  18.789  0.00  0.00    +0.000 C 
ATOM     13  C   UNL     1       1.736   8.122  18.687  0.00  0.00    +0.000 C 
ATOM     14  N   UNL     1       2.106   7.510  19.976  0.00  0.00    +0.000 NA
ATOM     15  C   UNL     1       1.194   7.967  21.040  0.00  0.00    +0.000 C 
ATOM     16  C   UNL     1       1.172   9.494  21.171  0.00  0.00    +0.000 C 
BRANCH  14  17
ATOM     17  C   UNL     1       2.067   6.035  19.900  0.00  0.00    +0.000 C 
BRANCH  17  18
ATOM     18  C   UNL     1       3.138   5.414  19.026  0.00  0.00    +0.000 A 
ATOM     19  C   UNL     1       4.493   5.481  19.369  0.00  0.00    +0.000 A 
ATOM     20  C   UNL     1       5.460   4.869  18.565  0.00  0.00    +0.000 A 
ATOM     21  C   UNL     1       5.080   4.181  17.411  0.00  0.00    +0.000 A 
ATOM     22  C   UNL     1       3.735   4.110  17.060  0.00  0.00    +0.000 A 
ATOM     23  C   UNL     1       2.778   4.726  17.866  0.00  0.00    +0.000 A 
ATOM     24  F   UNL     1       1.488   4.627  17.510  0.00  0.00    +0.000 F 
ENDBRANCH  17  18
ENDBRANCH  14  17
ENDBRANCH  10  11
ENDBRANCH   1  10
BRANCH   1  25
ATOM     25  C   UNL     1      -0.996  12.301  20.527  0.00  0.00    +0.000 C 
BRANCH  25  26
ATOM     26  C   UNL     1      -1.563  12.215  21.967  0.00  0.00    +0.000 C 
ATOM     27  C   UNL     1      -1.049  13.291  22.914  0.00  0.00    +0.000 C 
ATOM     28  C   UNL     1      -2.129  14.341  22.845  0.00  0.00    +0.000 C 
ATOM     29  C   UNL     1      -3.372  13.496  22.700  0.00  0.00    +0.000 C 
ATOM     30  O   UNL     1      -2.998  12.373  21.897  0.00  0.00    +0.000 OA
ENDBRANCH  25  26
ENDBRANCH   1  25
TORSDOF 8
ENDMDL
