MODEL 1
REMARK VINA RESULT:      -7.6      0.000      0.000
REMARK  Name = 
REMARK  12 active torsions:
REMARK  status: ('A' for Active; 'I' for Inactive)
REMARK    1  A    between atoms: C_2  and  C_3
REMARK    2  A    between atoms: C_2  and  C_4
REMARK    3  A    between atoms: C_4  and  O_5
REMARK    4  A    between atoms: O_5  and  C_6
REMARK    5  A    between atoms: C_8  and  N_9
REMARK    6  A    between atoms: N_9  and  C_10
REMARK    7  A    between atoms: C_10  and  C_11
REMARK    8  A    between atoms: C_15  and  C_16
REMARK    9  A    between atoms: C_16  and  O_18
REMARK   10  A    between atoms: C_23  and  C_24
REMARK   11  A    between atoms: C_24  and  C_25
REMARK   12  A    between atoms: C_24  and  C_26
REMARK                            x       y       z     vdW  Elec       q    Type
REMARK                         _______ _______ _______ _____ _____    ______ ____
ROOT
ATOM      1  C   UNL     1       2.895   5.636  19.742  0.00  0.00    +0.000 A 
ATOM      2  C   UNL     1       3.951   6.068  18.912  0.00  0.00    +0.000 A 
ATOM      3  C   UNL     1       4.890   5.171  18.379  0.00  0.00    +0.000 A 
ATOM      4  C   UNL     1       4.784   3.831  18.765  0.00  0.00    +0.000 A 
ATOM      5  C   UNL     1       3.797   3.409  19.658  0.00  0.00    +0.000 A 
ATOM      6  C   UNL     1       2.843   4.298  20.173  0.00  0.00    +0.000 A 
ENDROOT
BRANCH   3   7
ATOM      7  N   UNL     1       5.876   5.602  17.465  0.00  0.00    +0.000 N 
ATOM      8  C   UNL     1       6.109   5.118  16.159  0.00  0.00    +0.000 A 
ATOM      9  C   UNL     1       5.025   4.780  15.344  0.00  0.00    +0.000 A 
ATOM     10  C   UNL     1       5.234   4.352  14.032  0.00  0.00    +0.000 A 
ATOM     11  C   UNL     1       6.536   4.233  13.559  0.00  0.00    +0.000 A 
ATOM     12  C   UNL     1       7.566   4.600  14.410  0.00  0.00    +0.000 A 
ATOM     13  N   UNL     1       7.373   5.041  15.678  0.00  0.00    +0.000 NA
BRANCH   7  14
ATOM     14  C   UNL     1       6.885   6.559  17.953  0.00  0.00    +0.000 C 
ATOM     15  C   UNL     1       7.746   5.926  19.046  0.00  0.00    +0.000 C 
ENDBRANCH   7  14
BRANCH  11  16
ATOM     16  C   UNL     1       6.878   3.794  12.190  0.00  0.00    +0.000 C 
ATOM     17  O   UNL     1       7.403   4.530  11.375  0.00  0.00    +0.000 OA
BRANCH  16  18
ATOM     18  O   UNL     1       6.596   2.498  11.942  0.00  0.00    +0.000 OA
ATOM     19  H   UNL     1       7.089   1.844  12.471  0.00  0.00    +0.000 HD
ENDBRANCH  16  18
ENDBRANCH  11  16
ENDBRANCH   3   7
BRANCH   6  20
ATOM     20  C   UNL     1       1.746   3.785  21.101  0.00  0.00    +0.000 C 
ATOM     21  C   UNL     1       0.544   3.322  20.274  0.00  0.00    +0.000 C 
ATOM     22  C   UNL     1       2.198   2.645  22.029  0.00  0.00    +0.000 C 
ENDBRANCH   6  20
BRANCH   1  23
ATOM     23  O   UNL     1       1.878   6.479  20.139  0.00  0.00    +0.000 OA
BRANCH  23  24
ATOM     24  C   UNL     1       2.025   7.838  19.699  0.00  0.00    +0.000 C 
BRANCH  24  26
ATOM     25  C   UNL     1       1.181   8.679  21.891  0.00  0.00    +0.000 C 
ATOM     26  C   UNL     1       1.185   8.763  20.549  0.00  0.00    +0.000 C 
ATOM     27  C   UNL     1       0.303   9.742  19.826  0.00  0.00    +0.000 C 
ENDBRANCH  24  26
ENDBRANCH  23  24
ENDBRANCH   1  23
TORSDOF 8
ENDMDL
MODEL 2
REMARK VINA RESULT:      -7.1      4.196      8.309
REMARK  Name = 
REMARK  12 active torsions:
REMARK  status: ('A' for Active; 'I' for Inactive)
REMARK    1  A    between atoms: C_2  and  C_3
REMARK    2  A    between atoms: C_2  and  C_4
REMARK    3  A    between atoms: C_4  and  O_5
REMARK    4  A    between atoms: O_5  and  C_6
REMARK    5  A    between atoms: C_8  and  N_9
REMARK    6  A    between atoms: N_9  and  C_10
REMARK    7  A    between atoms: C_10  and  C_11
REMARK    8  A    between atoms: C_15  and  C_16
REMARK    9  A    between atoms: C_16  and  O_18
REMARK   10  A    between atoms: C_23  and  C_24
REMARK   11  A    between atoms: C_24  and  C_25
REMARK   12  A    between atoms: C_24  and  C_26
REMARK                            x       y       z     vdW  Elec       q    Type
REMARK                         _______ _______ _______ _____ _____    ______ ____
ROOT
ATOM      1  C   UNL     1       2.454   6.572  19.819  0.00  0.00    +0.000 A 
ATOM      2  C   UNL     1       1.666   7.706  20.109  0.00  0.00    +0.000 A 
ATOM      3  C   UNL     1       1.541   8.772  19.204  0.00  0.00    +0.000 A 
ATOM      4  C   UNL     1       2.292   8.701  18.026  0.00  0.00    +0.000 A 
ATOM      5  C   UNL     1       3.144   7.625  17.771  0.00  0.00    +0.000 A 
ATOM      6  C   UNL     1       3.253   6.548  18.662  0.00  0.00    +0.000 A 
ENDROOT
BRANCH   3   7
ATOM      7  N   UNL     1       0.666   9.850  19.461  0.00  0.00    +0.000 N 
ATOM      8  C   UNL     1      -0.440  10.264  18.687  0.00  0.00    +0.000 A 
ATOM      9  C   UNL     1      -1.261   9.304  18.088  0.00  0.00    +0.000 A 
ATOM     10  C   UNL     1      -2.390   9.692  17.364  0.00  0.00    +0.000 A 
ATOM     11  C   UNL     1      -2.667  11.047  17.219  0.00  0.00    +0.000 A 
ATOM     12  C   UNL     1      -1.824  11.947  17.850  0.00  0.00    +0.000 A 
ATOM     13  N   UNL     1      -0.738  11.580  18.576  0.00  0.00    +0.000 NA
BRANCH   7  14
ATOM     14  C   UNL     1       1.009  10.755  20.573  0.00  0.00    +0.000 C 
ATOM     15  C   UNL     1       0.079  10.525  21.763  0.00  0.00    +0.000 C 
ENDBRANCH   7  14
BRANCH  11  16
ATOM     16  C   UNL     1      -3.833  11.575  16.480  0.00  0.00    +0.000 C 
ATOM     17  O   UNL     1      -4.848  11.952  17.035  0.00  0.00    +0.000 OA
BRANCH  16  18
ATOM     18  O   UNL     1      -3.652  11.642  15.144  0.00  0.00    +0.000 OA
ATOM     19  H   UNL     1      -4.237  12.255  14.663  0.00  0.00    +0.000 HD
ENDBRANCH  16  18
ENDBRANCH  11  16
ENDBRANCH   3   7
BRANCH   6  20
ATOM     20  C   UNL     1       4.151   5.364  18.319  0.00  0.00    +0.000 C 
ATOM     21  C   UNL     1       4.306   5.254  16.800  0.00  0.00    +0.000 C 
ATOM     22  C   UNL     1       5.543   5.428  18.972  0.00  0.00    +0.000 C 
ENDBRANCH   6  20
BRANCH   1  23
ATOM     23  O   UNL     1       2.457   5.452  20.625  0.00  0.00    +0.000 OA
BRANCH  23  24
ATOM     24  C   UNL     1       1.264   4.657  20.545  0.00  0.00    +0.000 C 
BRANCH  24  26
ATOM     25  C   UNL     1       0.730   2.759  19.016  0.00  0.00    +0.000 C 
ATOM     26  C   UNL     1       1.562   3.318  19.912  0.00  0.00    +0.000 C 
ATOM     27  C   UNL     1       2.801   2.605  20.376  0.00  0.00    +0.000 C 
ENDBRANCH  24  26
ENDBRANCH  23  24
ENDBRANCH   1  23
TORSDOF 8
ENDMDL
MODEL 3
REMARK VINA RESULT:      -7.1      4.323      8.711
REMARK  Name = 
REMARK  12 active torsions:
REMARK  status: ('A' for Active; 'I' for Inactive)
REMARK    1  A    between atoms: C_2  and  C_3
REMARK    2  A    between atoms: C_2  and  C_4
REMARK    3  A    between atoms: C_4  and  O_5
REMARK    4  A    between atoms: O_5  and  C_6
REMARK    5  A    between atoms: C_8  and  N_9
REMARK    6  A    between atoms: N_9  and  C_10
REMARK    7  A    between atoms: C_10  and  C_11
REMARK    8  A    between atoms: C_15  and  C_16
REMARK    9  A    between atoms: C_16  and  O_18
REMARK   10  A    between atoms: C_23  and  C_24
REMARK   11  A    between atoms: C_24  and  C_25
REMARK   12  A    between atoms: C_24  and  C_26
REMARK                            x       y       z     vdW  Elec       q    Type
REMARK                         _______ _______ _______ _____ _____    ______ ____
ROOT
ATOM      1  C   UNL     1       2.503   6.753  19.497  0.00  0.00    +0.000 A 
ATOM      2  C   UNL     1       1.685   7.772  20.029  0.00  0.00    +0.000 A 
ATOM      3  C   UNL     1       1.383   8.936  19.304  0.00  0.00    +0.000 A 
ATOM      4  C   UNL     1       1.990   9.082  18.052  0.00  0.00    +0.000 A 
ATOM      5  C   UNL     1       2.872   8.121  17.555  0.00  0.00    +0.000 A 
ATOM      6  C   UNL     1       3.157   6.947  18.267  0.00  0.00    +0.000 A 
ENDROOT
BRANCH   3   7
ATOM      7  N   UNL     1       0.478   9.896  19.805  0.00  0.00    +0.000 N 
ATOM      8  C   UNL     1      -0.700  10.373  19.189  0.00  0.00    +0.000 A 
ATOM      9  C   UNL     1      -1.514   9.487  18.479  0.00  0.00    +0.000 A 
ATOM     10  C   UNL     1      -2.710   9.928  17.910  0.00  0.00    +0.000 A 
ATOM     11  C   UNL     1      -3.062  11.268  18.029  0.00  0.00    +0.000 A 
ATOM     12  C   UNL     1      -2.220  12.091  18.759  0.00  0.00    +0.000 A 
ATOM     13  N   UNL     1      -1.068  11.668  19.338  0.00  0.00    +0.000 NA
BRANCH   7  14
ATOM     14  C   UNL     1       0.856  10.609  21.039  0.00  0.00    +0.000 C 
ATOM     15  C   UNL     1       0.066  10.077  22.234  0.00  0.00    +0.000 C 
ENDBRANCH   7  14
BRANCH  11  16
ATOM     16  C   UNL     1      -4.302  11.848  17.473  0.00  0.00    +0.000 C 
ATOM     17  O   UNL     1      -4.718  11.570  16.364  0.00  0.00    +0.000 OA
BRANCH  16  18
ATOM     18  O   UNL     1      -4.949  12.677  18.319  0.00  0.00    +0.000 OA
ATOM     19  H   UNL     1      -5.054  13.598  18.020  0.00  0.00    +0.000 HD
ENDBRANCH  16  18
ENDBRANCH  11  16
ENDBRANCH   3   7
BRANCH   6  20
ATOM     20  C   UNL     1       4.081   5.895  17.663  0.00  0.00    +0.000 C 
ATOM     21  C   UNL     1       5.306   5.705  18.562  0.00  0.00    +0.000 C 
ATOM     22  C   UNL     1       3.405   4.534  17.425  0.00  0.00    +0.000 C 
ENDBRANCH   6  20
BRANCH   1  23
ATOM     23  O   UNL     1       2.675   5.540  20.132  0.00  0.00    +0.000 OA
BRANCH  23  24
ATOM     24  C   UNL     1       1.471   4.977  20.676  0.00  0.00    +0.000 C 
BRANCH  24  26
ATOM     25  C   UNL     1       0.792   2.854  19.555  0.00  0.00    +0.000 C 
ATOM     26  C   UNL     1       1.479   3.473  20.532  0.00  0.00    +0.000 C 
ATOM     27  C   UNL     1       2.237   2.692  21.568  0.00  0.00    +0.000 C 
ENDBRANCH  24  26
ENDBRANCH  23  24
ENDBRANCH   1  23
TORSDOF 8
ENDMDL
MODEL 4
REMARK VINA RESULT:      -6.9      1.886      3.624
REMARK  Name = 
REMARK  12 active torsions:
REMARK  status: ('A' for Active; 'I' for Inactive)
REMARK    1  A    between atoms: C_2  and  C_3
REMARK    2  A    between atoms: C_2  and  C_4
REMARK    3  A    between atoms: C_4  and  O_5
REMARK    4  A    between atoms: O_5  and  C_6
REMARK    5  A    between atoms: C_8  and  N_9
REMARK    6  A    between atoms: N_9  and  C_10
REMARK    7  A    between atoms: C_10  and  C_11
REMARK    8  A    between atoms: C_15  and  C_16
REMARK    9  A    between atoms: C_16  and  O_18
REMARK   10  A    between atoms: C_23  and  C_24
REMARK   11  A    between atoms: C_24  and  C_25
REMARK   12  A    between atoms: C_24  and  C_26
REMARK                            x       y       z     vdW  Elec       q    Type
REMARK                         _______ _______ _______ _____ _____    ______ ____
ROOT
ATOM      1  C   UNL     1       2.071   8.016  19.365  0.00  0.00    +0.000 A 
ATOM      2  C   UNL     1       2.777   6.973  18.730  0.00  0.00    +0.000 A 
ATOM      3  C   UNL     1       2.798   5.669  19.249  0.00  0.00    +0.000 A 
ATOM      4  C   UNL     1       2.149   5.457  20.469  0.00  0.00    +0.000 A 
ATOM      5  C   UNL     1       1.524   6.503  21.152  0.00  0.00    +0.000 A 
ATOM      6  C   UNL     1       1.481   7.801  20.624  0.00  0.00    +0.000 A 
ENDROOT
BRANCH   3   7
ATOM      7  N   UNL     1       3.419   4.612  18.547  0.00  0.00    +0.000 N 
ATOM      8  C   UNL     1       4.295   4.710  17.444  0.00  0.00    +0.000 A 
ATOM      9  C   UNL     1       5.240   5.738  17.402  0.00  0.00    +0.000 A 
ATOM     10  C   UNL     1       6.151   5.819  16.347  0.00  0.00    +0.000 A 
ATOM     11  C   UNL     1       6.080   4.883  15.321  0.00  0.00    +0.000 A 
ATOM     12  C   UNL     1       5.132   3.879  15.429  0.00  0.00    +0.000 A 
ATOM     13  N   UNL     1       4.258   3.777  16.463  0.00  0.00    +0.000 NA
BRANCH   7  14
ATOM     14  C   UNL     1       3.008   3.237  18.884  0.00  0.00    +0.000 C 
ATOM     15  C   UNL     1       4.099   2.530  19.687  0.00  0.00    +0.000 C 
ENDBRANCH   7  14
BRANCH  11  16
ATOM     16  C   UNL     1       6.991   4.866  14.157  0.00  0.00    +0.000 C 
ATOM     17  O   UNL     1       6.762   4.222  13.151  0.00  0.00    +0.000 OA
BRANCH  16  18
ATOM     18  O   UNL     1       8.074   5.661  14.295  0.00  0.00    +0.000 OA
ATOM     19  H   UNL     1       8.194   6.344  13.610  0.00  0.00    +0.000 HD
ENDBRANCH  16  18
ENDBRANCH  11  16
ENDBRANCH   3   7
BRANCH   6  20
ATOM     20  C   UNL     1       0.738   8.903  21.373  0.00  0.00    +0.000 C 
ATOM     21  C   UNL     1      -0.715   8.481  21.607  0.00  0.00    +0.000 C 
ATOM     22  C   UNL     1       1.381   9.287  22.717  0.00  0.00    +0.000 C 
ENDBRANCH   6  20
BRANCH   1  23
ATOM     23  O   UNL     1       1.909   9.258  18.785  0.00  0.00    +0.000 OA
BRANCH  23  24
ATOM     24  C   UNL     1       0.877   9.319  17.789  0.00  0.00    +0.000 C 
BRANCH  24  26
ATOM     25  C   UNL     1       0.161  11.447  18.876  0.00  0.00    +0.000 C 
ATOM     26  C   UNL     1      -0.160  10.352  18.164  0.00  0.00    +0.000 C 
ATOM     27  C   UNL     1      -1.581  10.071  17.762  0.00  0.00    +0.000 C 
ENDBRANCH  24  26
ENDBRANCH  23  24
ENDBRANCH   1  23
TORSDOF 8
ENDMDL
MODEL 5
REMARK VINA RESULT:      -6.9      4.294      8.464
REMARK  Name = 
REMARK  12 active torsions:
REMARK  status: ('A' for Active; 'I' for Inactive)
REMARK    1  A    between atoms: C_2  and  C_3
REMARK    2  A    between atoms: C_2  and  C_4
REMARK    3  A    between atoms: C_4  and  O_5
REMARK    4  A    between atoms: O_5  and  C_6
REMARK    5  A    between atoms: C_8  and  N_9
REMARK    6  A    between atoms: N_9  and  C_10
REMARK    7  A    between atoms: C_10  and  C_11
REMARK    8  A    between atoms: C_15  and  C_16
REMARK    9  A    between atoms: C_16  and  O_18
REMARK   10  A    between atoms: C_23  and  C_24
REMARK   11  A    between atoms: C_24  and  C_25
REMARK   12  A    between atoms: C_24  and  C_26
REMARK                            x       y       z     vdW  Elec       q    Type
REMARK                         _______ _______ _______ _____ _____    ______ ____
ROOT
ATOM      1  C   UNL     1       2.269   6.849  19.792  0.00  0.00    +0.000 A 
ATOM      2  C   UNL     1       1.580   8.073  19.923  0.00  0.00    +0.000 A 
ATOM      3  C   UNL     1       1.584   9.039  18.904  0.00  0.00    +0.000 A 
ATOM      4  C   UNL     1       2.365   8.772  17.776  0.00  0.00    +0.000 A 
ATOM      5  C   UNL     1       3.124   7.604  17.676  0.00  0.00    +0.000 A 
ATOM      6  C   UNL     1       3.103   6.627  18.681  0.00  0.00    +0.000 A 
ENDROOT
BRANCH   3   7
ATOM      7  N   UNL     1       0.803  10.211  19.005  0.00  0.00    +0.000 N 
ATOM      8  C   UNL     1       1.259  11.546  19.054  0.00  0.00    +0.000 A 
ATOM      9  C   UNL     1       2.343  11.936  18.264  0.00  0.00    +0.000 A 
ATOM     10  C   UNL     1       2.773  13.265  18.258  0.00  0.00    +0.000 A 
ATOM     11  C   UNL     1       2.129  14.186  19.077  0.00  0.00    +0.000 A 
ATOM     12  C   UNL     1       1.051  13.741  19.824  0.00  0.00    +0.000 A 
ATOM     13  N   UNL     1       0.609  12.458  19.818  0.00  0.00    +0.000 NA
BRANCH   7  14
ATOM     14  C   UNL     1      -0.643  10.047  19.236  0.00  0.00    +0.000 C 
ATOM     15  C   UNL     1      -1.415  10.145  17.922  0.00  0.00    +0.000 C 
ENDBRANCH   7  14
BRANCH  11  16
ATOM     16  C   UNL     1       2.493  15.616  19.152  0.00  0.00    +0.000 C 
ATOM     17  O   UNL     1       3.568  16.043  18.774  0.00  0.00    +0.000 OA
BRANCH  16  18
ATOM     18  O   UNL     1       1.512  16.408  19.635  0.00  0.00    +0.000 OA
ATOM     19  H   UNL     1       1.638  16.742  20.542  0.00  0.00    +0.000 HD
ENDBRANCH  16  18
ENDBRANCH  11  16
ENDBRANCH   3   7
BRANCH   6  20
ATOM     20  C   UNL     1       3.900   5.338  18.507  0.00  0.00    +0.000 C 
ATOM     21  C   UNL     1       4.141   5.076  17.018  0.00  0.00    +0.000 C 
ATOM     22  C   UNL     1       5.246   5.332  19.252  0.00  0.00    +0.000 C 
ENDBRANCH   6  20
BRANCH   1  23
ATOM     23  O   UNL     1       2.142   5.829  20.713  0.00  0.00    +0.000 OA
BRANCH  23  24
ATOM     24  C   UNL     1       1.006   4.976  20.503  0.00  0.00    +0.000 C 
BRANCH  24  26
ATOM     25  C   UNL     1       2.158   3.018  21.533  0.00  0.00    +0.000 C 
ATOM     26  C   UNL     1       1.423   3.524  20.528  0.00  0.00    +0.000 C 
ATOM     27  C   UNL     1       1.033   2.682  19.346  0.00  0.00    +0.000 C 
ENDBRANCH  24  26
ENDBRANCH  23  24
ENDBRANCH   1  23
TORSDOF 8
ENDMDL
MODEL 6
REMARK VINA RESULT:      -6.8      2.311      4.882
REMARK  Name = 
REMARK  12 active torsions:
REMARK  status: ('A' for Active; 'I' for Inactive)
REMARK    1  A    between atoms: C_2  and  C_3
REMARK    2  A    between atoms: C_2  and  C_4
REMARK    3  A    between atoms: C_4  and  O_5
REMARK    4  A    between atoms: O_5  and  C_6
REMARK    5  A    between atoms: C_8  and  N_9
REMARK    6  A    between atoms: N_9  and  C_10
REMARK    7  A    between atoms: C_10  and  C_11
REMARK    8  A    between atoms: C_15  and  C_16
REMARK    9  A    between atoms: C_16  and  O_18
REMARK   10  A    between atoms: C_23  and  C_24
REMARK   11  A    between atoms: C_24  and  C_25
REMARK   12  A    between atoms: C_24  and  C_26
REMARK                            x       y       z     vdW  Elec       q    Type
REMARK                         _______ _______ _______ _____ _____    ______ ____
ROOT
ATOM      1  C   UNL     1       1.029   9.229  18.962  0.00  0.00    +0.000 A 
ATOM      2  C   UNL     1       1.657   8.031  18.562  0.00  0.00    +0.000 A 
ATOM      3  C   UNL     1       2.033   7.045  19.488  0.00  0.00    +0.000 A 
ATOM      4  C   UNL     1       1.827   7.329  20.841  0.00  0.00    +0.000 A 
ATOM      5  C   UNL     1       1.289   8.550  21.254  0.00  0.00    +0.000 A 
ATOM      6  C   UNL     1       0.892   9.527  20.330  0.00  0.00    +0.000 A 
ENDROOT
BRANCH   3   7
ATOM      7  N   UNL     1       2.563   5.807  19.063  0.00  0.00    +0.000 N 
ATOM      8  C   UNL     1       3.562   5.586  18.091  0.00  0.00    +0.000 A 
ATOM      9  C   UNL     1       4.651   6.459  18.010  0.00  0.00    +0.000 A 
ATOM     10  C   UNL     1       5.676   6.226  17.091  0.00  0.00    +0.000 A 
ATOM     11  C   UNL     1       5.582   5.134  16.235  0.00  0.00    +0.000 A 
ATOM     12  C   UNL     1       4.486   4.298  16.377  0.00  0.00    +0.000 A 
ATOM     13  N   UNL     1       3.497   4.501  17.283  0.00  0.00    +0.000 NA
BRANCH   7  14
ATOM     14  C   UNL     1       1.914   4.582  19.564  0.00  0.00    +0.000 C 
ATOM     15  C   UNL     1       2.738   3.954  20.687  0.00  0.00    +0.000 C 
ENDBRANCH   7  14
BRANCH  11  16
ATOM     16  C   UNL     1       6.605   4.787  15.227  0.00  0.00    +0.000 C 
ATOM     17  O   UNL     1       7.567   5.494  14.995  0.00  0.00    +0.000 OA
BRANCH  16  18
ATOM     18  O   UNL     1       6.398   3.598  14.622  0.00  0.00    +0.000 OA
ATOM     19  H   UNL     1       6.533   2.806  15.175  0.00  0.00    +0.000 HD
ENDBRANCH  16  18
ENDBRANCH  11  16
ENDBRANCH   3   7
BRANCH   6  20
ATOM     20  C   UNL     1       0.254  10.823  20.820  0.00  0.00    +0.000 C 
ATOM     21  C   UNL     1      -0.284  10.631  22.240  0.00  0.00    +0.000 C 
ATOM     22  C   UNL     1       1.204  12.034  20.792  0.00  0.00    +0.000 C 
ENDBRANCH   6  20
BRANCH   1  23
ATOM     23  O   UNL     1       0.513  10.130  18.054  0.00  0.00    +0.000 OA
BRANCH  23  24
ATOM     24  C   UNL     1      -0.618   9.645  17.313  0.00  0.00    +0.000 C 
BRANCH  24  26
ATOM     25  C   UNL     1      -3.077   9.859  17.675  0.00  0.00    +0.000 C 
ATOM     26  C   UNL     1      -1.860  10.429  17.671  0.00  0.00    +0.000 C 
ATOM     27  C   UNL     1      -1.683  11.893  17.960  0.00  0.00    +0.000 C 
ENDBRANCH  24  26
ENDBRANCH  23  24
ENDBRANCH   1  23
TORSDOF 8
ENDMDL
MODEL 7
REMARK VINA RESULT:      -6.8      2.433      5.143
REMARK  Name = 
REMARK  12 active torsions:
REMARK  status: ('A' for Active; 'I' for Inactive)
REMARK    1  A    between atoms: C_2  and  C_3
REMARK    2  A    between atoms: C_2  and  C_4
REMARK    3  A    between atoms: C_4  and  O_5
REMARK    4  A    between atoms: O_5  and  C_6
REMARK    5  A    between atoms: C_8  and  N_9
REMARK    6  A    between atoms: N_9  and  C_10
REMARK    7  A    between atoms: C_10  and  C_11
REMARK    8  A    between atoms: C_15  and  C_16
REMARK    9  A    between atoms: C_16  and  O_18
REMARK   10  A    between atoms: C_23  and  C_24
REMARK   11  A    between atoms: C_24  and  C_25
REMARK   12  A    between atoms: C_24  and  C_26
REMARK                            x       y       z     vdW  Elec       q    Type
REMARK                         _______ _______ _______ _____ _____    ______ ____
ROOT
ATOM      1  C   UNL     1       0.922   9.404  19.155  0.00  0.00    +0.000 A 
ATOM      2  C   UNL     1       1.666   8.246  18.846  0.00  0.00    +0.000 A 
ATOM      3  C   UNL     1       2.129   7.374  19.844  0.00  0.00    +0.000 A 
ATOM      4  C   UNL     1       1.887   7.738  21.172  0.00  0.00    +0.000 A 
ATOM      5  C   UNL     1       1.229   8.928  21.492  0.00  0.00    +0.000 A 
ATOM      6  C   UNL     1       0.745   9.789  20.497  0.00  0.00    +0.000 A 
ENDROOT
BRANCH   3   7
ATOM      7  N   UNL     1       2.780   6.165  19.514  0.00  0.00    +0.000 N 
ATOM      8  C   UNL     1       3.565   5.894  18.373  0.00  0.00    +0.000 A 
ATOM      9  C   UNL     1       4.422   6.880  17.874  0.00  0.00    +0.000 A 
ATOM     10  C   UNL     1       5.246   6.612  16.780  0.00  0.00    +0.000 A 
ATOM     11  C   UNL     1       5.177   5.363  16.171  0.00  0.00    +0.000 A 
ATOM     12  C   UNL     1       4.320   4.425  16.723  0.00  0.00    +0.000 A 
ATOM     13  N   UNL     1       3.533   4.666  17.802  0.00  0.00    +0.000 NA
BRANCH   7  14
ATOM     14  C   UNL     1       2.504   4.991  20.362  0.00  0.00    +0.000 C 
ATOM     15  C   UNL     1       1.063   4.518  20.177  0.00  0.00    +0.000 C 
ENDBRANCH   7  14
BRANCH  11  16
ATOM     16  C   UNL     1       6.002   4.965  15.012  0.00  0.00    +0.000 C 
ATOM     17  O   UNL     1       5.564   4.303  14.090  0.00  0.00    +0.000 OA
BRANCH  16  18
ATOM     18  O   UNL     1       7.266   5.437  15.049  0.00  0.00    +0.000 OA
ATOM     19  H   UNL     1       7.413   6.224  15.605  0.00  0.00    +0.000 HD
ENDBRANCH  16  18
ENDBRANCH  11  16
ENDBRANCH   3   7
BRANCH   6  20
ATOM     20  C   UNL     1      -0.019  11.050  20.887  0.00  0.00    +0.000 C 
ATOM     21  C   UNL     1      -0.626  10.877  22.281  0.00  0.00    +0.000 C 
ATOM     22  C   UNL     1       0.834  12.330  20.856  0.00  0.00    +0.000 C 
ENDBRANCH   6  20
BRANCH   1  23
ATOM     23  O   UNL     1       0.326  10.179  18.181  0.00  0.00    +0.000 OA
BRANCH  23  24
ATOM     24  C   UNL     1      -0.863   9.610  17.612  0.00  0.00    +0.000 C 
BRANCH  24  26
ATOM     25  C   UNL     1      -2.279  11.509  18.394  0.00  0.00    +0.000 C 
ATOM     26  C   UNL     1      -1.913  10.676  17.404  0.00  0.00    +0.000 C 
ATOM     27  C   UNL     1      -2.578  10.725  16.057  0.00  0.00    +0.000 C 
ENDBRANCH  24  26
ENDBRANCH  23  24
ENDBRANCH   1  23
TORSDOF 8
ENDMDL
MODEL 8
REMARK VINA RESULT:      -6.8      4.410      8.346
REMARK  Name = 
REMARK  12 active torsions:
REMARK  status: ('A' for Active; 'I' for Inactive)
REMARK    1  A    between atoms: C_2  and  C_3
REMARK    2  A    between atoms: C_2  and  C_4
REMARK    3  A    between atoms: C_4  and  O_5
REMARK    4  A    between atoms: O_5  and  C_6
REMARK    5  A    between atoms: C_8  and  N_9
REMARK    6  A    between atoms: N_9  and  C_10
REMARK    7  A    between atoms: C_10  and  C_11
REMARK    8  A    between atoms: C_15  and  C_16
REMARK    9  A    between atoms: C_16  and  O_18
REMARK   10  A    between atoms: C_23  and  C_24
REMARK   11  A    between atoms: C_24  and  C_25
REMARK   12  A    between atoms: C_24  and  C_26
REMARK                            x       y       z     vdW  Elec       q    Type
REMARK                         _______ _______ _______ _____ _____    ______ ____
ROOT
ATOM      1  C   UNL     1       2.203   6.824  19.893  0.00  0.00    +0.000 A 
ATOM      2  C   UNL     1       1.474   8.019  20.066  0.00  0.00    +0.000 A 
ATOM      3  C   UNL     1       1.443   9.019  19.080  0.00  0.00    +0.000 A 
ATOM      4  C   UNL     1       2.229   8.816  17.942  0.00  0.00    +0.000 A 
ATOM      5  C   UNL     1       3.026   7.678  17.801  0.00  0.00    +0.000 A 
ATOM      6  C   UNL     1       3.040   6.668  18.773  0.00  0.00    +0.000 A 
ENDROOT
BRANCH   3   7
ATOM      7  N   UNL     1       0.624  10.160  19.221  0.00  0.00    +0.000 N 
ATOM      8  C   UNL     1      -0.587  10.438  18.551  0.00  0.00    +0.000 A 
ATOM      9  C   UNL     1      -1.496   9.404  18.310  0.00  0.00    +0.000 A 
ATOM     10  C   UNL     1      -2.723   9.669  17.697  0.00  0.00    +0.000 A 
ATOM     11  C   UNL     1      -3.012  10.970  17.299  0.00  0.00    +0.000 A 
ATOM     12  C   UNL     1      -2.077  11.952  17.582  0.00  0.00    +0.000 A 
ATOM     13  N   UNL     1      -0.893  11.710  18.199  0.00  0.00    +0.000 NA
BRANCH   7  14
ATOM     14  C   UNL     1       1.140  11.271  20.041  0.00  0.00    +0.000 C 
ATOM     15  C   UNL     1       2.001  12.210  19.197  0.00  0.00    +0.000 C 
ENDBRANCH   7  14
BRANCH  11  16
ATOM     16  C   UNL     1      -4.276  11.370  16.647  0.00  0.00    +0.000 C 
ATOM     17  O   UNL     1      -5.020  12.211  17.114  0.00  0.00    +0.000 OA
BRANCH  16  18
ATOM     18  O   UNL     1      -4.506  10.751  15.470  0.00  0.00    +0.000 OA
ATOM     19  H   UNL     1      -3.758  10.727  14.845  0.00  0.00    +0.000 HD
ENDBRANCH  16  18
ENDBRANCH  11  16
ENDBRANCH   3   7
BRANCH   6  20
ATOM     20  C   UNL     1       3.879   5.413  18.555  0.00  0.00    +0.000 C 
ATOM     21  C   UNL     1       3.538   4.792  17.198  0.00  0.00    +0.000 C 
ATOM     22  C   UNL     1       5.397   5.655  18.639  0.00  0.00    +0.000 C 
ENDBRANCH   6  20
BRANCH   1  23
ATOM     23  O   UNL     1       2.113   5.771  20.779  0.00  0.00    +0.000 OA
BRANCH  23  24
ATOM     24  C   UNL     1       0.997   4.896  20.552  0.00  0.00    +0.000 C 
BRANCH  24  26
ATOM     25  C   UNL     1       2.086   2.927  21.631  0.00  0.00    +0.000 C 
ATOM     26  C   UNL     1       1.444   3.453  20.572  0.00  0.00    +0.000 C 
ATOM     27  C   UNL     1       1.197   2.644  19.330  0.00  0.00    +0.000 C 
ENDBRANCH  24  26
ENDBRANCH  23  24
ENDBRANCH   1  23
TORSDOF 8
ENDMDL
MODEL 9
REMARK VINA RESULT:      -6.7      3.976      8.701
REMARK  Name = 
REMARK  12 active torsions:
REMARK  status: ('A' for Active; 'I' for Inactive)
REMARK    1  A    between atoms: C_2  and  C_3
REMARK    2  A    between atoms: C_2  and  C_4
REMARK    3  A    between atoms: C_4  and  O_5
REMARK    4  A    between atoms: O_5  and  C_6
REMARK    5  A    between atoms: C_8  and  N_9
REMARK    6  A    between atoms: N_9  and  C_10
REMARK    7  A    between atoms: C_10  and  C_11
REMARK    8  A    between atoms: C_15  and  C_16
REMARK    9  A    between atoms: C_16  and  O_18
REMARK   10  A    between atoms: C_23  and  C_24
REMARK   11  A    between atoms: C_24  and  C_25
REMARK   12  A    between atoms: C_24  and  C_26
REMARK                            x       y       z     vdW  Elec       q    Type
REMARK                         _______ _______ _______ _____ _____    ______ ____
ROOT
ATOM      1  C   UNL     1       2.854   6.662  19.273  0.00  0.00    +0.000 A 
ATOM      2  C   UNL     1       1.953   7.544  19.906  0.00  0.00    +0.000 A 
ATOM      3  C   UNL     1       1.569   8.760  19.318  0.00  0.00    +0.000 A 
ATOM      4  C   UNL     1       2.174   9.101  18.105  0.00  0.00    +0.000 A 
ATOM      5  C   UNL     1       3.134   8.277  17.514  0.00  0.00    +0.000 A 
ATOM      6  C   UNL     1       3.503   7.052  18.087  0.00  0.00    +0.000 A 
ENDROOT
BRANCH   3   7
ATOM      7  N   UNL     1       0.586   9.581  19.913  0.00  0.00    +0.000 N 
ATOM      8  C   UNL     1      -0.555  10.140  19.298  0.00  0.00    +0.000 A 
ATOM      9  C   UNL     1      -1.271   9.391  18.359  0.00  0.00    +0.000 A 
ATOM     10  C   UNL     1      -2.433   9.906  17.781  0.00  0.00    +0.000 A 
ATOM     11  C   UNL     1      -2.848  11.187  18.125  0.00  0.00    +0.000 A 
ATOM     12  C   UNL     1      -2.105  11.872  19.073  0.00  0.00    +0.000 A 
ATOM     13  N   UNL     1      -0.988  11.371  19.660  0.00  0.00    +0.000 NA
BRANCH   7  14
ATOM     14  C   UNL     1       0.830  10.046  21.290  0.00  0.00    +0.000 C 
ATOM     15  C   UNL     1      -0.073   9.310  22.278  0.00  0.00    +0.000 C 
ENDBRANCH   7  14
BRANCH  11  16
ATOM     16  C   UNL     1      -4.060  11.834  17.583  0.00  0.00    +0.000 C 
ATOM     17  O   UNL     1      -4.484  11.606  16.466  0.00  0.00    +0.000 OA
BRANCH  16  18
ATOM     18  O   UNL     1      -4.675  12.666  18.451  0.00  0.00    +0.000 OA
ATOM     19  H   UNL     1      -5.405  13.200  18.089  0.00  0.00    +0.000 HD
ENDBRANCH  16  18
ENDBRANCH  11  16
ENDBRANCH   3   7
BRANCH   6  20
ATOM     20  C   UNL     1       4.513   6.154  17.380  0.00  0.00    +0.000 C 
ATOM     21  C   UNL     1       4.845   6.733  16.003  0.00  0.00    +0.000 C 
ATOM     22  C   UNL     1       5.815   5.938  18.171  0.00  0.00    +0.000 C 
ENDBRANCH   6  20
BRANCH   1  23
ATOM     23  O   UNL     1       3.115   5.399  19.762  0.00  0.00    +0.000 OA
BRANCH  23  24
ATOM     24  C   UNL     1       1.968   4.717  20.292  0.00  0.00    +0.000 C 
BRANCH  24  26
ATOM     25  C   UNL     1       3.304   2.624  20.049  0.00  0.00    +0.000 C 
ATOM     26  C   UNL     1       2.325   3.300  20.676  0.00  0.00    +0.000 C 
ATOM     27  C   UNL     1       1.493   2.653  21.748  0.00  0.00    +0.000 C 
ENDBRANCH  24  26
ENDBRANCH  23  24
ENDBRANCH   1  23
TORSDOF 8
ENDMDL
