MODEL 1
REMARK VINA RESULT:      -9.0      0.000      0.000
REMARK  Name = 
REMARK  4 active torsions:
REMARK  status: ('A' for Active; 'I' for Inactive)
REMARK    1  A    between atoms: C_1  and  C_2
REMARK    2  A    between atoms: C_5  and  N_6
REMARK    3  A    between atoms: C_13  and  C_14
REMARK    4  A    between atoms: C_14  and  C_15
REMARK                            x       y       z     vdW  Elec       q    Type
REMARK                         _______ _______ _______ _____ _____    ______ ____
ROOT
ATOM      1  N   UNL     1       9.584   9.630  19.017  0.00  0.00    +0.000 N 
ATOM      2  C   UNL     1       8.540   8.823  18.581  0.00  0.00    +0.000 C 
ATOM      3  O   UNL     1       7.651   9.228  17.842  0.00  0.00    +0.000 OA
ATOM      4  N   UNL     1       8.615   7.532  19.056  0.00  0.00    +0.000 N 
ATOM      5  C   UNL     1       7.719   6.543  18.693  0.00  0.00    +0.000 A 
ATOM      6  N   UNL     1       7.566   5.410  19.345  0.00  0.00    +0.000 NA
ATOM      7  N   UNL     1       6.613   4.587  18.751  0.00  0.00    +0.000 NA
ATOM      8  C   UNL     1       6.112   5.120  17.653  0.00  0.00    +0.000 A 
ATOM      9  S   UNL     1       6.771   6.650  17.274  0.00  0.00    +0.000 S 
ATOM     10  H   UNL     1      10.441   9.169  19.292  0.00  0.00    +0.000 HD
ATOM     11  H   UNL     1       9.140   7.340  19.895  0.00  0.00    +0.000 HD
ENDROOT
BRANCH   1  16
ATOM     12  C   UNL     1       9.974  15.269  17.988  0.00  0.00    +0.000 C 
ATOM     13  C   UNL     1       9.861  13.797  18.250  0.00  0.00    +0.000 A 
ATOM     14  C   UNL     1      10.467  12.886  17.390  0.00  0.00    +0.000 A 
ATOM     15  C   UNL     1      10.357  11.516  17.623  0.00  0.00    +0.000 A 
ATOM     16  C   UNL     1       9.663  11.018  18.733  0.00  0.00    +0.000 A 
ATOM     17  C   UNL     1       9.030  11.930  19.583  0.00  0.00    +0.000 A 
ATOM     18  C   UNL     1       9.137  13.311  19.346  0.00  0.00    +0.000 A 
ENDBRANCH   1  16
BRANCH   8  19
ATOM     19  C   UNL     1       5.162   4.465  16.701  0.00  0.00    +0.000 C 
BRANCH  19  20
ATOM     20  C   UNL     1       3.891   3.926  17.324  0.00  0.00    +0.000 A 
ATOM     21  C   UNL     1       2.835   4.786  17.674  0.00  0.00    +0.000 A 
ATOM     22  C   UNL     1       1.637   4.270  18.176  0.00  0.00    +0.000 A 
ATOM     23  C   UNL     1       1.497   2.897  18.335  0.00  0.00    +0.000 A 
ATOM     24  F   UNL     1       0.339   2.400  18.793  0.00  0.00    +0.000 F 
ATOM     25  C   UNL     1       2.535   2.031  18.015  0.00  0.00    +0.000 A 
ATOM     26  C   UNL     1       3.734   2.545  17.518  0.00  0.00    +0.000 A 
ENDBRANCH  19  20
ENDBRANCH   8  19
TORSDOF 3
ENDMDL
MODEL 2
REMARK VINA RESULT:      -9.0      0.146      1.396
REMARK  Name = 
REMARK  4 active torsions:
REMARK  status: ('A' for Active; 'I' for Inactive)
REMARK    1  A    between atoms: C_1  and  C_2
REMARK    2  A    between atoms: C_5  and  N_6
REMARK    3  A    between atoms: C_13  and  C_14
REMARK    4  A    between atoms: C_14  and  C_15
REMARK                            x       y       z     vdW  Elec       q    Type
REMARK                         _______ _______ _______ _____ _____    ______ ____
ROOT
ATOM      1  N   UNL     1       9.567   9.620  19.052  0.00  0.00    +0.000 N 
ATOM      2  C   UNL     1       8.535   8.809  18.598  0.00  0.00    +0.000 C 
ATOM      3  O   UNL     1       7.661   9.210  17.837  0.00  0.00    +0.000 OA
ATOM      4  N   UNL     1       8.600   7.521  19.082  0.00  0.00    +0.000 N 
ATOM      5  C   UNL     1       7.712   6.530  18.705  0.00  0.00    +0.000 A 
ATOM      6  N   UNL     1       7.545   5.400  19.360  0.00  0.00    +0.000 NA
ATOM      7  N   UNL     1       6.607   4.572  18.749  0.00  0.00    +0.000 NA
ATOM      8  C   UNL     1       6.129   5.099  17.637  0.00  0.00    +0.000 A 
ATOM      9  S   UNL     1       6.796   6.627  17.265  0.00  0.00    +0.000 S 
ATOM     10  H   UNL     1      10.419   9.160  19.350  0.00  0.00    +0.000 HD
ATOM     11  H   UNL     1       9.105   7.335  19.933  0.00  0.00    +0.000 HD
ENDROOT
BRANCH   1  16
ATOM     12  C   UNL     1       9.858  15.209  17.754  0.00  0.00    +0.000 C 
ATOM     13  C   UNL     1       9.793  13.752  18.100  0.00  0.00    +0.000 A 
ATOM     14  C   UNL     1       8.994  13.320  19.156  0.00  0.00    +0.000 A 
ATOM     15  C   UNL     1       8.937  11.967  19.488  0.00  0.00    +0.000 A 
ATOM     16  C   UNL     1       9.652  11.006  18.763  0.00  0.00    +0.000 A 
ATOM     17  C   UNL     1      10.476  11.441  17.721  0.00  0.00    +0.000 A 
ATOM     18  C   UNL     1      10.538  12.804  17.387  0.00  0.00    +0.000 A 
ENDBRANCH   1  16
BRANCH   8  19
ATOM     19  C   UNL     1       5.202   4.438  16.668  0.00  0.00    +0.000 C 
BRANCH  19  20
ATOM     20  C   UNL     1       3.899   3.940  17.258  0.00  0.00    +0.000 A 
ATOM     21  C   UNL     1       3.682   2.568  17.481  0.00  0.00    +0.000 A 
ATOM     22  C   UNL     1       2.507   2.128  18.097  0.00  0.00    +0.000 A 
ATOM     23  C   UNL     1       1.548   3.054  18.485  0.00  0.00    +0.000 A 
ATOM     24  F   UNL     1       0.432   2.634  19.098  0.00  0.00    +0.000 F 
ATOM     25  C   UNL     1       1.733   4.412  18.255  0.00  0.00    +0.000 A 
ATOM     26  C   UNL     1       2.903   4.854  17.635  0.00  0.00    +0.000 A 
ENDBRANCH  19  20
ENDBRANCH   8  19
TORSDOF 3
ENDMDL
MODEL 3
REMARK VINA RESULT:      -7.9      7.873     10.259
REMARK  Name = 
REMARK  4 active torsions:
REMARK  status: ('A' for Active; 'I' for Inactive)
REMARK    1  A    between atoms: C_1  and  C_2
REMARK    2  A    between atoms: C_5  and  N_6
REMARK    3  A    between atoms: C_13  and  C_14
REMARK    4  A    between atoms: C_14  and  C_15
REMARK                            x       y       z     vdW  Elec       q    Type
REMARK                         _______ _______ _______ _____ _____    ______ ____
ROOT
ATOM      1  N   UNL     1       2.888   6.205  19.823  0.00  0.00    +0.000 N 
ATOM      2  C   UNL     1       2.235   7.427  19.924  0.00  0.00    +0.000 C 
ATOM      3  O   UNL     1       2.046   8.161  18.961  0.00  0.00    +0.000 OA
ATOM      4  N   UNL     1       1.819   7.719  21.205  0.00  0.00    +0.000 N 
ATOM      5  C   UNL     1       1.090   8.851  21.520  0.00  0.00    +0.000 A 
ATOM      6  N   UNL     1       0.945   9.319  22.741  0.00  0.00    +0.000 NA
ATOM      7  N   UNL     1       0.143  10.457  22.776  0.00  0.00    +0.000 NA
ATOM      8  C   UNL     1      -0.314  10.779  21.580  0.00  0.00    +0.000 A 
ATOM      9  S   UNL     1       0.200   9.717  20.345  0.00  0.00    +0.000 S 
ATOM     10  H   UNL     1       2.686   5.512  20.533  0.00  0.00    +0.000 HD
ATOM     11  H   UNL     1       2.274   7.277  21.988  0.00  0.00    +0.000 HD
ENDROOT
BRANCH   1  16
ATOM     12  C   UNL     1       5.435   4.346  15.020  0.00  0.00    +0.000 C 
ATOM     13  C   UNL     1       4.760   4.836  16.267  0.00  0.00    +0.000 A 
ATOM     14  C   UNL     1       3.968   3.971  17.018  0.00  0.00    +0.000 A 
ATOM     15  C   UNL     1       3.330   4.424  18.172  0.00  0.00    +0.000 A 
ATOM     16  C   UNL     1       3.486   5.740  18.624  0.00  0.00    +0.000 A 
ATOM     17  C   UNL     1       4.259   6.617  17.857  0.00  0.00    +0.000 A 
ATOM     18  C   UNL     1       4.898   6.163  16.691  0.00  0.00    +0.000 A 
ENDBRANCH   1  16
BRANCH   8  19
ATOM     19  C   UNL     1      -1.295  11.863  21.266  0.00  0.00    +0.000 C 
BRANCH  19  20
ATOM     20  C   UNL     1      -1.799  12.645  22.462  0.00  0.00    +0.000 A 
ATOM     21  C   UNL     1      -1.094  13.761  22.946  0.00  0.00    +0.000 A 
ATOM     22  C   UNL     1      -1.609  14.521  24.001  0.00  0.00    +0.000 A 
ATOM     23  C   UNL     1      -2.822  14.162  24.575  0.00  0.00    +0.000 A 
ATOM     24  F   UNL     1      -3.328  14.905  25.570  0.00  0.00    +0.000 F 
ATOM     25  C   UNL     1      -3.524  13.051  24.125  0.00  0.00    +0.000 A 
ATOM     26  C   UNL     1      -3.009  12.288  23.075  0.00  0.00    +0.000 A 
ENDBRANCH  19  20
ENDBRANCH   8  19
TORSDOF 3
ENDMDL
MODEL 4
REMARK VINA RESULT:      -7.8      7.864     10.308
REMARK  Name = 
REMARK  4 active torsions:
REMARK  status: ('A' for Active; 'I' for Inactive)
REMARK    1  A    between atoms: C_1  and  C_2
REMARK    2  A    between atoms: C_5  and  N_6
REMARK    3  A    between atoms: C_13  and  C_14
REMARK    4  A    between atoms: C_14  and  C_15
REMARK                            x       y       z     vdW  Elec       q    Type
REMARK                         _______ _______ _______ _____ _____    ______ ____
ROOT
ATOM      1  N   UNL     1       2.813   6.114  20.064  0.00  0.00    +0.000 N 
ATOM      2  C   UNL     1       2.218   7.368  20.110  0.00  0.00    +0.000 C 
ATOM      3  O   UNL     1       2.136   8.102  19.132  0.00  0.00    +0.000 OA
ATOM      4  N   UNL     1       1.727   7.692  21.356  0.00  0.00    +0.000 N 
ATOM      5  C   UNL     1       1.035   8.863  21.611  0.00  0.00    +0.000 A 
ATOM      6  N   UNL     1       0.827   9.349  22.816  0.00  0.00    +0.000 NA
ATOM      7  N   UNL     1       0.084  10.526  22.787  0.00  0.00    +0.000 NA
ATOM      8  C   UNL     1      -0.269  10.859  21.559  0.00  0.00    +0.000 A 
ATOM      9  S   UNL     1       0.277   9.761  20.370  0.00  0.00    +0.000 S 
ATOM     10  H   UNL     1       2.525   5.439  20.761  0.00  0.00    +0.000 HD
ATOM     11  H   UNL     1       2.101   7.236  22.172  0.00  0.00    +0.000 HD
ENDROOT
BRANCH   1  16
ATOM     12  C   UNL     1       5.367   4.101  15.327  0.00  0.00    +0.000 C 
ATOM     13  C   UNL     1       4.707   4.618  16.570  0.00  0.00    +0.000 A 
ATOM     14  C   UNL     1       5.279   5.671  17.279  0.00  0.00    +0.000 A 
ATOM     15  C   UNL     1       4.674   6.148  18.441  0.00  0.00    +0.000 A 
ATOM     16  C   UNL     1       3.471   5.608  18.913  0.00  0.00    +0.000 A 
ATOM     17  C   UNL     1       2.910   4.533  18.218  0.00  0.00    +0.000 A 
ATOM     18  C   UNL     1       3.521   4.048  17.049  0.00  0.00    +0.000 A 
ENDBRANCH   1  16
BRANCH   8  19
ATOM     19  C   UNL     1      -1.169  11.989  21.169  0.00  0.00    +0.000 C 
BRANCH  19  20
ATOM     20  C   UNL     1      -1.764  12.769  22.323  0.00  0.00    +0.000 A 
ATOM     21  C   UNL     1      -2.996  12.397  22.891  0.00  0.00    +0.000 A 
ATOM     22  C   UNL     1      -3.497  13.077  24.004  0.00  0.00    +0.000 A 
ATOM     23  C   UNL     1      -2.772  14.131  24.547  0.00  0.00    +0.000 A 
ATOM     24  F   UNL     1      -3.241  14.767  25.630  0.00  0.00    +0.000 F 
ATOM     25  C   UNL     1      -1.563  14.527  23.989  0.00  0.00    +0.000 A 
ATOM     26  C   UNL     1      -1.063  13.853  22.874  0.00  0.00    +0.000 A 
ENDBRANCH  19  20
ENDBRANCH   8  19
TORSDOF 3
ENDMDL
MODEL 5
REMARK VINA RESULT:      -7.7      8.036     10.518
REMARK  Name = 
REMARK  4 active torsions:
REMARK  status: ('A' for Active; 'I' for Inactive)
REMARK    1  A    between atoms: C_1  and  C_2
REMARK    2  A    between atoms: C_5  and  N_6
REMARK    3  A    between atoms: C_13  and  C_14
REMARK    4  A    between atoms: C_14  and  C_15
REMARK                            x       y       z     vdW  Elec       q    Type
REMARK                         _______ _______ _______ _____ _____    ______ ____
ROOT
ATOM      1  N   UNL     1       2.590   6.103  20.343  0.00  0.00    +0.000 N 
ATOM      2  C   UNL     1       2.015   7.368  20.365  0.00  0.00    +0.000 C 
ATOM      3  O   UNL     1       1.956   8.088  19.374  0.00  0.00    +0.000 OA
ATOM      4  N   UNL     1       1.517   7.719  21.600  0.00  0.00    +0.000 N 
ATOM      5  C   UNL     1       0.844   8.905  21.830  0.00  0.00    +0.000 A 
ATOM      6  N   UNL     1       0.631   9.414  23.026  0.00  0.00    +0.000 NA
ATOM      7  N   UNL     1      -0.091  10.603  22.971  0.00  0.00    +0.000 NA
ATOM      8  C   UNL     1      -0.426  10.923  21.735  0.00  0.00    +0.000 A 
ATOM      9  S   UNL     1       0.113   9.797  20.568  0.00  0.00    +0.000 S 
ATOM     10  H   UNL     1       2.283   5.444  21.048  0.00  0.00    +0.000 HD
ATOM     11  H   UNL     1       1.876   7.269  22.427  0.00  0.00    +0.000 HD
ENDROOT
BRANCH   1  16
ATOM     12  C   UNL     1       5.346   3.864  15.827  0.00  0.00    +0.000 C 
ATOM     13  C   UNL     1       4.624   4.460  16.999  0.00  0.00    +0.000 A 
ATOM     14  C   UNL     1       3.262   4.226  17.173  0.00  0.00    +0.000 A 
ATOM     15  C   UNL     1       2.585   4.785  18.255  0.00  0.00    +0.000 A 
ATOM     16  C   UNL     1       3.250   5.569  19.207  0.00  0.00    +0.000 A 
ATOM     17  C   UNL     1       4.611   5.827  19.019  0.00  0.00    +0.000 A 
ATOM     18  C   UNL     1       5.293   5.268  17.926  0.00  0.00    +0.000 A 
ENDBRANCH   1  16
BRANCH   8  19
ATOM     19  C   UNL     1      -1.302  12.061  21.319  0.00  0.00    +0.000 C 
BRANCH  19  20
ATOM     20  C   UNL     1      -1.849  12.904  22.452  0.00  0.00    +0.000 A 
ATOM     21  C   UNL     1      -3.094  12.612  23.037  0.00  0.00    +0.000 A 
ATOM     22  C   UNL     1      -3.552  13.349  24.133  0.00  0.00    +0.000 A 
ATOM     23  C   UNL     1      -2.771  14.380  24.640  0.00  0.00    +0.000 A 
ATOM     24  F   UNL     1      -3.200  15.070  25.707  0.00  0.00    +0.000 F 
ATOM     25  C   UNL     1      -1.548  14.698  24.064  0.00  0.00    +0.000 A 
ATOM     26  C   UNL     1      -1.090  13.967  22.966  0.00  0.00    +0.000 A 
ENDBRANCH  19  20
ENDBRANCH   8  19
TORSDOF 3
ENDMDL
MODEL 6
REMARK VINA RESULT:      -7.7      8.103     10.543
REMARK  Name = 
REMARK  4 active torsions:
REMARK  status: ('A' for Active; 'I' for Inactive)
REMARK    1  A    between atoms: C_1  and  C_2
REMARK    2  A    between atoms: C_5  and  N_6
REMARK    3  A    between atoms: C_13  and  C_14
REMARK    4  A    between atoms: C_14  and  C_15
REMARK                            x       y       z     vdW  Elec       q    Type
REMARK                         _______ _______ _______ _____ _____    ______ ____
ROOT
ATOM      1  N   UNL     1       2.600   6.128  20.394  0.00  0.00    +0.000 N 
ATOM      2  C   UNL     1       2.011   7.386  20.429  0.00  0.00    +0.000 C 
ATOM      3  O   UNL     1       1.933   8.111  19.444  0.00  0.00    +0.000 OA
ATOM      4  N   UNL     1       1.521   7.724  21.671  0.00  0.00    +0.000 N 
ATOM      5  C   UNL     1       0.836   8.900  21.916  0.00  0.00    +0.000 A 
ATOM      6  N   UNL     1       0.629   9.399  23.116  0.00  0.00    +0.000 NA
ATOM      7  N   UNL     1      -0.108  10.579  23.075  0.00  0.00    +0.000 NA
ATOM      8  C   UNL     1      -0.459  10.903  21.845  0.00  0.00    +0.000 A 
ATOM      9  S   UNL     1       0.082   9.791  20.666  0.00  0.00    +0.000 S 
ATOM     10  H   UNL     1       2.308   5.461  21.098  0.00  0.00    +0.000 HD
ATOM     11  H   UNL     1       1.893   7.273  22.492  0.00  0.00    +0.000 HD
ENDROOT
BRANCH   1  16
ATOM     12  C   UNL     1       5.168   4.095  15.674  0.00  0.00    +0.000 C 
ATOM     13  C   UNL     1       4.501   4.615  16.912  0.00  0.00    +0.000 A 
ATOM     14  C   UNL     1       5.214   5.402  17.813  0.00  0.00    +0.000 A 
ATOM     15  C   UNL     1       4.602   5.880  18.970  0.00  0.00    +0.000 A 
ATOM     16  C   UNL     1       3.256   5.609  19.249  0.00  0.00    +0.000 A 
ATOM     17  C   UNL     1       2.546   4.796  18.361  0.00  0.00    +0.000 A 
ATOM     18  C   UNL     1       3.164   4.310  17.196  0.00  0.00    +0.000 A 
ENDBRANCH   1  16
BRANCH   8  19
ATOM     19  C   UNL     1      -1.353  12.033  21.444  0.00  0.00    +0.000 C 
BRANCH  19  20
ATOM     20  C   UNL     1      -1.873  12.882  22.586  0.00  0.00    +0.000 A 
ATOM     21  C   UNL     1      -1.107  13.938  23.111  0.00  0.00    +0.000 A 
ATOM     22  C   UNL     1      -1.630  14.762  24.112  0.00  0.00    +0.000 A 
ATOM     23  C   UNL     1      -2.913  14.528  24.591  0.00  0.00    +0.000 A 
ATOM     24  F   UNL     1      -3.423  15.335  25.534  0.00  0.00    +0.000 F 
ATOM     25  C   UNL     1      -3.678  13.478  24.101  0.00  0.00    +0.000 A 
ATOM     26  C   UNL     1      -3.156  12.650  23.105  0.00  0.00    +0.000 A 
ENDBRANCH  19  20
ENDBRANCH   8  19
TORSDOF 3
ENDMDL
MODEL 7
REMARK VINA RESULT:      -7.7      7.661     10.200
REMARK  Name = 
REMARK  4 active torsions:
REMARK  status: ('A' for Active; 'I' for Inactive)
REMARK    1  A    between atoms: C_1  and  C_2
REMARK    2  A    between atoms: C_5  and  N_6
REMARK    3  A    between atoms: C_13  and  C_14
REMARK    4  A    between atoms: C_14  and  C_15
REMARK                            x       y       z     vdW  Elec       q    Type
REMARK                         _______ _______ _______ _____ _____    ______ ____
ROOT
ATOM      1  N   UNL     1       2.209   6.305  20.549  0.00  0.00    +0.000 N 
ATOM      2  C   UNL     1       1.788   7.628  20.505  0.00  0.00    +0.000 C 
ATOM      3  O   UNL     1       1.903   8.329  19.506  0.00  0.00    +0.000 OA
ATOM      4  N   UNL     1       1.226   8.061  21.686  0.00  0.00    +0.000 N 
ATOM      5  C   UNL     1       0.679   9.322  21.841  0.00  0.00    +0.000 A 
ATOM      6  N   UNL     1       0.421   9.876  23.007  0.00  0.00    +0.000 NA
ATOM      7  N   UNL     1      -0.148  11.139  22.874  0.00  0.00    +0.000 NA
ATOM      8  C   UNL     1      -0.330  11.471  21.610  0.00  0.00    +0.000 A 
ATOM      9  S   UNL     1       0.175  10.267  20.509  0.00  0.00    +0.000 S 
ATOM     10  H   UNL     1       1.764   5.701  21.228  0.00  0.00    +0.000 HD
ATOM     11  H   UNL     1       1.452   7.589  22.547  0.00  0.00    +0.000 HD
ENDROOT
BRANCH   1  16
ATOM     12  C   UNL     1       4.946   3.830  16.145  0.00  0.00    +0.000 C 
ATOM     13  C   UNL     1       4.232   4.465  17.301  0.00  0.00    +0.000 A 
ATOM     14  C   UNL     1       4.952   5.151  18.276  0.00  0.00    +0.000 A 
ATOM     15  C   UNL     1       4.295   5.735  19.357  0.00  0.00    +0.000 A 
ATOM     16  C   UNL     1       2.901   5.674  19.484  0.00  0.00    +0.000 A 
ATOM     17  C   UNL     1       2.179   4.962  18.521  0.00  0.00    +0.000 A 
ATOM     18  C   UNL     1       2.842   4.370  17.433  0.00  0.00    +0.000 A 
ENDBRANCH   1  16
BRANCH   8  19
ATOM     19  C   UNL     1      -1.024  12.695  21.103  0.00  0.00    +0.000 C 
BRANCH  19  20
ATOM     20  C   UNL     1      -2.535  12.601  21.041  0.00  0.00    +0.000 A 
ATOM     21  C   UNL     1      -3.318  12.725  22.203  0.00  0.00    +0.000 A 
ATOM     22  C   UNL     1      -4.713  12.714  22.121  0.00  0.00    +0.000 A 
ATOM     23  C   UNL     1      -5.326  12.574  20.883  0.00  0.00    +0.000 A 
ATOM     24  F   UNL     1      -6.664  12.589  20.802  0.00  0.00    +0.000 F 
ATOM     25  C   UNL     1      -4.571  12.429  19.725  0.00  0.00    +0.000 A 
ATOM     26  C   UNL     1      -3.177  12.435  19.804  0.00  0.00    +0.000 A 
ENDBRANCH  19  20
ENDBRANCH   8  19
TORSDOF 3
ENDMDL
MODEL 8
REMARK VINA RESULT:      -7.6      7.719      8.769
REMARK  Name = 
REMARK  4 active torsions:
REMARK  status: ('A' for Active; 'I' for Inactive)
REMARK    1  A    between atoms: C_1  and  C_2
REMARK    2  A    between atoms: C_5  and  N_6
REMARK    3  A    between atoms: C_13  and  C_14
REMARK    4  A    between atoms: C_14  and  C_15
REMARK                            x       y       z     vdW  Elec       q    Type
REMARK                         _______ _______ _______ _____ _____    ______ ____
ROOT
ATOM      1  N   UNL     1      -1.356  12.073  20.710  0.00  0.00    +0.000 N 
ATOM      2  C   UNL     1      -0.335  11.134  20.641  0.00  0.00    +0.000 C 
ATOM      3  O   UNL     1       0.294  10.763  21.626  0.00  0.00    +0.000 OA
ATOM      4  N   UNL     1      -0.112  10.664  19.366  0.00  0.00    +0.000 N 
ATOM      5  C   UNL     1       0.811   9.675  19.079  0.00  0.00    +0.000 A 
ATOM      6  N   UNL     1       1.271   9.421  17.872  0.00  0.00    +0.000 NA
ATOM      7  N   UNL     1       2.171   8.359  17.865  0.00  0.00    +0.000 NA
ATOM      8  C   UNL     1       2.326   7.832  19.065  0.00  0.00    +0.000 A 
ATOM      9  S   UNL     1       1.384   8.590  20.271  0.00  0.00    +0.000 S 
ATOM     10  H   UNL     1      -2.053  12.054  19.975  0.00  0.00    +0.000 HD
ATOM     11  H   UNL     1      -0.398  11.218  18.574  0.00  0.00    +0.000 HD
ENDROOT
BRANCH   1  16
ATOM     12  C   UNL     1      -2.764  14.986  25.458  0.00  0.00    +0.000 C 
ATOM     13  C   UNL     1      -2.389  14.218  24.226  0.00  0.00    +0.000 A 
ATOM     14  C   UNL     1      -3.143  13.116  23.832  0.00  0.00    +0.000 A 
ATOM     15  C   UNL     1      -2.793  12.394  22.692  0.00  0.00    +0.000 A 
ATOM     16  C   UNL     1      -1.698  12.764  21.901  0.00  0.00    +0.000 A 
ATOM     17  C   UNL     1      -0.923  13.853  22.310  0.00  0.00    +0.000 A 
ATOM     18  C   UNL     1      -1.273  14.579  23.460  0.00  0.00    +0.000 A 
ENDBRANCH   1  16
BRANCH   8  19
ATOM     19  C   UNL     1       3.117   6.608  19.402  0.00  0.00    +0.000 C 
BRANCH  19  20
ATOM     20  C   UNL     1       2.386   5.294  19.215  0.00  0.00    +0.000 A 
ATOM     21  C   UNL     1       1.636   4.727  20.261  0.00  0.00    +0.000 A 
ATOM     22  C   UNL     1       0.903   3.556  20.052  0.00  0.00    +0.000 A 
ATOM     23  C   UNL     1       0.925   2.947  18.804  0.00  0.00    +0.000 A 
ATOM     24  F   UNL     1       0.203   1.836  18.598  0.00  0.00    +0.000 F 
ATOM     25  C   UNL     1       1.676   3.479  17.764  0.00  0.00    +0.000 A 
ATOM     26  C   UNL     1       2.413   4.646  17.970  0.00  0.00    +0.000 A 
ENDBRANCH  19  20
ENDBRANCH   8  19
TORSDOF 3
ENDMDL
MODEL 9
REMARK VINA RESULT:      -7.6      7.704     10.247
REMARK  Name = 
REMARK  4 active torsions:
REMARK  status: ('A' for Active; 'I' for Inactive)
REMARK    1  A    between atoms: C_1  and  C_2
REMARK    2  A    between atoms: C_5  and  N_6
REMARK    3  A    between atoms: C_13  and  C_14
REMARK    4  A    between atoms: C_14  and  C_15
REMARK                            x       y       z     vdW  Elec       q    Type
REMARK                         _______ _______ _______ _____ _____    ______ ____
ROOT
ATOM      1  N   UNL     1       2.224   6.255  20.554  0.00  0.00    +0.000 N 
ATOM      2  C   UNL     1       1.828   7.585  20.498  0.00  0.00    +0.000 C 
ATOM      3  O   UNL     1       1.983   8.284  19.503  0.00  0.00    +0.000 OA
ATOM      4  N   UNL     1       1.242   8.028  21.664  0.00  0.00    +0.000 N 
ATOM      5  C   UNL     1       0.713   9.299  21.805  0.00  0.00    +0.000 A 
ATOM      6  N   UNL     1       0.434   9.858  22.963  0.00  0.00    +0.000 NA
ATOM      7  N   UNL     1      -0.109  11.131  22.815  0.00  0.00    +0.000 NA
ATOM      8  C   UNL     1      -0.251  11.465  21.546  0.00  0.00    +0.000 A 
ATOM      9  S   UNL     1       0.262  10.252  20.459  0.00  0.00    +0.000 S 
ATOM     10  H   UNL     1       1.751   5.659  21.221  0.00  0.00    +0.000 HD
ATOM     11  H   UNL     1       1.437   7.553  22.531  0.00  0.00    +0.000 HD
ENDROOT
BRANCH   1  16
ATOM     12  C   UNL     1       5.036   3.732  16.225  0.00  0.00    +0.000 C 
ATOM     13  C   UNL     1       4.302   4.379  17.361  0.00  0.00    +0.000 A 
ATOM     14  C   UNL     1       5.008   5.046  18.359  0.00  0.00    +0.000 A 
ATOM     15  C   UNL     1       4.331   5.641  19.423  0.00  0.00    +0.000 A 
ATOM     16  C   UNL     1       2.934   5.611  19.507  0.00  0.00    +0.000 A 
ATOM     17  C   UNL     1       2.225   4.918  18.522  0.00  0.00    +0.000 A 
ATOM     18  C   UNL     1       2.906   4.315  17.452  0.00  0.00    +0.000 A 
ENDBRANCH   1  16
BRANCH   8  19
ATOM     19  C   UNL     1      -0.910  12.701  21.021  0.00  0.00    +0.000 C 
BRANCH  19  20
ATOM     20  C   UNL     1      -2.416  12.748  21.183  0.00  0.00    +0.000 A 
ATOM     21  C   UNL     1      -3.269  12.602  20.075  0.00  0.00    +0.000 A 
ATOM     22  C   UNL     1      -4.655  12.570  20.247  0.00  0.00    +0.000 A 
ATOM     23  C   UNL     1      -5.190  12.690  21.523  0.00  0.00    +0.000 A 
ATOM     24  F   UNL     1      -6.519  12.634  21.691  0.00  0.00    +0.000 F 
ATOM     25  C   UNL     1      -4.366  12.856  22.629  0.00  0.00    +0.000 A 
ATOM     26  C   UNL     1      -2.981  12.894  22.460  0.00  0.00    +0.000 A 
ENDBRANCH  19  20
ENDBRANCH   8  19
TORSDOF 3
ENDMDL
