MODEL 1
REMARK VINA RESULT:      -7.3      0.000      0.000
REMARK  Name = 
REMARK  8 active torsions:
REMARK  status: ('A' for Active; 'I' for Inactive)
REMARK    1  A    between atoms: C_1  and  C_2
REMARK    2  A    between atoms: C_2  and  C_3
REMARK    3  A    between atoms: C_6  and  O_7
REMARK    4  A    between atoms: C_8  and  C_9
REMARK    5  A    between atoms: N_11  and  C_12
REMARK    6  A    between atoms: C_12  and  C_13
REMARK    7  A    between atoms: C_12  and  C_14
REMARK    8  A    between atoms: C_14  and  N_15
REMARK                            x       y       z     vdW  Elec       q    Type
REMARK                         _______ _______ _______ _____ _____    ______ ____
ROOT
ATOM      1  C   UNL     1       5.446   4.360  16.406  0.00  0.00    +0.000 C 
ATOM      2  O   UNL     1       6.171   4.243  17.390  0.00  0.00    +0.000 OA
ATOM      3  N   UNL     1       4.078   4.485  16.514  0.00  0.00    +0.000 N 
ATOM      4  H   UNL     1       3.553   4.607  15.652  0.00  0.00    +0.000 HD
ENDROOT
BRANCH   1   9
ATOM      5  C   UNL     1       5.889   3.476  12.744  0.00  0.00    +0.000 A 
ATOM      6  C   UNL     1       6.986   4.263  12.380  0.00  0.00    +0.000 A 
ATOM      7  C   UNL     1       7.602   5.094  13.315  0.00  0.00    +0.000 A 
ATOM      8  C   UNL     1       7.128   5.147  14.629  0.00  0.00    +0.000 A 
ATOM      9  C   UNL     1       6.033   4.363  15.024  0.00  0.00    +0.000 A 
ATOM     10  C   UNL     1       5.423   3.531  14.068  0.00  0.00    +0.000 A 
BRANCH   5  12
ATOM     11  C   UNL     1       3.937   3.314  11.183  0.00  0.00    +0.000 C 
ATOM     12  C   UNL     1       5.186   2.626  11.715  0.00  0.00    +0.000 C 
ENDBRANCH   5  12
BRANCH   8  13
ATOM     13  O   UNL     1       7.757   5.983  15.517  0.00  0.00    +0.000 OA
ATOM     14  H   UNL     1       8.683   5.697  15.613  0.00  0.00    +0.000 HD
ENDBRANCH   8  13
ENDBRANCH   1   9
BRANCH   3  15
ATOM     15  C   UNL     1       3.389   4.505  17.803  0.00  0.00    +0.000 C 
ATOM     16  C   UNL     1       2.481   5.733  17.891  0.00  0.00    +0.000 C 
BRANCH  15  17
ATOM     17  C   UNL     1       2.580   3.223  18.045  0.00  0.00    +0.000 C 
BRANCH  17  18
ATOM     18  N   UNL     1       2.263   3.005  19.442  0.00  0.00    +0.000 N 
ATOM     19  C   UNL     1       1.037   2.877  20.015  0.00  0.00    +0.000 A 
ATOM     20  N   UNL     1       1.172   2.719  21.312  0.00  0.00    +0.000 NA
ATOM     21  C   UNL     1       2.527   2.744  21.482  0.00  0.00    +0.000 A 
ATOM     22  N   UNL     1       3.241   2.886  20.362  0.00  0.00    +0.000 NA
ENDBRANCH  17  18
ENDBRANCH  15  17
ENDBRANCH   3  15
TORSDOF 6
ENDMDL
MODEL 2
REMARK VINA RESULT:      -7.2      0.944      1.135
REMARK  Name = 
REMARK  8 active torsions:
REMARK  status: ('A' for Active; 'I' for Inactive)
REMARK    1  A    between atoms: C_1  and  C_2
REMARK    2  A    between atoms: C_2  and  C_3
REMARK    3  A    between atoms: C_6  and  O_7
REMARK    4  A    between atoms: C_8  and  C_9
REMARK    5  A    between atoms: N_11  and  C_12
REMARK    6  A    between atoms: C_12  and  C_13
REMARK    7  A    between atoms: C_12  and  C_14
REMARK    8  A    between atoms: C_14  and  N_15
REMARK                            x       y       z     vdW  Elec       q    Type
REMARK                         _______ _______ _______ _____ _____    ______ ____
ROOT
ATOM      1  C   UNL     1       5.023   4.810  15.931  0.00  0.00    +0.000 C 
ATOM      2  O   UNL     1       4.893   5.957  16.348  0.00  0.00    +0.000 OA
ATOM      3  N   UNL     1       4.519   3.722  16.609  0.00  0.00    +0.000 N 
ATOM      4  H   UNL     1       4.644   2.809  16.180  0.00  0.00    +0.000 HD
ENDROOT
BRANCH   1   9
ATOM      5  C   UNL     1       5.694   3.472  12.446  0.00  0.00    +0.000 A 
ATOM      6  C   UNL     1       6.973   3.969  12.178  0.00  0.00    +0.000 A 
ATOM      7  C   UNL     1       7.642   4.748  13.123  0.00  0.00    +0.000 A 
ATOM      8  C   UNL     1       7.037   5.037  14.350  0.00  0.00    +0.000 A 
ATOM      9  C   UNL     1       5.757   4.546  14.648  0.00  0.00    +0.000 A 
ATOM     10  C   UNL     1       5.097   3.763  13.684  0.00  0.00    +0.000 A 
BRANCH   5  12
ATOM     11  C   UNL     1       3.704   3.422  10.925  0.00  0.00    +0.000 C 
ATOM     12  C   UNL     1       4.948   2.684  11.398  0.00  0.00    +0.000 C 
ENDBRANCH   5  12
BRANCH   8  13
ATOM     13  O   UNL     1       7.725   5.812  15.250  0.00  0.00    +0.000 OA
ATOM     14  H   UNL     1       8.675   5.766  15.041  0.00  0.00    +0.000 HD
ENDBRANCH   8  13
ENDBRANCH   1   9
BRANCH   3  15
ATOM     15  C   UNL     1       3.778   3.850  17.862  0.00  0.00    +0.000 C 
ATOM     16  C   UNL     1       2.606   4.817  17.680  0.00  0.00    +0.000 C 
BRANCH  15  17
ATOM     17  C   UNL     1       3.278   2.494  18.378  0.00  0.00    +0.000 C 
BRANCH  17  18
ATOM     18  N   UNL     1       2.773   2.552  19.735  0.00  0.00    +0.000 N 
ATOM     19  C   UNL     1       3.479   2.689  20.889  0.00  0.00    +0.000 A 
ATOM     20  N   UNL     1       2.655   2.670  21.912  0.00  0.00    +0.000 NA
ATOM     21  C   UNL     1       1.434   2.531  21.318  0.00  0.00    +0.000 A 
ATOM     22  N   UNL     1       1.450   2.485  19.983  0.00  0.00    +0.000 NA
ENDBRANCH  17  18
ENDBRANCH  15  17
ENDBRANCH   3  15
TORSDOF 6
ENDMDL
MODEL 3
REMARK VINA RESULT:      -7.1      2.912      6.666
REMARK  Name = 
REMARK  8 active torsions:
REMARK  status: ('A' for Active; 'I' for Inactive)
REMARK    1  A    between atoms: C_1  and  C_2
REMARK    2  A    between atoms: C_2  and  C_3
REMARK    3  A    between atoms: C_6  and  O_7
REMARK    4  A    between atoms: C_8  and  C_9
REMARK    5  A    between atoms: N_11  and  C_12
REMARK    6  A    between atoms: C_12  and  C_13
REMARK    7  A    between atoms: C_12  and  C_14
REMARK    8  A    between atoms: C_14  and  N_15
REMARK                            x       y       z     vdW  Elec       q    Type
REMARK                         _______ _______ _______ _____ _____    ______ ____
ROOT
ATOM      1  C   UNL     1       4.061   3.830  17.747  0.00  0.00    +0.000 C 
ATOM      2  O   UNL     1       4.047   2.604  17.700  0.00  0.00    +0.000 OA
ATOM      3  N   UNL     1       4.826   4.588  16.888  0.00  0.00    +0.000 N 
ATOM      4  H   UNL     1       4.758   5.599  16.974  0.00  0.00    +0.000 HD
ENDROOT
BRANCH   1   9
ATOM      5  C   UNL     1       2.276   6.711  19.452  0.00  0.00    +0.000 A 
ATOM      6  C   UNL     1       1.700   6.087  20.563  0.00  0.00    +0.000 A 
ATOM      7  C   UNL     1       1.880   4.721  20.779  0.00  0.00    +0.000 A 
ATOM      8  C   UNL     1       2.641   3.961  19.886  0.00  0.00    +0.000 A 
ATOM      9  C   UNL     1       3.237   4.563  18.766  0.00  0.00    +0.000 A 
ATOM     10  C   UNL     1       3.045   5.941  18.562  0.00  0.00    +0.000 A 
BRANCH   5  12
ATOM     11  C   UNL     1       2.290   8.529  17.729  0.00  0.00    +0.000 C 
ATOM     12  C   UNL     1       2.028   8.175  19.186  0.00  0.00    +0.000 C 
ENDBRANCH   5  12
BRANCH   8  13
ATOM     13  O   UNL     1       2.788   2.619  20.130  0.00  0.00    +0.000 OA
ATOM     14  H   UNL     1       2.122   2.132  19.613  0.00  0.00    +0.000 HD
ENDBRANCH   8  13
ENDBRANCH   1   9
BRANCH   3  15
ATOM     15  C   UNL     1       5.663   3.993  15.847  0.00  0.00    +0.000 C 
ATOM     16  C   UNL     1       5.245   4.523  14.474  0.00  0.00    +0.000 C 
BRANCH  15  17
ATOM     17  C   UNL     1       7.156   4.253  16.089  0.00  0.00    +0.000 C 
BRANCH  17  18
ATOM     18  N   UNL     1       7.406   5.142  17.206  0.00  0.00    +0.000 N 
ATOM     19  C   UNL     1       7.472   6.500  17.201  0.00  0.00    +0.000 A 
ATOM     20  N   UNL     1       7.744   6.931  18.411  0.00  0.00    +0.000 NA
ATOM     21  C   UNL     1       7.824   5.776  19.135  0.00  0.00    +0.000 A 
ATOM     22  N   UNL     1       7.593   4.654  18.448  0.00  0.00    +0.000 NA
ENDBRANCH  17  18
ENDBRANCH  15  17
ENDBRANCH   3  15
TORSDOF 6
ENDMDL
MODEL 4
REMARK VINA RESULT:      -7.1      1.489      1.632
REMARK  Name = 
REMARK  8 active torsions:
REMARK  status: ('A' for Active; 'I' for Inactive)
REMARK    1  A    between atoms: C_1  and  C_2
REMARK    2  A    between atoms: C_2  and  C_3
REMARK    3  A    between atoms: C_6  and  O_7
REMARK    4  A    between atoms: C_8  and  C_9
REMARK    5  A    between atoms: N_11  and  C_12
REMARK    6  A    between atoms: C_12  and  C_13
REMARK    7  A    between atoms: C_12  and  C_14
REMARK    8  A    between atoms: C_14  and  N_15
REMARK                            x       y       z     vdW  Elec       q    Type
REMARK                         _______ _______ _______ _____ _____    ______ ____
ROOT
ATOM      1  C   UNL     1       5.845   4.661  15.802  0.00  0.00    +0.000 C 
ATOM      2  O   UNL     1       6.549   4.222  16.707  0.00  0.00    +0.000 OA
ATOM      3  N   UNL     1       4.688   5.366  16.049  0.00  0.00    +0.000 N 
ATOM      4  H   UNL     1       4.178   5.720  15.243  0.00  0.00    +0.000 HD
ENDROOT
BRANCH   1   9
ATOM      5  C   UNL     1       5.603   3.402  12.231  0.00  0.00    +0.000 A 
ATOM      6  C   UNL     1       6.762   3.929  11.652  0.00  0.00    +0.000 A 
ATOM      7  C   UNL     1       7.643   4.702  12.409  0.00  0.00    +0.000 A 
ATOM      8  C   UNL     1       7.375   4.957  13.757  0.00  0.00    +0.000 A 
ATOM      9  C   UNL     1       6.223   4.435  14.366  0.00  0.00    +0.000 A 
ATOM     10  C   UNL     1       5.345   3.658  13.589  0.00  0.00    +0.000 A 
BRANCH   5  12
ATOM     11  C   UNL     1       3.615   3.536  10.715  0.00  0.00    +0.000 C 
ATOM     12  C   UNL     1       4.622   2.620  11.395  0.00  0.00    +0.000 C 
ENDBRANCH   5  12
BRANCH   8  13
ATOM     13  O   UNL     1       8.262   5.728  14.465  0.00  0.00    +0.000 OA
ATOM     14  H   UNL     1       8.013   6.664  14.364  0.00  0.00    +0.000 HD
ENDBRANCH   8  13
ENDBRANCH   1   9
BRANCH   3  15
ATOM     15  C   UNL     1       4.219   5.659  17.402  0.00  0.00    +0.000 C 
ATOM     16  C   UNL     1       3.867   7.144  17.522  0.00  0.00    +0.000 C 
BRANCH  15  17
ATOM     17  C   UNL     1       3.016   4.791  17.797  0.00  0.00    +0.000 C 
BRANCH  17  18
ATOM     18  N   UNL     1       3.398   3.499  18.330  0.00  0.00    +0.000 N 
ATOM     19  C   UNL     1       3.076   2.266  17.855  0.00  0.00    +0.000 A 
ATOM     20  N   UNL     1       3.594   1.346  18.636  0.00  0.00    +0.000 NA
ATOM     21  C   UNL     1       4.247   2.082  19.583  0.00  0.00    +0.000 A 
ATOM     22  N   UNL     1       4.183   3.406  19.421  0.00  0.00    +0.000 NA
ENDBRANCH  17  18
ENDBRANCH  15  17
ENDBRANCH   3  15
TORSDOF 6
ENDMDL
MODEL 5
REMARK VINA RESULT:      -7.0      1.288      1.630
REMARK  Name = 
REMARK  8 active torsions:
REMARK  status: ('A' for Active; 'I' for Inactive)
REMARK    1  A    between atoms: C_1  and  C_2
REMARK    2  A    between atoms: C_2  and  C_3
REMARK    3  A    between atoms: C_6  and  O_7
REMARK    4  A    between atoms: C_8  and  C_9
REMARK    5  A    between atoms: N_11  and  C_12
REMARK    6  A    between atoms: C_12  and  C_13
REMARK    7  A    between atoms: C_12  and  C_14
REMARK    8  A    between atoms: C_14  and  N_15
REMARK                            x       y       z     vdW  Elec       q    Type
REMARK                         _______ _______ _______ _____ _____    ______ ____
ROOT
ATOM      1  C   UNL     1       5.298   4.771  15.771  0.00  0.00    +0.000 C 
ATOM      2  O   UNL     1       4.938   5.909  16.056  0.00  0.00    +0.000 OA
ATOM      3  N   UNL     1       5.186   3.724  16.659  0.00  0.00    +0.000 N 
ATOM      4  H   UNL     1       5.480   2.805  16.334  0.00  0.00    +0.000 HD
ENDROOT
BRANCH   1   9
ATOM      5  C   UNL     1       5.580   3.373  12.256  0.00  0.00    +0.000 A 
ATOM      6  C   UNL     1       6.835   3.840  11.852  0.00  0.00    +0.000 A 
ATOM      7  C   UNL     1       7.613   4.616  12.711  0.00  0.00    +0.000 A 
ATOM      8  C   UNL     1       7.143   4.934  13.989  0.00  0.00    +0.000 A 
ATOM      9  C   UNL     1       5.891   4.474  14.424  0.00  0.00    +0.000 A 
ATOM     10  C   UNL     1       5.119   3.693  13.545  0.00  0.00    +0.000 A 
BRANCH   5  12
ATOM     11  C   UNL     1       3.579   3.438  10.752  0.00  0.00    +0.000 C 
ATOM     12  C   UNL     1       4.716   2.588  11.302  0.00  0.00    +0.000 C 
ENDBRANCH   5  12
BRANCH   8  13
ATOM     13  O   UNL     1       7.935   5.706  14.802  0.00  0.00    +0.000 OA
ATOM     14  H   UNL     1       7.654   5.577  15.726  0.00  0.00    +0.000 HD
ENDBRANCH   8  13
ENDBRANCH   1   9
BRANCH   3  15
ATOM     15  C   UNL     1       4.617   3.883  17.996  0.00  0.00    +0.000 C 
ATOM     16  C   UNL     1       5.598   4.640  18.894  0.00  0.00    +0.000 C 
BRANCH  15  17
ATOM     17  C   UNL     1       3.259   4.597  17.965  0.00  0.00    +0.000 C 
BRANCH  17  18
ATOM     18  N   UNL     1       2.189   3.812  18.546  0.00  0.00    +0.000 N 
ATOM     19  C   UNL     1       1.546   4.013  19.727  0.00  0.00    +0.000 A 
ATOM     20  N   UNL     1       0.655   3.065  19.908  0.00  0.00    +0.000 NA
ATOM     21  C   UNL     1       0.786   2.304  18.782  0.00  0.00    +0.000 A 
ATOM     22  N   UNL     1       1.692   2.738  17.901  0.00  0.00    +0.000 NA
ENDBRANCH  17  18
ENDBRANCH  15  17
ENDBRANCH   3  15
TORSDOF 6
ENDMDL
MODEL 6
REMARK VINA RESULT:      -6.9      2.725      6.611
REMARK  Name = 
REMARK  8 active torsions:
REMARK  status: ('A' for Active; 'I' for Inactive)
REMARK    1  A    between atoms: C_1  and  C_2
REMARK    2  A    between atoms: C_2  and  C_3
REMARK    3  A    between atoms: C_6  and  O_7
REMARK    4  A    between atoms: C_8  and  C_9
REMARK    5  A    between atoms: N_11  and  C_12
REMARK    6  A    between atoms: C_12  and  C_13
REMARK    7  A    between atoms: C_12  and  C_14
REMARK    8  A    between atoms: C_14  and  N_15
REMARK                            x       y       z     vdW  Elec       q    Type
REMARK                         _______ _______ _______ _____ _____    ______ ____
ROOT
ATOM      1  C   UNL     1       4.262   3.794  17.281  0.00  0.00    +0.000 C 
ATOM      2  O   UNL     1       4.451   2.586  17.378  0.00  0.00    +0.000 OA
ATOM      3  N   UNL     1       4.845   4.550  16.288  0.00  0.00    +0.000 N 
ATOM      4  H   UNL     1       4.612   5.540  16.260  0.00  0.00    +0.000 HD
ENDROOT
BRANCH   1   9
ATOM      5  C   UNL     1       1.681   4.285  20.018  0.00  0.00    +0.000 A 
ATOM      6  C   UNL     1       1.673   5.675  20.172  0.00  0.00    +0.000 A 
ATOM      7  C   UNL     1       2.504   6.479  19.391  0.00  0.00    +0.000 A 
ATOM      8  C   UNL     1       3.354   5.900  18.444  0.00  0.00    +0.000 A 
ATOM      9  C   UNL     1       3.378   4.508  18.263  0.00  0.00    +0.000 A 
ATOM     10  C   UNL     1       2.534   3.712  19.059  0.00  0.00    +0.000 A 
BRANCH   5  12
ATOM     11  C   UNL     1       1.680   2.490  21.765  0.00  0.00    +0.000 C 
ATOM     12  C   UNL     1       0.828   3.415  20.907  0.00  0.00    +0.000 C 
ENDBRANCH   5  12
BRANCH   8  13
ATOM     13  O   UNL     1       4.161   6.723  17.701  0.00  0.00    +0.000 OA
ATOM     14  H   UNL     1       3.879   7.645  17.839  0.00  0.00    +0.000 HD
ENDBRANCH   8  13
ENDBRANCH   1   9
BRANCH   3  15
ATOM     15  C   UNL     1       5.716   3.971  15.267  0.00  0.00    +0.000 C 
ATOM     16  C   UNL     1       5.298   4.466  13.881  0.00  0.00    +0.000 C 
BRANCH  15  17
ATOM     17  C   UNL     1       7.196   4.287  15.525  0.00  0.00    +0.000 C 
BRANCH  17  18
ATOM     18  N   UNL     1       7.403   5.150  16.670  0.00  0.00    +0.000 N 
ATOM     19  C   UNL     1       7.713   4.795  17.945  0.00  0.00    +0.000 A 
ATOM     20  N   UNL     1       7.789   5.870  18.695  0.00  0.00    +0.000 NA
ATOM     21  C   UNL     1       7.525   6.877  17.811  0.00  0.00    +0.000 A 
ATOM     22  N   UNL     1       7.312   6.490  16.550  0.00  0.00    +0.000 NA
ENDBRANCH  17  18
ENDBRANCH  15  17
ENDBRANCH   3  15
TORSDOF 6
ENDMDL
MODEL 7
REMARK VINA RESULT:      -6.8      1.785      2.519
REMARK  Name = 
REMARK  8 active torsions:
REMARK  status: ('A' for Active; 'I' for Inactive)
REMARK    1  A    between atoms: C_1  and  C_2
REMARK    2  A    between atoms: C_2  and  C_3
REMARK    3  A    between atoms: C_6  and  O_7
REMARK    4  A    between atoms: C_8  and  C_9
REMARK    5  A    between atoms: N_11  and  C_12
REMARK    6  A    between atoms: C_12  and  C_13
REMARK    7  A    between atoms: C_12  and  C_14
REMARK    8  A    between atoms: C_14  and  N_15
REMARK                            x       y       z     vdW  Elec       q    Type
REMARK                         _______ _______ _______ _____ _____    ______ ____
ROOT
ATOM      1  C   UNL     1       6.470   5.147  15.483  0.00  0.00    +0.000 C 
ATOM      2  O   UNL     1       6.084   6.281  15.748  0.00  0.00    +0.000 OA
ATOM      3  N   UNL     1       6.783   4.231  16.464  0.00  0.00    +0.000 N 
ATOM      4  H   UNL     1       7.068   3.303  16.159  0.00  0.00    +0.000 HD
ENDROOT
BRANCH   1   9
ATOM      5  C   UNL     1       5.678   3.419  12.201  0.00  0.00    +0.000 A 
ATOM      6  C   UNL     1       6.748   3.814  11.392  0.00  0.00    +0.000 A 
ATOM      7  C   UNL     1       7.746   4.648  11.896  0.00  0.00    +0.000 A 
ATOM      8  C   UNL     1       7.686   5.096  13.219  0.00  0.00    +0.000 A 
ATOM      9  C   UNL     1       6.627   4.710  14.055  0.00  0.00    +0.000 A 
ATOM     10  C   UNL     1       5.629   3.869  13.531  0.00  0.00    +0.000 A 
BRANCH   5  12
ATOM     11  C   UNL     1       3.627   3.388  10.762  0.00  0.00    +0.000 C 
ATOM     12  C   UNL     1       4.568   2.569  11.634  0.00  0.00    +0.000 C 
ENDBRANCH   5  12
BRANCH   8  13
ATOM     13  O   UNL     1       8.683   5.921  13.674  0.00  0.00    +0.000 OA
ATOM     14  H   UNL     1       8.511   6.133  14.609  0.00  0.00    +0.000 HD
ENDBRANCH   8  13
ENDBRANCH   1   9
BRANCH   3  15
ATOM     15  C   UNL     1       6.663   4.533  17.889  0.00  0.00    +0.000 C 
ATOM     16  C   UNL     1       7.603   5.681  18.261  0.00  0.00    +0.000 C 
BRANCH  15  17
ATOM     17  C   UNL     1       5.220   4.871  18.288  0.00  0.00    +0.000 C 
BRANCH  17  18
ATOM     18  N   UNL     1       4.360   3.707  18.355  0.00  0.00    +0.000 N 
ATOM     19  C   UNL     1       4.121   2.900  19.423  0.00  0.00    +0.000 A 
ATOM     20  N   UNL     1       3.302   1.936  19.070  0.00  0.00    +0.000 NA
ATOM     21  C   UNL     1       3.055   2.211  17.755  0.00  0.00    +0.000 A 
ATOM     22  N   UNL     1       3.656   3.305  17.279  0.00  0.00    +0.000 NA
ENDBRANCH  17  18
ENDBRANCH  15  17
ENDBRANCH   3  15
TORSDOF 6
ENDMDL
MODEL 8
REMARK VINA RESULT:      -6.8      1.520      1.812
REMARK  Name = 
REMARK  8 active torsions:
REMARK  status: ('A' for Active; 'I' for Inactive)
REMARK    1  A    between atoms: C_1  and  C_2
REMARK    2  A    between atoms: C_2  and  C_3
REMARK    3  A    between atoms: C_6  and  O_7
REMARK    4  A    between atoms: C_8  and  C_9
REMARK    5  A    between atoms: N_11  and  C_12
REMARK    6  A    between atoms: C_12  and  C_13
REMARK    7  A    between atoms: C_12  and  C_14
REMARK    8  A    between atoms: C_14  and  N_15
REMARK                            x       y       z     vdW  Elec       q    Type
REMARK                         _______ _______ _______ _____ _____    ______ ____
ROOT
ATOM      1  C   UNL     1       5.395   4.289  16.135  0.00  0.00    +0.000 C 
ATOM      2  O   UNL     1       4.242   3.907  16.309  0.00  0.00    +0.000 OA
ATOM      3  N   UNL     1       6.183   4.738  17.171  0.00  0.00    +0.000 N 
ATOM      4  H   UNL     1       7.138   5.008  16.946  0.00  0.00    +0.000 HD
ENDROOT
BRANCH   1   9
ATOM      5  C   UNL     1       5.872   3.402  12.477  0.00  0.00    +0.000 A 
ATOM      6  C   UNL     1       6.982   4.177  12.126  0.00  0.00    +0.000 A 
ATOM      7  C   UNL     1       7.595   5.002  13.069  0.00  0.00    +0.000 A 
ATOM      8  C   UNL     1       7.106   5.060  14.378  0.00  0.00    +0.000 A 
ATOM      9  C   UNL     1       5.998   4.287  14.759  0.00  0.00    +0.000 A 
ATOM     10  C   UNL     1       5.391   3.461  13.796  0.00  0.00    +0.000 A 
BRANCH   5  12
ATOM     11  C   UNL     1       3.846   3.178  11.022  0.00  0.00    +0.000 C 
ATOM     12  C   UNL     1       5.173   2.559  11.440  0.00  0.00    +0.000 C 
ENDBRANCH   5  12
BRANCH   8  13
ATOM     13  O   UNL     1       7.733   5.889  15.273  0.00  0.00    +0.000 OA
ATOM     14  H   UNL     1       8.573   5.479  15.544  0.00  0.00    +0.000 HD
ENDBRANCH   8  13
ENDBRANCH   1   9
BRANCH   3  15
ATOM     15  C   UNL     1       5.715   4.779  18.556  0.00  0.00    +0.000 C 
ATOM     16  C   UNL     1       6.791   5.393  19.453  0.00  0.00    +0.000 C 
BRANCH  15  17
ATOM     17  C   UNL     1       4.396   5.550  18.696  0.00  0.00    +0.000 C 
BRANCH  17  18
ATOM     18  N   UNL     1       3.433   4.882  19.548  0.00  0.00    +0.000 N 
ATOM     19  C   UNL     1       2.349   5.417  20.171  0.00  0.00    +0.000 A 
ATOM     20  N   UNL     1       1.745   4.487  20.875  0.00  0.00    +0.000 NA
ATOM     21  C   UNL     1       2.505   3.379  20.634  0.00  0.00    +0.000 A 
ATOM     22  N   UNL     1       3.534   3.563  19.801  0.00  0.00    +0.000 NA
ENDBRANCH  17  18
ENDBRANCH  15  17
ENDBRANCH   3  15
TORSDOF 6
ENDMDL
MODEL 9
REMARK VINA RESULT:      -6.8      1.131      1.381
REMARK  Name = 
REMARK  8 active torsions:
REMARK  status: ('A' for Active; 'I' for Inactive)
REMARK    1  A    between atoms: C_1  and  C_2
REMARK    2  A    between atoms: C_2  and  C_3
REMARK    3  A    between atoms: C_6  and  O_7
REMARK    4  A    between atoms: C_8  and  C_9
REMARK    5  A    between atoms: N_11  and  C_12
REMARK    6  A    between atoms: C_12  and  C_13
REMARK    7  A    between atoms: C_12  and  C_14
REMARK    8  A    between atoms: C_14  and  N_15
REMARK                            x       y       z     vdW  Elec       q    Type
REMARK                         _______ _______ _______ _____ _____    ______ ____
ROOT
ATOM      1  C   UNL     1       5.102   4.915  15.767  0.00  0.00    +0.000 C 
ATOM      2  O   UNL     1       5.146   6.039  16.257  0.00  0.00    +0.000 OA
ATOM      3  N   UNL     1       4.356   3.900  16.325  0.00  0.00    +0.000 N 
ATOM      4  H   UNL     1       4.350   3.006  15.840  0.00  0.00    +0.000 HD
ENDROOT
BRANCH   1   9
ATOM      5  C   UNL     1       5.917   3.379  12.396  0.00  0.00    +0.000 A 
ATOM      6  C   UNL     1       7.183   3.907  12.128  0.00  0.00    +0.000 A 
ATOM      7  C   UNL     1       7.796   4.771  13.035  0.00  0.00    +0.000 A 
ATOM      8  C   UNL     1       7.148   5.116  14.225  0.00  0.00    +0.000 A 
ATOM      9  C   UNL     1       5.880   4.595  14.523  0.00  0.00    +0.000 A 
ATOM     10  C   UNL     1       5.276   3.726  13.597  0.00  0.00    +0.000 A 
BRANCH   5  12
ATOM     11  C   UNL     1       6.042   1.241  11.097  0.00  0.00    +0.000 C 
ATOM     12  C   UNL     1       5.230   2.495  11.384  0.00  0.00    +0.000 C 
ENDBRANCH   5  12
BRANCH   8  13
ATOM     13  O   UNL     1       7.782   5.975  15.088  0.00  0.00    +0.000 OA
ATOM     14  H   UNL     1       7.714   6.880  14.735  0.00  0.00    +0.000 HD
ENDBRANCH   8  13
ENDBRANCH   1   9
BRANCH   3  15
ATOM     15  C   UNL     1       3.549   4.088  17.530  0.00  0.00    +0.000 C 
ATOM     16  C   UNL     1       2.206   3.371  17.376  0.00  0.00    +0.000 C 
BRANCH  15  17
ATOM     17  C   UNL     1       4.274   3.601  18.792  0.00  0.00    +0.000 C 
BRANCH  17  18
ATOM     18  N   UNL     1       3.419   3.566  19.962  0.00  0.00    +0.000 N 
ATOM     19  C   UNL     1       2.702   4.582  20.509  0.00  0.00    +0.000 A 
ATOM     20  N   UNL     1       2.076   4.151  21.581  0.00  0.00    +0.000 NA
ATOM     21  C   UNL     1       2.440   2.837  21.638  0.00  0.00    +0.000 A 
ATOM     22  N   UNL     1       3.237   2.421  20.650  0.00  0.00    +0.000 NA
ENDBRANCH  17  18
ENDBRANCH  15  17
ENDBRANCH   3  15
TORSDOF 6
ENDMDL
