MODEL 1
REMARK VINA RESULT:      -7.0      0.000      0.000
REMARK  Name = 
REMARK  16 active torsions:
REMARK  status: ('A' for Active; 'I' for Inactive)
REMARK    1  A    between atoms: C_1  and  C_2
REMARK    2  A    between atoms: C_2  and  C_3
REMARK    3  A    between atoms: C_3  and  N_4
REMARK    4  A    between atoms: N_4  and  C_5
REMARK    5  A    between atoms: N_4  and  S_8
REMARK    6  A    between atoms: C_5  and  C_6
REMARK    7  A    between atoms: C_6  and  C_7
REMARK    8  A    between atoms: S_8  and  C_11
REMARK    9  A    between atoms: C_14  and  C_15
REMARK   10  A    between atoms: N_17  and  CA_18
REMARK   11  A    between atoms: CA_18  and  CB_19
REMARK   12  A    between atoms: CA_18  and  C_24
REMARK   13  A    between atoms: CB_19  and  CG_20
REMARK   14  A    between atoms: CG_20  and  CD_21
REMARK   15  A    between atoms: CD_21  and  OE2_23
REMARK   16  A    between atoms: C_24  and  OXT_26
REMARK                            x       y       z     vdW  Elec       q    Type
REMARK                         _______ _______ _______ _____ _____    ______ ____
ROOT
ATOM      1  C   UNK A   0       4.115   5.580  18.230  0.00  0.00    +0.000 A 
ATOM      2  C   UNK A   0       4.271   6.604  17.290  0.00  0.00    +0.000 A 
ATOM      3  C   UNK A   0       3.500   7.760  17.390  0.00  0.00    +0.000 A 
ATOM      4  C   UNK A   0       2.562   7.889  18.423  0.00  0.00    +0.000 A 
ATOM      5  C   UNK A   0       2.372   6.831  19.325  0.00  0.00    +0.000 A 
ATOM      6  C   UNK A   0       3.152   5.676  19.234  0.00  0.00    +0.000 A 
ENDROOT
BRANCH   4   7
ATOM      7  C   UNK A   0       1.788   9.159  18.506  0.00  0.00    +0.000 C 
ATOM      8  O   UNK A   0       1.803   9.965  17.583  0.00  0.00    +0.000 OA
ATOM      9  N   GLU A   1       1.091   9.373  19.671  0.00  0.00    +0.000 N 
ATOM     10  H   GLU A   1       1.201   8.745  20.459  0.00  0.00    +0.000 HD
BRANCH   9  11
ATOM     11  CA  GLU A   1       0.315  10.590  19.907  0.00  0.00    +0.000 C 
BRANCH  11  12
ATOM     12  C   GLU A   1       0.722  11.089  21.296  0.00  0.00    +0.000 C 
ATOM     13  O   GLU A   1       0.671  12.266  21.631  0.00  0.00    +0.000 OA
BRANCH  12  14
ATOM     14  OXT GLU A   1       1.109  10.115  22.153  0.00  0.00    +0.000 OA
ATOM     15  HXT GLU A   1       0.420   9.443  22.356  0.00  0.00    +0.000 HD
ENDBRANCH  12  14
ENDBRANCH  11  12
BRANCH  11  16
ATOM     16  CB  GLU A   1      -1.195  10.301  19.850  0.00  0.00    +0.000 C 
BRANCH  16  17
ATOM     17  CG  GLU A   1      -1.917  10.919  18.652  0.00  0.00    +0.000 C 
BRANCH  17  18
ATOM     18  CD  GLU A   1      -1.642  12.389  18.586  0.00  0.00    +0.000 C 
ATOM     19  OE1 GLU A   1      -1.851  13.136  19.537  0.00  0.00    +0.000 OA
BRANCH  18  20
ATOM     20  OE2 GLU A   1      -1.062  12.794  17.439  0.00  0.00    +0.000 OA
ATOM     21  HE2 GLU A   1      -0.119  12.548  17.350  0.00  0.00    +0.000 HD
ENDBRANCH  18  20
ENDBRANCH  17  18
ENDBRANCH  16  17
ENDBRANCH  11  16
ENDBRANCH   9  11
ENDBRANCH   4   7
BRANCH   1  22
ATOM     22  S   UNK A   0       5.071   4.094  18.032  0.00  0.00    +0.000 S 
ATOM     23  O   UNK A   0       4.192   3.167  17.359  0.00  0.00    +0.000 OA
ATOM     24  O   UNK A   0       5.658   3.761  19.314  0.00  0.00    +0.000 OA
BRANCH  22  25
ATOM     25  N   UNK A   0       6.363   4.624  16.972  0.00  0.00    +0.000 NA
BRANCH  25  26
ATOM     26  C   UNK A   0       7.639   4.804  17.776  0.00  0.00    +0.000 C 
BRANCH  26  28
ATOM     27  C   UNK A   0       7.848   7.349  18.003  0.00  0.00    +0.000 C 
ATOM     28  C   UNK A   0       7.709   6.014  18.709  0.00  0.00    +0.000 C 
ENDBRANCH  26  28
ENDBRANCH  25  26
BRANCH  25  29
ATOM     29  C   UNK A   0       6.564   3.775  15.750  0.00  0.00    +0.000 C 
BRANCH  29  30
ATOM     30  C   UNK A   0       6.634   4.536  14.419  0.00  0.00    +0.000 C 
ATOM     31  C   UNK A   0       6.093   3.773  13.221  0.00  0.00    +0.000 C 
ENDBRANCH  29  30
ENDBRANCH  25  29
ENDBRANCH  22  25
ENDBRANCH   1  22
TORSDOF 14
ENDMDL
MODEL 2
REMARK VINA RESULT:      -6.9      1.892      3.008
REMARK  Name = 
REMARK  16 active torsions:
REMARK  status: ('A' for Active; 'I' for Inactive)
REMARK    1  A    between atoms: C_1  and  C_2
REMARK    2  A    between atoms: C_2  and  C_3
REMARK    3  A    between atoms: C_3  and  N_4
REMARK    4  A    between atoms: N_4  and  C_5
REMARK    5  A    between atoms: N_4  and  S_8
REMARK    6  A    between atoms: C_5  and  C_6
REMARK    7  A    between atoms: C_6  and  C_7
REMARK    8  A    between atoms: S_8  and  C_11
REMARK    9  A    between atoms: C_14  and  C_15
REMARK   10  A    between atoms: N_17  and  CA_18
REMARK   11  A    between atoms: CA_18  and  CB_19
REMARK   12  A    between atoms: CA_18  and  C_24
REMARK   13  A    between atoms: CB_19  and  CG_20
REMARK   14  A    between atoms: CG_20  and  CD_21
REMARK   15  A    between atoms: CD_21  and  OE2_23
REMARK   16  A    between atoms: C_24  and  OXT_26
REMARK                            x       y       z     vdW  Elec       q    Type
REMARK                         _______ _______ _______ _____ _____    ______ ____
ROOT
ATOM      1  C   UNK A   0       2.711   6.411  19.010  0.00  0.00    +0.000 A 
ATOM      2  C   UNK A   0       2.568   7.403  18.035  0.00  0.00    +0.000 A 
ATOM      3  C   UNK A   0       1.914   8.593  18.349  0.00  0.00    +0.000 A 
ATOM      4  C   UNK A   0       1.390   8.787  19.633  0.00  0.00    +0.000 A 
ATOM      5  C   UNK A   0       1.487   7.761  20.586  0.00  0.00    +0.000 A 
ATOM      6  C   UNK A   0       2.153   6.571  20.279  0.00  0.00    +0.000 A 
ENDROOT
BRANCH   4   7
ATOM      7  C   UNK A   0       0.730  10.090  19.927  0.00  0.00    +0.000 C 
ATOM      8  O   UNK A   0       0.614  10.489  21.079  0.00  0.00    +0.000 OA
ATOM      9  N   GLU A   1       0.247  10.786  18.845  0.00  0.00    +0.000 N 
ATOM     10  H   GLU A   1       0.250  10.368  17.921  0.00  0.00    +0.000 HD
BRANCH   9  11
ATOM     11  CA  GLU A   1      -0.454  12.062  18.984  0.00  0.00    +0.000 C 
BRANCH  11  12
ATOM     12  C   GLU A   1      -1.794  11.889  18.264  0.00  0.00    +0.000 C 
ATOM     13  O   GLU A   1      -2.812  11.495  18.820  0.00  0.00    +0.000 OA
BRANCH  12  14
ATOM     14  OXT GLU A   1      -1.783  12.248  16.959  0.00  0.00    +0.000 OA
ATOM     15  HXT GLU A   1      -2.617  12.656  16.633  0.00  0.00    +0.000 HD
ENDBRANCH  12  14
ENDBRANCH  11  12
BRANCH  11  16
ATOM     16  CB  GLU A   1       0.359  13.208  18.359  0.00  0.00    +0.000 C 
BRANCH  16  17
ATOM     17  CG  GLU A   1       1.657  13.543  19.095  0.00  0.00    +0.000 C 
BRANCH  17  18
ATOM     18  CD  GLU A   1       2.837  13.250  18.220  0.00  0.00    +0.000 C 
ATOM     19  OE1 GLU A   1       3.853  13.938  18.242  0.00  0.00    +0.000 OA
BRANCH  18  20
ATOM     20  OE2 GLU A   1       2.721  12.123  17.491  0.00  0.00    +0.000 OA
ATOM     21  HE2 GLU A   1       3.120  12.171  16.599  0.00  0.00    +0.000 HD
ENDBRANCH  18  20
ENDBRANCH  17  18
ENDBRANCH  16  17
ENDBRANCH  11  16
ENDBRANCH   9  11
ENDBRANCH   4   7
BRANCH   1  22
ATOM     22  S   UNK A   0       3.495   4.881  18.556  0.00  0.00    +0.000 S 
ATOM     23  O   UNK A   0       2.609   4.276  17.590  0.00  0.00    +0.000 OA
ATOM     24  O   UNK A   0       3.856   4.180  19.771  0.00  0.00    +0.000 OA
BRANCH  22  25
ATOM     25  N   UNK A   0       4.975   5.436  17.797  0.00  0.00    +0.000 NA
BRANCH  25  26
ATOM     26  C   UNK A   0       6.039   5.659  18.859  0.00  0.00    +0.000 C 
BRANCH  26  28
ATOM     27  C   UNK A   0       7.720   7.324  17.871  0.00  0.00    +0.000 C 
ATOM     28  C   UNK A   0       7.466   5.915  18.371  0.00  0.00    +0.000 C 
ENDBRANCH  26  28
ENDBRANCH  25  26
BRANCH  25  29
ATOM     29  C   UNK A   0       5.461   4.581  16.662  0.00  0.00    +0.000 C 
BRANCH  29  30
ATOM     30  C   UNK A   0       5.503   5.263  15.289  0.00  0.00    +0.000 C 
ATOM     31  C   UNK A   0       6.673   4.853  14.410  0.00  0.00    +0.000 C 
ENDBRANCH  29  30
ENDBRANCH  25  29
ENDBRANCH  22  25
ENDBRANCH   1  22
TORSDOF 14
ENDMDL
MODEL 3
REMARK VINA RESULT:      -6.9      2.802      9.286
REMARK  Name = 
REMARK  16 active torsions:
REMARK  status: ('A' for Active; 'I' for Inactive)
REMARK    1  A    between atoms: C_1  and  C_2
REMARK    2  A    between atoms: C_2  and  C_3
REMARK    3  A    between atoms: C_3  and  N_4
REMARK    4  A    between atoms: N_4  and  C_5
REMARK    5  A    between atoms: N_4  and  S_8
REMARK    6  A    between atoms: C_5  and  C_6
REMARK    7  A    between atoms: C_6  and  C_7
REMARK    8  A    between atoms: S_8  and  C_11
REMARK    9  A    between atoms: C_14  and  C_15
REMARK   10  A    between atoms: N_17  and  CA_18
REMARK   11  A    between atoms: CA_18  and  CB_19
REMARK   12  A    between atoms: CA_18  and  C_24
REMARK   13  A    between atoms: CB_19  and  CG_20
REMARK   14  A    between atoms: CG_20  and  CD_21
REMARK   15  A    between atoms: CD_21  and  OE2_23
REMARK   16  A    between atoms: C_24  and  OXT_26
REMARK                            x       y       z     vdW  Elec       q    Type
REMARK                         _______ _______ _______ _____ _____    ______ ____
ROOT
ATOM      1  C   UNK A   0       0.993   9.801  19.775  0.00  0.00    +0.000 A 
ATOM      2  C   UNK A   0       1.427   9.694  18.450  0.00  0.00    +0.000 A 
ATOM      3  C   UNK A   0       2.040   8.520  18.015  0.00  0.00    +0.000 A 
ATOM      4  C   UNK A   0       2.231   7.457  18.908  0.00  0.00    +0.000 A 
ATOM      5  C   UNK A   0       1.845   7.598  20.250  0.00  0.00    +0.000 A 
ATOM      6  C   UNK A   0       1.219   8.769  20.686  0.00  0.00    +0.000 A 
ENDROOT
BRANCH   4   7
ATOM      7  C   UNK A   0       2.861   6.213  18.384  0.00  0.00    +0.000 C 
ATOM      8  O   UNK A   0       2.199   5.194  18.224  0.00  0.00    +0.000 OA
ATOM      9  N   GLU A   1       4.209   6.274  18.124  0.00  0.00    +0.000 N 
ATOM     10  H   GLU A   1       4.746   7.093  18.385  0.00  0.00    +0.000 HD
BRANCH   9  11
ATOM     11  CA  GLU A   1       4.966   5.121  17.639  0.00  0.00    +0.000 C 
BRANCH  11  12
ATOM     12  C   GLU A   1       5.668   4.530  18.865  0.00  0.00    +0.000 C 
ATOM     13  O   GLU A   1       6.347   5.194  19.638  0.00  0.00    +0.000 OA
BRANCH  12  14
ATOM     14  OXT GLU A   1       5.446   3.209  19.058  0.00  0.00    +0.000 OA
ATOM     15  HXT GLU A   1       5.157   2.965  19.967  0.00  0.00    +0.000 HD
ENDBRANCH  12  14
ENDBRANCH  11  12
BRANCH  11  16
ATOM     16  CB  GLU A   1       5.990   5.542  16.572  0.00  0.00    +0.000 C 
BRANCH  16  17
ATOM     17  CG  GLU A   1       5.559   5.268  15.131  0.00  0.00    +0.000 C 
BRANCH  17  18
ATOM     18  CD  GLU A   1       6.714   4.742  14.337  0.00  0.00    +0.000 C 
ATOM     19  OE1 GLU A   1       7.784   5.339  14.267  0.00  0.00    +0.000 OA
BRANCH  18  20
ATOM     20  OE2 GLU A   1       6.506   3.526  13.795  0.00  0.00    +0.000 OA
ATOM     21  HE2 GLU A   1       7.018   2.803  14.209  0.00  0.00    +0.000 HD
ENDBRANCH  18  20
ENDBRANCH  17  18
ENDBRANCH  16  17
ENDBRANCH  11  16
ENDBRANCH   9  11
ENDBRANCH   4   7
BRANCH   1  22
ATOM     22  S   UNK A   0       0.273  11.337  20.310  0.00  0.00    +0.000 S 
ATOM     23  O   UNK A   0       1.340  12.040  20.981  0.00  0.00    +0.000 OA
ATOM     24  O   UNK A   0      -0.966  11.038  20.999  0.00  0.00    +0.000 OA
BRANCH  22  25
ATOM     25  N   UNK A   0      -0.132  12.105  18.787  0.00  0.00    +0.000 NA
BRANCH  25  26
ATOM     26  C   UNK A   0      -1.638  12.077  18.587  0.00  0.00    +0.000 C 
BRANCH  26  28
ATOM     27  C   UNK A   0      -3.672  11.330  17.215  0.00  0.00    +0.000 C 
ATOM     28  C   UNK A   0      -2.160  11.377  17.331  0.00  0.00    +0.000 C 
ENDBRANCH  26  28
ENDBRANCH  25  26
BRANCH  25  29
ATOM     29  C   UNK A   0       0.451  13.476  18.597  0.00  0.00    +0.000 C 
BRANCH  29  30
ATOM     30  C   UNK A   0      -0.409  14.638  19.109  0.00  0.00    +0.000 C 
ATOM     31  C   UNK A   0       0.098  16.020  18.730  0.00  0.00    +0.000 C 
ENDBRANCH  29  30
ENDBRANCH  25  29
ENDBRANCH  22  25
ENDBRANCH   1  22
TORSDOF 14
ENDMDL
MODEL 4
REMARK VINA RESULT:      -6.8      1.388      2.287
REMARK  Name = 
REMARK  16 active torsions:
REMARK  status: ('A' for Active; 'I' for Inactive)
REMARK    1  A    between atoms: C_1  and  C_2
REMARK    2  A    between atoms: C_2  and  C_3
REMARK    3  A    between atoms: C_3  and  N_4
REMARK    4  A    between atoms: N_4  and  C_5
REMARK    5  A    between atoms: N_4  and  S_8
REMARK    6  A    between atoms: C_5  and  C_6
REMARK    7  A    between atoms: C_6  and  C_7
REMARK    8  A    between atoms: S_8  and  C_11
REMARK    9  A    between atoms: C_14  and  C_15
REMARK   10  A    between atoms: N_17  and  CA_18
REMARK   11  A    between atoms: CA_18  and  CB_19
REMARK   12  A    between atoms: CA_18  and  C_24
REMARK   13  A    between atoms: CB_19  and  CG_20
REMARK   14  A    between atoms: CG_20  and  CD_21
REMARK   15  A    between atoms: CD_21  and  OE2_23
REMARK   16  A    between atoms: C_24  and  OXT_26
REMARK                            x       y       z     vdW  Elec       q    Type
REMARK                         _______ _______ _______ _____ _____    ______ ____
ROOT
ATOM      1  C   UNK A   0       3.813   5.709  18.474  0.00  0.00    +0.000 A 
ATOM      2  C   UNK A   0       3.023   5.838  19.620  0.00  0.00    +0.000 A 
ATOM      3  C   UNK A   0       2.222   6.966  19.787  0.00  0.00    +0.000 A 
ATOM      4  C   UNK A   0       2.220   7.973  18.814  0.00  0.00    +0.000 A 
ATOM      5  C   UNK A   0       3.061   7.862  17.696  0.00  0.00    +0.000 A 
ATOM      6  C   UNK A   0       3.856   6.726  17.520  0.00  0.00    +0.000 A 
ENDROOT
BRANCH   4   7
ATOM      7  C   UNK A   0       1.321   9.142  19.023  0.00  0.00    +0.000 C 
ATOM      8  O   UNK A   0       0.811   9.721  18.071  0.00  0.00    +0.000 OA
ATOM      9  N   GLU A   1       1.125   9.536  20.325  0.00  0.00    +0.000 N 
ATOM     10  H   GLU A   1       1.659   9.113  21.076  0.00  0.00    +0.000 HD
BRANCH   9  11
ATOM     11  CA  GLU A   1       0.296  10.687  20.680  0.00  0.00    +0.000 C 
BRANCH  11  12
ATOM     12  C   GLU A   1       1.104  11.927  20.287  0.00  0.00    +0.000 C 
ATOM     13  O   GLU A   1       2.001  12.394  20.978  0.00  0.00    +0.000 OA
BRANCH  12  14
ATOM     14  OXT GLU A   1       0.778  12.454  19.083  0.00  0.00    +0.000 OA
ATOM     15  HXT GLU A   1       1.540  12.621  18.483  0.00  0.00    +0.000 HD
ENDBRANCH  12  14
ENDBRANCH  11  12
BRANCH  11  16
ATOM     16  CB  GLU A   1      -0.021  10.696  22.184  0.00  0.00    +0.000 C 
BRANCH  16  17
ATOM     17  CG  GLU A   1      -1.435  11.163  22.534  0.00  0.00    +0.000 C 
BRANCH  17  18
ATOM     18  CD  GLU A   1      -1.395  12.545  23.109  0.00  0.00    +0.000 C 
ATOM     19  OE1 GLU A   1      -0.357  13.197  23.171  0.00  0.00    +0.000 OA
BRANCH  18  20
ATOM     20  OE2 GLU A   1      -2.601  13.037  23.455  0.00  0.00    +0.000 OA
ATOM     21  HE2 GLU A   1      -3.277  12.357  23.652  0.00  0.00    +0.000 HD
ENDBRANCH  18  20
ENDBRANCH  17  18
ENDBRANCH  16  17
ENDBRANCH  11  16
ENDBRANCH   9  11
ENDBRANCH   4   7
BRANCH   1  22
ATOM     22  S   UNK A   0       4.869   4.286  18.326  0.00  0.00    +0.000 S 
ATOM     23  O   UNK A   0       4.072   3.294  17.645  0.00  0.00    +0.000 OA
ATOM     24  O   UNK A   0       5.440   4.011  19.629  0.00  0.00    +0.000 OA
BRANCH  22  25
ATOM     25  N   UNK A   0       6.154   4.886  17.294  0.00  0.00    +0.000 NA
BRANCH  25  26
ATOM     26  C   UNK A   0       7.430   5.035  18.104  0.00  0.00    +0.000 C 
BRANCH  26  28
ATOM     27  C   UNK A   0       7.474   7.530  17.512  0.00  0.00    +0.000 C 
ATOM     28  C   UNK A   0       7.827   6.453  18.520  0.00  0.00    +0.000 C 
ENDBRANCH  26  28
ENDBRANCH  25  26
BRANCH  25  29
ATOM     29  C   UNK A   0       6.361   4.105  16.028  0.00  0.00    +0.000 C 
BRANCH  29  30
ATOM     30  C   UNK A   0       5.782   4.739  14.756  0.00  0.00    +0.000 C 
ATOM     31  C   UNK A   0       5.973   3.918  13.492  0.00  0.00    +0.000 C 
ENDBRANCH  29  30
ENDBRANCH  25  29
ENDBRANCH  22  25
ENDBRANCH   1  22
TORSDOF 14
ENDMDL
MODEL 5
REMARK VINA RESULT:      -6.8      1.302      1.642
REMARK  Name = 
REMARK  16 active torsions:
REMARK  status: ('A' for Active; 'I' for Inactive)
REMARK    1  A    between atoms: C_1  and  C_2
REMARK    2  A    between atoms: C_2  and  C_3
REMARK    3  A    between atoms: C_3  and  N_4
REMARK    4  A    between atoms: N_4  and  C_5
REMARK    5  A    between atoms: N_4  and  S_8
REMARK    6  A    between atoms: C_5  and  C_6
REMARK    7  A    between atoms: C_6  and  C_7
REMARK    8  A    between atoms: S_8  and  C_11
REMARK    9  A    between atoms: C_14  and  C_15
REMARK   10  A    between atoms: N_17  and  CA_18
REMARK   11  A    between atoms: CA_18  and  CB_19
REMARK   12  A    between atoms: CA_18  and  C_24
REMARK   13  A    between atoms: CB_19  and  CG_20
REMARK   14  A    between atoms: CG_20  and  CD_21
REMARK   15  A    between atoms: CD_21  and  OE2_23
REMARK   16  A    between atoms: C_24  and  OXT_26
REMARK                            x       y       z     vdW  Elec       q    Type
REMARK                         _______ _______ _______ _____ _____    ______ ____
ROOT
ATOM      1  C   UNK A   0       3.967   5.449  18.571  0.00  0.00    +0.000 A 
ATOM      2  C   UNK A   0       3.928   6.499  17.649  0.00  0.00    +0.000 A 
ATOM      3  C   UNK A   0       3.088   7.588  17.874  0.00  0.00    +0.000 A 
ATOM      4  C   UNK A   0       2.277   7.623  19.015  0.00  0.00    +0.000 A 
ATOM      5  C   UNK A   0       2.280   6.536  19.904  0.00  0.00    +0.000 A 
ATOM      6  C   UNK A   0       3.130   5.448  19.687  0.00  0.00    +0.000 A 
ENDROOT
BRANCH   4   7
ATOM      7  C   UNK A   0       1.423   8.824  19.227  0.00  0.00    +0.000 C 
ATOM      8  O   UNK A   0       0.934   9.062  20.325  0.00  0.00    +0.000 OA
ATOM      9  N   GLU A   1       1.202   9.617  18.126  0.00  0.00    +0.000 N 
ATOM     10  H   GLU A   1       1.518   9.323  17.209  0.00  0.00    +0.000 HD
BRANCH   9  11
ATOM     11  CA  GLU A   1       0.357  10.810  18.176  0.00  0.00    +0.000 C 
BRANCH  11  12
ATOM     12  C   GLU A   1       0.981  11.727  19.232  0.00  0.00    +0.000 C 
ATOM     13  O   GLU A   1       2.066  12.277  19.090  0.00  0.00    +0.000 OA
BRANCH  12  14
ATOM     14  OXT GLU A   1       0.216  11.920  20.332  0.00  0.00    +0.000 OA
ATOM     15  HXT GLU A   1       0.042  12.863  20.556  0.00  0.00    +0.000 HD
ENDBRANCH  12  14
ENDBRANCH  11  12
BRANCH  11  16
ATOM     16  CB  GLU A   1      -1.089  10.445  18.554  0.00  0.00    +0.000 C 
BRANCH  16  17
ATOM     17  CG  GLU A   1      -1.927   9.889  17.402  0.00  0.00    +0.000 C 
BRANCH  17  18
ATOM     18  CD  GLU A   1      -2.306  10.989  16.461  0.00  0.00    +0.000 C 
ATOM     19  OE1 GLU A   1      -2.912  10.775  15.415  0.00  0.00    +0.000 OA
BRANCH  18  20
ATOM     20  OE2 GLU A   1      -2.014  12.227  16.907  0.00  0.00    +0.000 OA
ATOM     21  HE2 GLU A   1      -2.191  12.944  16.265  0.00  0.00    +0.000 HD
ENDBRANCH  18  20
ENDBRANCH  17  18
ENDBRANCH  16  17
ENDBRANCH  11  16
ENDBRANCH   9  11
ENDBRANCH   4   7
BRANCH   1  22
ATOM     22  S   UNK A   0       5.003   4.048  18.218  0.00  0.00    +0.000 S 
ATOM     23  O   UNK A   0       4.155   3.121  17.506  0.00  0.00    +0.000 OA
ATOM     24  O   UNK A   0       5.664   3.654  19.445  0.00  0.00    +0.000 OA
BRANCH  22  25
ATOM     25  N   UNK A   0       6.213   4.742  17.156  0.00  0.00    +0.000 NA
BRANCH  25  26
ATOM     26  C   UNK A   0       7.492   4.993  17.937  0.00  0.00    +0.000 C 
BRANCH  26  28
ATOM     27  C   UNK A   0       7.548   7.518  17.494  0.00  0.00    +0.000 C 
ATOM     28  C   UNK A   0       7.693   6.398  18.507  0.00  0.00    +0.000 C 
ENDBRANCH  26  28
ENDBRANCH  25  26
BRANCH  25  29
ATOM     29  C   UNK A   0       6.452   3.976  15.886  0.00  0.00    +0.000 C 
BRANCH  29  30
ATOM     30  C   UNK A   0       6.280   4.774  14.588  0.00  0.00    +0.000 C 
ATOM     31  C   UNK A   0       6.009   3.931  13.353  0.00  0.00    +0.000 C 
ENDBRANCH  29  30
ENDBRANCH  25  29
ENDBRANCH  22  25
ENDBRANCH   1  22
TORSDOF 14
ENDMDL
MODEL 6
REMARK VINA RESULT:      -6.8      0.717      1.204
REMARK  Name = 
REMARK  16 active torsions:
REMARK  status: ('A' for Active; 'I' for Inactive)
REMARK    1  A    between atoms: C_1  and  C_2
REMARK    2  A    between atoms: C_2  and  C_3
REMARK    3  A    between atoms: C_3  and  N_4
REMARK    4  A    between atoms: N_4  and  C_5
REMARK    5  A    between atoms: N_4  and  S_8
REMARK    6  A    between atoms: C_5  and  C_6
REMARK    7  A    between atoms: C_6  and  C_7
REMARK    8  A    between atoms: S_8  and  C_11
REMARK    9  A    between atoms: C_14  and  C_15
REMARK   10  A    between atoms: N_17  and  CA_18
REMARK   11  A    between atoms: CA_18  and  CB_19
REMARK   12  A    between atoms: CA_18  and  C_24
REMARK   13  A    between atoms: CB_19  and  CG_20
REMARK   14  A    between atoms: CG_20  and  CD_21
REMARK   15  A    between atoms: CD_21  and  OE2_23
REMARK   16  A    between atoms: C_24  and  OXT_26
REMARK                            x       y       z     vdW  Elec       q    Type
REMARK                         _______ _______ _______ _____ _____    ______ ____
ROOT
ATOM      1  C   UNK A   0       4.084   5.653  18.222  0.00  0.00    +0.000 A 
ATOM      2  C   UNK A   0       3.229   5.725  19.326  0.00  0.00    +0.000 A 
ATOM      3  C   UNK A   0       2.431   6.853  19.512  0.00  0.00    +0.000 A 
ATOM      4  C   UNK A   0       2.497   7.916  18.602  0.00  0.00    +0.000 A 
ATOM      5  C   UNK A   0       3.402   7.859  17.530  0.00  0.00    +0.000 A 
ATOM      6  C   UNK A   0       4.194   6.724  17.334  0.00  0.00    +0.000 A 
ENDROOT
BRANCH   4   7
ATOM      7  C   UNK A   0       1.600   9.083  18.828  0.00  0.00    +0.000 C 
ATOM      8  O   UNK A   0       1.246   9.793  17.894  0.00  0.00    +0.000 OA
ATOM      9  N   GLU A   1       1.223   9.321  20.128  0.00  0.00    +0.000 N 
ATOM     10  H   GLU A   1       1.634   8.789  20.887  0.00  0.00    +0.000 HD
BRANCH   9  11
ATOM     11  CA  GLU A   1       0.374  10.450  20.504  0.00  0.00    +0.000 C 
BRANCH  11  12
ATOM     12  C   GLU A   1       0.424  10.528  22.032  0.00  0.00    +0.000 C 
ATOM     13  O   GLU A   1      -0.232  11.327  22.689  0.00  0.00    +0.000 OA
BRANCH  12  14
ATOM     14  OXT GLU A   1       1.228   9.608  22.616  0.00  0.00    +0.000 OA
ATOM     15  HXT GLU A   1       2.154   9.597  22.285  0.00  0.00    +0.000 HD
ENDBRANCH  12  14
ENDBRANCH  11  12
BRANCH  11  16
ATOM     16  CB  GLU A   1      -1.069  10.241  20.014  0.00  0.00    +0.000 C 
BRANCH  16  17
ATOM     17  CG  GLU A   1      -1.573  11.310  19.044  0.00  0.00    +0.000 C 
BRANCH  17  18
ATOM     18  CD  GLU A   1      -2.044  12.514  19.800  0.00  0.00    +0.000 C 
ATOM     19  OE1 GLU A   1      -2.829  12.429  20.740  0.00  0.00    +0.000 OA
BRANCH  18  20
ATOM     20  OE2 GLU A   1      -1.461  13.669  19.424  0.00  0.00    +0.000 OA
ATOM     21  HE2 GLU A   1      -1.374  13.785  18.456  0.00  0.00    +0.000 HD
ENDBRANCH  18  20
ENDBRANCH  17  18
ENDBRANCH  16  17
ENDBRANCH  11  16
ENDBRANCH   9  11
ENDBRANCH   4   7
BRANCH   1  22
ATOM     22  S   UNK A   0       5.132   4.227  18.052  0.00  0.00    +0.000 S 
ATOM     23  O   UNK A   0       4.394   3.315  17.211  0.00  0.00    +0.000 OA
ATOM     24  O   UNK A   0       5.568   3.828  19.374  0.00  0.00    +0.000 OA
BRANCH  22  25
ATOM     25  N   UNK A   0       6.519   4.887  17.206  0.00  0.00    +0.000 NA
BRANCH  25  26
ATOM     26  C   UNK A   0       7.667   5.079  18.183  0.00  0.00    +0.000 C 
BRANCH  26  28
ATOM     27  C   UNK A   0       7.702   7.593  17.680  0.00  0.00    +0.000 C 
ATOM     28  C   UNK A   0       7.903   6.496  18.708  0.00  0.00    +0.000 C 
ENDBRANCH  26  28
ENDBRANCH  25  26
BRANCH  25  29
ATOM     29  C   UNK A   0       6.927   4.128  15.976  0.00  0.00    +0.000 C 
BRANCH  29  30
ATOM     30  C   UNK A   0       6.640   4.827  14.641  0.00  0.00    +0.000 C 
ATOM     31  C   UNK A   0       5.929   3.965  13.611  0.00  0.00    +0.000 C 
ENDBRANCH  29  30
ENDBRANCH  25  29
ENDBRANCH  22  25
ENDBRANCH   1  22
TORSDOF 14
ENDMDL
MODEL 7
REMARK VINA RESULT:      -6.8      1.563      2.147
REMARK  Name = 
REMARK  16 active torsions:
REMARK  status: ('A' for Active; 'I' for Inactive)
REMARK    1  A    between atoms: C_1  and  C_2
REMARK    2  A    between atoms: C_2  and  C_3
REMARK    3  A    between atoms: C_3  and  N_4
REMARK    4  A    between atoms: N_4  and  C_5
REMARK    5  A    between atoms: N_4  and  S_8
REMARK    6  A    between atoms: C_5  and  C_6
REMARK    7  A    between atoms: C_6  and  C_7
REMARK    8  A    between atoms: S_8  and  C_11
REMARK    9  A    between atoms: C_14  and  C_15
REMARK   10  A    between atoms: N_17  and  CA_18
REMARK   11  A    between atoms: CA_18  and  CB_19
REMARK   12  A    between atoms: CA_18  and  C_24
REMARK   13  A    between atoms: CB_19  and  CG_20
REMARK   14  A    between atoms: CG_20  and  CD_21
REMARK   15  A    between atoms: CD_21  and  OE2_23
REMARK   16  A    between atoms: C_24  and  OXT_26
REMARK                            x       y       z     vdW  Elec       q    Type
REMARK                         _______ _______ _______ _____ _____    ______ ____
ROOT
ATOM      1  C   UNK A   0       2.687   6.631  18.707  0.00  0.00    +0.000 A 
ATOM      2  C   UNK A   0       2.120   6.963  19.941  0.00  0.00    +0.000 A 
ATOM      3  C   UNK A   0       1.580   8.233  20.136  0.00  0.00    +0.000 A 
ATOM      4  C   UNK A   0       1.618   9.177  19.101  0.00  0.00    +0.000 A 
ATOM      5  C   UNK A   0       2.243   8.852  17.887  0.00  0.00    +0.000 A 
ATOM      6  C   UNK A   0       2.774   7.575  17.684  0.00  0.00    +0.000 A 
ENDROOT
BRANCH   4   7
ATOM      7  C   UNK A   0       0.997  10.507  19.349  0.00  0.00    +0.000 C 
ATOM      8  O   UNK A   0       1.444  11.517  18.819  0.00  0.00    +0.000 OA
ATOM      9  N   GLU A   1      -0.072  10.531  20.213  0.00  0.00    +0.000 N 
ATOM     10  H   GLU A   1      -0.335   9.698  20.728  0.00  0.00    +0.000 HD
BRANCH   9  11
ATOM     11  CA  GLU A   1      -0.758  11.769  20.577  0.00  0.00    +0.000 C 
BRANCH  11  12
ATOM     12  C   GLU A   1      -1.074  11.655  22.071  0.00  0.00    +0.000 C 
ATOM     13  O   GLU A   1      -0.306  11.160  22.887  0.00  0.00    +0.000 OA
BRANCH  12  14
ATOM     14  OXT GLU A   1      -2.263  12.187  22.438  0.00  0.00    +0.000 OA
ATOM     15  HXT GLU A   1      -2.981  12.098  21.770  0.00  0.00    +0.000 HD
ENDBRANCH  12  14
ENDBRANCH  11  12
BRANCH  11  16
ATOM     16  CB  GLU A   1      -2.048  11.946  19.758  0.00  0.00    +0.000 C 
BRANCH  16  17
ATOM     17  CG  GLU A   1      -2.240  10.916  18.644  0.00  0.00    +0.000 C 
BRANCH  17  18
ATOM     18  CD  GLU A   1      -1.975  11.541  17.310  0.00  0.00    +0.000 C 
ATOM     19  OE1 GLU A   1      -2.506  11.135  16.281  0.00  0.00    +0.000 OA
BRANCH  18  20
ATOM     20  OE2 GLU A   1      -1.189  12.635  17.356  0.00  0.00    +0.000 OA
ATOM     21  HE2 GLU A   1      -0.582  12.668  18.123  0.00  0.00    +0.000 HD
ENDBRANCH  18  20
ENDBRANCH  17  18
ENDBRANCH  16  17
ENDBRANCH  11  16
ENDBRANCH   9  11
ENDBRANCH   4   7
BRANCH   1  22
ATOM     22  S   UNK A   0       3.423   5.023  18.517  0.00  0.00    +0.000 S 
ATOM     23  O   UNK A   0       2.540   4.307  17.627  0.00  0.00    +0.000 OA
ATOM     24  O   UNK A   0       3.724   4.506  19.836  0.00  0.00    +0.000 OA
BRANCH  22  25
ATOM     25  N   UNK A   0       4.943   5.404  17.729  0.00  0.00    +0.000 NA
BRANCH  25  26
ATOM     26  C   UNK A   0       6.022   5.609  18.779  0.00  0.00    +0.000 C 
BRANCH  26  28
ATOM     27  C   UNK A   0       7.508   7.320  17.579  0.00  0.00    +0.000 C 
ATOM     28  C   UNK A   0       7.419   5.976  18.276  0.00  0.00    +0.000 C 
ENDBRANCH  26  28
ENDBRANCH  25  26
BRANCH  25  29
ATOM     29  C   UNK A   0       5.356   4.438  16.656  0.00  0.00    +0.000 C 
BRANCH  29  30
ATOM     30  C   UNK A   0       5.492   5.030  15.248  0.00  0.00    +0.000 C 
ATOM     31  C   UNK A   0       6.862   4.857  14.614  0.00  0.00    +0.000 C 
ENDBRANCH  29  30
ENDBRANCH  25  29
ENDBRANCH  22  25
ENDBRANCH   1  22
TORSDOF 14
ENDMDL
MODEL 8
REMARK VINA RESULT:      -6.8      2.673      9.061
REMARK  Name = 
REMARK  16 active torsions:
REMARK  status: ('A' for Active; 'I' for Inactive)
REMARK    1  A    between atoms: C_1  and  C_2
REMARK    2  A    between atoms: C_2  and  C_3
REMARK    3  A    between atoms: C_3  and  N_4
REMARK    4  A    between atoms: N_4  and  C_5
REMARK    5  A    between atoms: N_4  and  S_8
REMARK    6  A    between atoms: C_5  and  C_6
REMARK    7  A    between atoms: C_6  and  C_7
REMARK    8  A    between atoms: S_8  and  C_11
REMARK    9  A    between atoms: C_14  and  C_15
REMARK   10  A    between atoms: N_17  and  CA_18
REMARK   11  A    between atoms: CA_18  and  CB_19
REMARK   12  A    between atoms: CA_18  and  C_24
REMARK   13  A    between atoms: CB_19  and  CG_20
REMARK   14  A    between atoms: CG_20  and  CD_21
REMARK   15  A    between atoms: CD_21  and  OE2_23
REMARK   16  A    between atoms: C_24  and  OXT_26
REMARK                            x       y       z     vdW  Elec       q    Type
REMARK                         _______ _______ _______ _____ _____    ______ ____
ROOT
ATOM      1  C   UNK A   0       1.340   9.656  19.478  0.00  0.00    +0.000 A 
ATOM      2  C   UNK A   0       1.249   8.727  20.519  0.00  0.00    +0.000 A 
ATOM      3  C   UNK A   0       1.703   7.424  20.327  0.00  0.00    +0.000 A 
ATOM      4  C   UNK A   0       2.237   7.044  19.089  0.00  0.00    +0.000 A 
ATOM      5  C   UNK A   0       2.269   7.967  18.032  0.00  0.00    +0.000 A 
ATOM      6  C   UNK A   0       1.826   9.278  18.226  0.00  0.00    +0.000 A 
ENDROOT
BRANCH   4   7
ATOM      7  C   UNK A   0       2.739   5.649  18.946  0.00  0.00    +0.000 C 
ATOM      8  O   UNK A   0       2.320   4.753  19.670  0.00  0.00    +0.000 OA
ATOM      9  N   GLU A   1       3.702   5.442  17.987  0.00  0.00    +0.000 N 
ATOM     10  H   GLU A   1       4.113   6.227  17.494  0.00  0.00    +0.000 HD
BRANCH   9  11
ATOM     11  CA  GLU A   1       4.312   4.133  17.758  0.00  0.00    +0.000 C 
BRANCH  11  12
ATOM     12  C   GLU A   1       5.224   3.875  18.961  0.00  0.00    +0.000 C 
ATOM     13  O   GLU A   1       6.109   4.645  19.314  0.00  0.00    +0.000 OA
BRANCH  12  14
ATOM     14  OXT GLU A   1       4.951   2.736  19.640  0.00  0.00    +0.000 OA
ATOM     15  HXT GLU A   1       4.651   1.983  19.083  0.00  0.00    +0.000 HD
ENDBRANCH  12  14
ENDBRANCH  11  12
BRANCH  11  16
ATOM     16  CB  GLU A   1       5.117   4.121  16.448  0.00  0.00    +0.000 C 
BRANCH  16  17
ATOM     17  CG  GLU A   1       5.595   5.497  15.983  0.00  0.00    +0.000 C 
BRANCH  17  18
ATOM     18  CD  GLU A   1       7.075   5.623  16.176  0.00  0.00    +0.000 C 
ATOM     19  OE1 GLU A   1       7.608   6.692  16.457  0.00  0.00    +0.000 OA
BRANCH  18  20
ATOM     20  OE2 GLU A   1       7.744   4.455  16.113  0.00  0.00    +0.000 OA
ATOM     21  HE2 GLU A   1       7.458   3.861  15.389  0.00  0.00    +0.000 HD
ENDBRANCH  18  20
ENDBRANCH  17  18
ENDBRANCH  16  17
ENDBRANCH  11  16
ENDBRANCH   9  11
ENDBRANCH   4   7
BRANCH   1  22
ATOM     22  S   UNK A   0       0.693  11.291  19.740  0.00  0.00    +0.000 S 
ATOM     23  O   UNK A   0       1.127  12.056  18.595  0.00  0.00    +0.000 OA
ATOM     24  O   UNK A   0       1.041  11.705  21.083  0.00  0.00    +0.000 OA
BRANCH  22  25
ATOM     25  N   UNK A   0      -1.038  11.014  19.697  0.00  0.00    +0.000 NA
BRANCH  25  26
ATOM     26  C   UNK A   0      -1.770  12.337  19.840  0.00  0.00    +0.000 C 
BRANCH  26  28
ATOM     27  C   UNK A   0      -3.980  12.967  20.977  0.00  0.00    +0.000 C 
ATOM     28  C   UNK A   0      -2.525  12.576  21.149  0.00  0.00    +0.000 C 
ENDBRANCH  26  28
ENDBRANCH  25  26
BRANCH  25  29
ATOM     29  C   UNK A   0      -1.519  10.212  18.521  0.00  0.00    +0.000 C 
BRANCH  29  30
ATOM     30  C   UNK A   0      -2.212  11.012  17.412  0.00  0.00    +0.000 C 
ATOM     31  C   UNK A   0      -3.653  10.610  17.142  0.00  0.00    +0.000 C 
ENDBRANCH  29  30
ENDBRANCH  25  29
ENDBRANCH  22  25
ENDBRANCH   1  22
TORSDOF 14
ENDMDL
MODEL 9
REMARK VINA RESULT:      -6.7      3.200      9.115
REMARK  Name = 
REMARK  16 active torsions:
REMARK  status: ('A' for Active; 'I' for Inactive)
REMARK    1  A    between atoms: C_1  and  C_2
REMARK    2  A    between atoms: C_2  and  C_3
REMARK    3  A    between atoms: C_3  and  N_4
REMARK    4  A    between atoms: N_4  and  C_5
REMARK    5  A    between atoms: N_4  and  S_8
REMARK    6  A    between atoms: C_5  and  C_6
REMARK    7  A    between atoms: C_6  and  C_7
REMARK    8  A    between atoms: S_8  and  C_11
REMARK    9  A    between atoms: C_14  and  C_15
REMARK   10  A    between atoms: N_17  and  CA_18
REMARK   11  A    between atoms: CA_18  and  CB_19
REMARK   12  A    between atoms: CA_18  and  C_24
REMARK   13  A    between atoms: CB_19  and  CG_20
REMARK   14  A    between atoms: CG_20  and  CD_21
REMARK   15  A    between atoms: CD_21  and  OE2_23
REMARK   16  A    between atoms: C_24  and  OXT_26
REMARK                            x       y       z     vdW  Elec       q    Type
REMARK                         _______ _______ _______ _____ _____    ______ ____
ROOT
ATOM      1  C   UNK A   0       0.933   9.982  19.607  0.00  0.00    +0.000 A 
ATOM      2  C   UNK A   0       1.386   9.889  18.287  0.00  0.00    +0.000 A 
ATOM      3  C   UNK A   0       2.032   8.732  17.856  0.00  0.00    +0.000 A 
ATOM      4  C   UNK A   0       2.238   7.672  18.747  0.00  0.00    +0.000 A 
ATOM      5  C   UNK A   0       1.833   7.798  20.085  0.00  0.00    +0.000 A 
ATOM      6  C   UNK A   0       1.173   8.952  20.517  0.00  0.00    +0.000 A 
ENDROOT
BRANCH   4   7
ATOM      7  C   UNK A   0       2.904   6.445  18.227  0.00  0.00    +0.000 C 
ATOM      8  O   UNK A   0       2.270   5.409  18.063  0.00  0.00    +0.000 OA
ATOM      9  N   GLU A   1       4.251   6.542  17.973  0.00  0.00    +0.000 N 
ATOM     10  H   GLU A   1       4.765   7.375  18.237  0.00  0.00    +0.000 HD
BRANCH   9  11
ATOM     11  CA  GLU A   1       5.042   5.410  17.493  0.00  0.00    +0.000 C 
BRANCH  11  12
ATOM     12  C   GLU A   1       6.414   5.538  18.160  0.00  0.00    +0.000 C 
ATOM     13  O   GLU A   1       6.682   5.047  19.250  0.00  0.00    +0.000 OA
BRANCH  12  14
ATOM     14  OXT GLU A   1       7.335   6.209  17.430  0.00  0.00    +0.000 OA
ATOM     15  HXT GLU A   1       7.576   5.785  16.575  0.00  0.00    +0.000 HD
ENDBRANCH  12  14
ENDBRANCH  11  12
BRANCH  11  16
ATOM     16  CB  GLU A   1       5.174   5.440  15.961  0.00  0.00    +0.000 C 
BRANCH  16  17
ATOM     17  CG  GLU A   1       5.620   4.119  15.334  0.00  0.00    +0.000 C 
BRANCH  17  18
ATOM     18  CD  GLU A   1       6.678   4.367  14.303  0.00  0.00    +0.000 C 
ATOM     19  OE1 GLU A   1       7.559   5.206  14.461  0.00  0.00    +0.000 OA
BRANCH  18  20
ATOM     20  OE2 GLU A   1       6.631   3.530  13.248  0.00  0.00    +0.000 OA
ATOM     21  HE2 GLU A   1       6.884   3.936  12.394  0.00  0.00    +0.000 HD
ENDBRANCH  18  20
ENDBRANCH  17  18
ENDBRANCH  16  17
ENDBRANCH  11  16
ENDBRANCH   9  11
ENDBRANCH   4   7
BRANCH   1  22
ATOM     22  S   UNK A   0       0.170  11.497  20.138  0.00  0.00    +0.000 S 
ATOM     23  O   UNK A   0       0.692  11.739  21.462  0.00  0.00    +0.000 OA
ATOM     24  O   UNK A   0      -1.257  11.387  19.914  0.00  0.00    +0.000 OA
BRANCH  22  25
ATOM     25  N   UNK A   0       0.806  12.655  18.985  0.00  0.00    +0.000 NA
BRANCH  25  26
ATOM     26  C   UNK A   0      -0.285  13.638  18.596  0.00  0.00    +0.000 C 
BRANCH  26  28
ATOM     27  C   UNK A   0      -0.357  16.200  18.547  0.00  0.00    +0.000 C 
ATOM     28  C   UNK A   0      -0.363  14.941  19.393  0.00  0.00    +0.000 C 
ENDBRANCH  26  28
ENDBRANCH  25  26
BRANCH  25  29
ATOM     29  C   UNK A   0       2.074  13.337  19.412  0.00  0.00    +0.000 C 
BRANCH  29  30
ATOM     30  C   UNK A   0       3.071  13.645  18.287  0.00  0.00    +0.000 C 
ATOM     31  C   UNK A   0       3.183  15.115  17.920  0.00  0.00    +0.000 C 
ENDBRANCH  29  30
ENDBRANCH  25  29
ENDBRANCH  22  25
ENDBRANCH   1  22
TORSDOF 14
ENDMDL
