MODEL 1
REMARK VINA RESULT:      -6.5      0.000      0.000
REMARK  Name = 
REMARK  11 active torsions:
REMARK  status: ('A' for Active; 'I' for Inactive)
REMARK    1  A    between atoms: C_1  and  C_2
REMARK    2  A    between atoms: C_2  and  O_3
REMARK    3  A    between atoms: O_3  and  C_4
REMARK    4  A    between atoms: C_4  and  C_6
REMARK    5  A    between atoms: C_6  and  C_7
REMARK    6  A    between atoms: C_6  and  S_8
REMARK    7  A    between atoms: S_8  and  C_9
REMARK    8  A    between atoms: N_17  and  C_18
REMARK    9  A    between atoms: C_19  and  C_20
REMARK   10  A    between atoms: C_22  and  C_23
REMARK   11  A    between atoms: C_25  and  C_26
REMARK                            x       y       z     vdW  Elec       q    Type
REMARK                         _______ _______ _______ _____ _____    ______ ____
ROOT
ATOM      1  C   UNL     1       4.563   4.716  18.794  0.00  0.00    +0.000 A 
ATOM      2  N   UNL     1       4.638   3.410  18.717  0.00  0.00    +0.000 NA
ATOM      3  C   UNL     1       3.343   2.981  18.724  0.00  0.00    +0.000 A 
ATOM      4  C   UNL     1       2.833   1.677  18.770  0.00  0.00    +0.000 A 
ATOM      5  C   UNL     1       1.451   1.536  18.849  0.00  0.00    +0.000 A 
ATOM      6  C   UNL     1       0.659   2.675  18.787  0.00  0.00    +0.000 A 
ATOM      7  N   UNL     1       1.105   3.941  18.664  0.00  0.00    +0.000 NA
ATOM      8  C   UNL     1       2.457   4.049  18.699  0.00  0.00    +0.000 A 
ATOM      9  N   UNL     1       3.248   5.207  18.754  0.00  0.00    +0.000 N 
ENDROOT
BRANCH   9  10
ATOM     10  C   UNL     1       2.772   6.575  18.799  0.00  0.00    +0.000 A 
ATOM     11  C   UNL     1       1.954   7.018  19.879  0.00  0.00    +0.000 A 
ATOM     12  C   UNL     1       1.576   6.239  21.114  0.00  0.00    +0.000 C 
ATOM     13  C   UNL     1       1.426   8.332  19.862  0.00  0.00    +0.000 A 
ATOM     14  C   UNL     1       1.749   9.243  18.865  0.00  0.00    +0.000 A 
ATOM     15  C   UNL     1       1.195  10.636  18.866  0.00  0.00    +0.000 C 
ATOM     16  C   UNL     1       2.600   8.833  17.848  0.00  0.00    +0.000 A 
ATOM     17  C   UNL     1       3.072   7.506  17.759  0.00  0.00    +0.000 A 
ATOM     18  C   UNL     1       3.825   7.228  16.484  0.00  0.00    +0.000 C 
ENDBRANCH   9  10
BRANCH   1  19
ATOM     19  S   UNL     1       5.979   5.649  19.179  0.00  0.00    +0.000 S 
BRANCH  19  20
ATOM     20  C   UNL     1       7.160   5.127  17.859  0.00  0.00    +0.000 C 
ATOM     21  C   UNL     1       8.493   4.595  18.387  0.00  0.00    +0.000 C 
BRANCH  20  22
ATOM     22  C   UNL     1       7.354   6.237  16.836  0.00  0.00    +0.000 C 
ATOM     23  O   UNL     1       7.572   7.413  17.101  0.00  0.00    +0.000 OA
BRANCH  22  24
ATOM     24  O   UNL     1       7.330   5.716  15.574  0.00  0.00    +0.000 OA
BRANCH  24  26
ATOM     25  C   UNL     1       6.477   4.158  13.953  0.00  0.00    +0.000 C 
ATOM     26  C   UNL     1       6.230   4.850  15.281  0.00  0.00    +0.000 C 
ENDBRANCH  24  26
ENDBRANCH  22  24
ENDBRANCH  20  22
ENDBRANCH  19  20
ENDBRANCH   1  19
TORSDOF 6
ENDMDL
MODEL 2
REMARK VINA RESULT:      -6.2      0.448      1.792
REMARK  Name = 
REMARK  11 active torsions:
REMARK  status: ('A' for Active; 'I' for Inactive)
REMARK    1  A    between atoms: C_1  and  C_2
REMARK    2  A    between atoms: C_2  and  O_3
REMARK    3  A    between atoms: O_3  and  C_4
REMARK    4  A    between atoms: C_4  and  C_6
REMARK    5  A    between atoms: C_6  and  C_7
REMARK    6  A    between atoms: C_6  and  S_8
REMARK    7  A    between atoms: S_8  and  C_9
REMARK    8  A    between atoms: N_17  and  C_18
REMARK    9  A    between atoms: C_19  and  C_20
REMARK   10  A    between atoms: C_22  and  C_23
REMARK   11  A    between atoms: C_25  and  C_26
REMARK                            x       y       z     vdW  Elec       q    Type
REMARK                         _______ _______ _______ _____ _____    ______ ____
ROOT
ATOM      1  C   UNL     1       4.568   4.833  18.872  0.00  0.00    +0.000 A 
ATOM      2  N   UNL     1       4.700   3.530  18.809  0.00  0.00    +0.000 NA
ATOM      3  C   UNL     1       3.425   3.048  18.759  0.00  0.00    +0.000 A 
ATOM      4  C   UNL     1       2.968   1.725  18.793  0.00  0.00    +0.000 A 
ATOM      5  C   UNL     1       1.590   1.527  18.808  0.00  0.00    +0.000 A 
ATOM      6  C   UNL     1       0.756   2.631  18.699  0.00  0.00    +0.000 A 
ATOM      7  N   UNL     1       1.155   3.914  18.586  0.00  0.00    +0.000 NA
ATOM      8  C   UNL     1       2.498   4.079  18.683  0.00  0.00    +0.000 A 
ATOM      9  N   UNL     1       3.237   5.268  18.766  0.00  0.00    +0.000 N 
ENDROOT
BRANCH   9  10
ATOM     10  C   UNL     1       2.704   6.616  18.776  0.00  0.00    +0.000 A 
ATOM     11  C   UNL     1       3.032   7.529  17.731  0.00  0.00    +0.000 A 
ATOM     12  C   UNL     1       3.825   7.236  16.482  0.00  0.00    +0.000 C 
ATOM     13  C   UNL     1       2.573   8.866  17.802  0.00  0.00    +0.000 A 
ATOM     14  C   UNL     1       1.735   9.304  18.820  0.00  0.00    +0.000 A 
ATOM     15  C   UNL     1       1.243  10.720  18.876  0.00  0.00    +0.000 C 
ATOM     16  C   UNL     1       1.360   8.398  19.801  0.00  0.00    +0.000 A 
ATOM     17  C   UNL     1       1.870   7.082  19.837  0.00  0.00    +0.000 A 
ATOM     18  C   UNL     1       1.483   6.329  21.083  0.00  0.00    +0.000 C 
ENDBRANCH   9  10
BRANCH   1  19
ATOM     19  S   UNL     1       5.924   5.826  19.314  0.00  0.00    +0.000 S 
BRANCH  19  20
ATOM     20  C   UNL     1       7.292   5.085  18.319  0.00  0.00    +0.000 C 
ATOM     21  C   UNL     1       8.648   5.082  19.025  0.00  0.00    +0.000 C 
BRANCH  20  22
ATOM     22  C   UNL     1       7.367   5.726  16.941  0.00  0.00    +0.000 C 
ATOM     23  O   UNL     1       7.338   6.930  16.718  0.00  0.00    +0.000 OA
BRANCH  22  24
ATOM     24  O   UNL     1       7.554   4.764  15.989  0.00  0.00    +0.000 OA
BRANCH  24  26
ATOM     25  C   UNL     1       5.636   4.627  14.545  0.00  0.00    +0.000 C 
ATOM     26  C   UNL     1       6.406   3.970  15.677  0.00  0.00    +0.000 C 
ENDBRANCH  24  26
ENDBRANCH  22  24
ENDBRANCH  20  22
ENDBRANCH  19  20
ENDBRANCH   1  19
TORSDOF 6
ENDMDL
MODEL 3
REMARK VINA RESULT:      -6.2      0.927      1.202
REMARK  Name = 
REMARK  11 active torsions:
REMARK  status: ('A' for Active; 'I' for Inactive)
REMARK    1  A    between atoms: C_1  and  C_2
REMARK    2  A    between atoms: C_2  and  O_3
REMARK    3  A    between atoms: O_3  and  C_4
REMARK    4  A    between atoms: C_4  and  C_6
REMARK    5  A    between atoms: C_6  and  C_7
REMARK    6  A    between atoms: C_6  and  S_8
REMARK    7  A    between atoms: S_8  and  C_9
REMARK    8  A    between atoms: N_17  and  C_18
REMARK    9  A    between atoms: C_19  and  C_20
REMARK   10  A    between atoms: C_22  and  C_23
REMARK   11  A    between atoms: C_25  and  C_26
REMARK                            x       y       z     vdW  Elec       q    Type
REMARK                         _______ _______ _______ _____ _____    ______ ____
ROOT
ATOM      1  C   UNL     1       5.141   4.819  18.973  0.00  0.00    +0.000 A 
ATOM      2  N   UNL     1       5.354   3.527  18.904  0.00  0.00    +0.000 NA
ATOM      3  C   UNL     1       4.126   2.978  18.682  0.00  0.00    +0.000 A 
ATOM      4  C   UNL     1       3.744   1.631  18.633  0.00  0.00    +0.000 A 
ATOM      5  C   UNL     1       2.389   1.358  18.469  0.00  0.00    +0.000 A 
ATOM      6  C   UNL     1       1.513   2.418  18.275  0.00  0.00    +0.000 A 
ATOM      7  N   UNL     1       1.850   3.723  18.238  0.00  0.00    +0.000 NA
ATOM      8  C   UNL     1       3.158   3.958  18.509  0.00  0.00    +0.000 A 
ATOM      9  N   UNL     1       3.812   5.184  18.707  0.00  0.00    +0.000 N 
ENDROOT
BRANCH   9  10
ATOM     10  C   UNL     1       3.205   6.499  18.675  0.00  0.00    +0.000 A 
ATOM     11  C   UNL     1       2.342   6.921  19.729  0.00  0.00    +0.000 A 
ATOM     12  C   UNL     1       2.036   6.180  21.006  0.00  0.00    +0.000 C 
ATOM     13  C   UNL     1       1.689   8.174  19.638  0.00  0.00    +0.000 A 
ATOM     14  C   UNL     1       1.927   9.054  18.591  0.00  0.00    +0.000 A 
ATOM     15  C   UNL     1       1.241  10.386  18.513  0.00  0.00    +0.000 C 
ATOM     16  C   UNL     1       2.819   8.673  17.598  0.00  0.00    +0.000 A 
ATOM     17  C   UNL     1       3.418   7.395  17.584  0.00  0.00    +0.000 A 
ATOM     18  C   UNL     1       4.200   7.121  16.326  0.00  0.00    +0.000 C 
ENDBRANCH   9  10
BRANCH   1  19
ATOM     19  S   UNL     1       6.372   5.872  19.604  0.00  0.00    +0.000 S 
BRANCH  19  20
ATOM     20  C   UNL     1       7.423   6.178  18.117  0.00  0.00    +0.000 C 
ATOM     21  C   UNL     1       7.034   7.425  17.322  0.00  0.00    +0.000 C 
BRANCH  20  22
ATOM     22  C   UNL     1       7.492   4.939  17.237  0.00  0.00    +0.000 C 
ATOM     23  O   UNL     1       8.201   3.962  17.446  0.00  0.00    +0.000 OA
BRANCH  22  24
ATOM     24  O   UNL     1       6.585   5.039  16.220  0.00  0.00    +0.000 OA
BRANCH  24  26
ATOM     25  C   UNL     1       5.864   4.098  14.128  0.00  0.00    +0.000 C 
ATOM     26  C   UNL     1       7.044   4.608  14.936  0.00  0.00    +0.000 C 
ENDBRANCH  24  26
ENDBRANCH  22  24
ENDBRANCH  20  22
ENDBRANCH  19  20
ENDBRANCH   1  19
TORSDOF 6
ENDMDL
MODEL 4
REMARK VINA RESULT:      -6.2      1.116      2.634
REMARK  Name = 
REMARK  11 active torsions:
REMARK  status: ('A' for Active; 'I' for Inactive)
REMARK    1  A    between atoms: C_1  and  C_2
REMARK    2  A    between atoms: C_2  and  O_3
REMARK    3  A    between atoms: O_3  and  C_4
REMARK    4  A    between atoms: C_4  and  C_6
REMARK    5  A    between atoms: C_6  and  C_7
REMARK    6  A    between atoms: C_6  and  S_8
REMARK    7  A    between atoms: S_8  and  C_9
REMARK    8  A    between atoms: N_17  and  C_18
REMARK    9  A    between atoms: C_19  and  C_20
REMARK   10  A    between atoms: C_22  and  C_23
REMARK   11  A    between atoms: C_25  and  C_26
REMARK                            x       y       z     vdW  Elec       q    Type
REMARK                         _______ _______ _______ _____ _____    ______ ____
ROOT
ATOM      1  C   UNL     1       4.671   4.683  18.912  0.00  0.00    +0.000 A 
ATOM      2  N   UNL     1       4.753   3.375  18.922  0.00  0.00    +0.000 NA
ATOM      3  C   UNL     1       3.462   2.940  18.867  0.00  0.00    +0.000 A 
ATOM      4  C   UNL     1       2.952   1.638  18.960  0.00  0.00    +0.000 A 
ATOM      5  C   UNL     1       1.568   1.494  18.952  0.00  0.00    +0.000 A 
ATOM      6  C   UNL     1       0.780   2.621  18.765  0.00  0.00    +0.000 A 
ATOM      7  N   UNL     1       1.232   3.880  18.594  0.00  0.00    +0.000 NA
ATOM      8  C   UNL     1       2.578   3.999  18.715  0.00  0.00    +0.000 A 
ATOM      9  N   UNL     1       3.361   5.163  18.752  0.00  0.00    +0.000 N 
ENDROOT
BRANCH   9  10
ATOM     10  C   UNL     1       2.880   6.528  18.678  0.00  0.00    +0.000 A 
ATOM     11  C   UNL     1       3.279   7.375  17.603  0.00  0.00    +0.000 A 
ATOM     12  C   UNL     1       4.102   6.991  16.399  0.00  0.00    +0.000 C 
ATOM     13  C   UNL     1       2.870   8.731  17.594  0.00  0.00    +0.000 A 
ATOM     14  C   UNL     1       2.016   9.249  18.558  0.00  0.00    +0.000 A 
ATOM     15  C   UNL     1       1.579  10.684  18.529  0.00  0.00    +0.000 C 
ATOM     16  C   UNL     1       1.573   8.407  19.568  0.00  0.00    +0.000 A 
ATOM     17  C   UNL     1       2.030   7.077  19.685  0.00  0.00    +0.000 A 
ATOM     18  C   UNL     1       1.572   6.402  20.952  0.00  0.00    +0.000 C 
ENDBRANCH   9  10
BRANCH   1  19
ATOM     19  S   UNL     1       6.055   5.646  19.334  0.00  0.00    +0.000 S 
BRANCH  19  20
ATOM     20  C   UNL     1       7.183   5.358  17.900  0.00  0.00    +0.000 C 
ATOM     21  C   UNL     1       8.340   4.404  18.197  0.00  0.00    +0.000 C 
BRANCH  20  22
ATOM     22  C   UNL     1       7.666   6.678  17.318  0.00  0.00    +0.000 C 
ATOM     23  O   UNL     1       7.722   6.946  16.124  0.00  0.00    +0.000 OA
BRANCH  22  24
ATOM     24  O   UNL     1       7.955   7.554  18.326  0.00  0.00    +0.000 OA
BRANCH  24  26
ATOM     25  C   UNL     1       8.991   9.648  18.894  0.00  0.00    +0.000 C 
ATOM     26  C   UNL     1       8.050   8.929  17.944  0.00  0.00    +0.000 C 
ENDBRANCH  24  26
ENDBRANCH  22  24
ENDBRANCH  20  22
ENDBRANCH  19  20
ENDBRANCH   1  19
TORSDOF 6
ENDMDL
MODEL 5
REMARK VINA RESULT:      -6.1      1.270      1.540
REMARK  Name = 
REMARK  11 active torsions:
REMARK  status: ('A' for Active; 'I' for Inactive)
REMARK    1  A    between atoms: C_1  and  C_2
REMARK    2  A    between atoms: C_2  and  O_3
REMARK    3  A    between atoms: O_3  and  C_4
REMARK    4  A    between atoms: C_4  and  C_6
REMARK    5  A    between atoms: C_6  and  C_7
REMARK    6  A    between atoms: C_6  and  S_8
REMARK    7  A    between atoms: S_8  and  C_9
REMARK    8  A    between atoms: N_17  and  C_18
REMARK    9  A    between atoms: C_19  and  C_20
REMARK   10  A    between atoms: C_22  and  C_23
REMARK   11  A    between atoms: C_25  and  C_26
REMARK                            x       y       z     vdW  Elec       q    Type
REMARK                         _______ _______ _______ _____ _____    ______ ____
ROOT
ATOM      1  C   UNL     1       3.974   5.546  17.672  0.00  0.00    +0.000 A 
ATOM      2  N   UNL     1       4.140   4.379  17.098  0.00  0.00    +0.000 NA
ATOM      3  C   UNL     1       3.120   3.606  17.568  0.00  0.00    +0.000 A 
ATOM      4  C   UNL     1       2.871   2.241  17.374  0.00  0.00    +0.000 A 
ATOM      5  C   UNL     1       1.785   1.690  18.048  0.00  0.00    +0.000 A 
ATOM      6  C   UNL     1       0.966   2.528  18.793  0.00  0.00    +0.000 A 
ATOM      7  N   UNL     1       1.126   3.858  18.942  0.00  0.00    +0.000 NA
ATOM      8  C   UNL     1       2.252   4.342  18.362  0.00  0.00    +0.000 A 
ATOM      9  N   UNL     1       2.807   5.628  18.449  0.00  0.00    +0.000 N 
ENDROOT
BRANCH   9  10
ATOM     10  C   UNL     1       2.283   6.743  19.212  0.00  0.00    +0.000 A 
ATOM     11  C   UNL     1       1.953   6.582  20.590  0.00  0.00    +0.000 A 
ATOM     12  C   UNL     1       2.186   5.362  21.445  0.00  0.00    +0.000 C 
ATOM     13  C   UNL     1       1.361   7.657  21.296  0.00  0.00    +0.000 A 
ATOM     14  C   UNL     1       1.166   8.903  20.714  0.00  0.00    +0.000 A 
ATOM     15  C   UNL     1       0.550  10.038  21.477  0.00  0.00    +0.000 C 
ATOM     16  C   UNL     1       1.549   9.080  19.392  0.00  0.00    +0.000 A 
ATOM     17  C   UNL     1       2.048   8.017  18.610  0.00  0.00    +0.000 A 
ATOM     18  C   UNL     1       2.224   8.379  17.159  0.00  0.00    +0.000 C 
ENDBRANCH   9  10
BRANCH   1  19
ATOM     19  S   UNL     1       5.252   6.724  17.640  0.00  0.00    +0.000 S 
BRANCH  19  20
ATOM     20  C   UNL     1       6.731   5.707  18.077  0.00  0.00    +0.000 C 
ATOM     21  C   UNL     1       7.780   6.452  18.903  0.00  0.00    +0.000 C 
BRANCH  20  22
ATOM     22  C   UNL     1       7.332   5.065  16.835  0.00  0.00    +0.000 C 
ATOM     23  O   UNL     1       8.116   4.124  16.835  0.00  0.00    +0.000 OA
BRANCH  22  24
ATOM     24  O   UNL     1       6.807   5.641  15.713  0.00  0.00    +0.000 OA
BRANCH  24  26
ATOM     25  C   UNL     1       5.779   4.206  14.081  0.00  0.00    +0.000 C 
ATOM     26  C   UNL     1       7.044   4.941  14.489  0.00  0.00    +0.000 C 
ENDBRANCH  24  26
ENDBRANCH  22  24
ENDBRANCH  20  22
ENDBRANCH  19  20
ENDBRANCH   1  19
TORSDOF 6
ENDMDL
MODEL 6
REMARK VINA RESULT:      -6.0      0.927      2.114
REMARK  Name = 
REMARK  11 active torsions:
REMARK  status: ('A' for Active; 'I' for Inactive)
REMARK    1  A    between atoms: C_1  and  C_2
REMARK    2  A    between atoms: C_2  and  O_3
REMARK    3  A    between atoms: O_3  and  C_4
REMARK    4  A    between atoms: C_4  and  C_6
REMARK    5  A    between atoms: C_6  and  C_7
REMARK    6  A    between atoms: C_6  and  S_8
REMARK    7  A    between atoms: S_8  and  C_9
REMARK    8  A    between atoms: N_17  and  C_18
REMARK    9  A    between atoms: C_19  and  C_20
REMARK   10  A    between atoms: C_22  and  C_23
REMARK   11  A    between atoms: C_25  and  C_26
REMARK                            x       y       z     vdW  Elec       q    Type
REMARK                         _______ _______ _______ _____ _____    ______ ____
ROOT
ATOM      1  C   UNL     1       5.121   4.850  18.965  0.00  0.00    +0.000 A 
ATOM      2  N   UNL     1       5.355   3.562  18.913  0.00  0.00    +0.000 NA
ATOM      3  C   UNL     1       4.137   2.990  18.691  0.00  0.00    +0.000 A 
ATOM      4  C   UNL     1       3.778   1.637  18.657  0.00  0.00    +0.000 A 
ATOM      5  C   UNL     1       2.429   1.340  18.487  0.00  0.00    +0.000 A 
ATOM      6  C   UNL     1       1.537   2.383  18.275  0.00  0.00    +0.000 A 
ATOM      7  N   UNL     1       1.853   3.692  18.223  0.00  0.00    +0.000 NA
ATOM      8  C   UNL     1       3.156   3.952  18.499  0.00  0.00    +0.000 A 
ATOM      9  N   UNL     1       3.788   5.191  18.685  0.00  0.00    +0.000 N 
ENDROOT
BRANCH   9  10
ATOM     10  C   UNL     1       3.161   6.496  18.632  0.00  0.00    +0.000 A 
ATOM     11  C   UNL     1       3.411   7.371  17.535  0.00  0.00    +0.000 A 
ATOM     12  C   UNL     1       4.207   7.067  16.291  0.00  0.00    +0.000 C 
ATOM     13  C   UNL     1       2.859   8.675  17.542  0.00  0.00    +0.000 A 
ATOM     14  C   UNL     1       2.004   9.108  18.548  0.00  0.00    +0.000 A 
ATOM     15  C   UNL     1       1.414  10.487  18.537  0.00  0.00    +0.000 C 
ATOM     16  C   UNL     1       1.706   8.232  19.582  0.00  0.00    +0.000 A 
ATOM     17  C   UNL     1       2.308   6.960  19.680  0.00  0.00    +0.000 A 
ATOM     18  C   UNL     1       1.991   6.250  20.971  0.00  0.00    +0.000 C 
ENDBRANCH   9  10
BRANCH   1  19
ATOM     19  S   UNL     1       6.331   5.932  19.589  0.00  0.00    +0.000 S 
BRANCH  19  20
ATOM     20  C   UNL     1       7.411   6.202  18.116  0.00  0.00    +0.000 C 
ATOM     21  C   UNL     1       7.046   7.437  17.291  0.00  0.00    +0.000 C 
BRANCH  20  22
ATOM     22  C   UNL     1       7.485   4.946  17.261  0.00  0.00    +0.000 C 
ATOM     23  O   UNL     1       8.192   3.973  17.494  0.00  0.00    +0.000 OA
BRANCH  22  24
ATOM     24  O   UNL     1       6.588   5.028  16.234  0.00  0.00    +0.000 OA
BRANCH  24  26
ATOM     25  C   UNL     1       6.060   3.943  14.154  0.00  0.00    +0.000 C 
ATOM     26  C   UNL     1       7.102   4.725  14.935  0.00  0.00    +0.000 C 
ENDBRANCH  24  26
ENDBRANCH  22  24
ENDBRANCH  20  22
ENDBRANCH  19  20
ENDBRANCH   1  19
TORSDOF 6
ENDMDL
MODEL 7
REMARK VINA RESULT:      -5.9      5.249      8.277
REMARK  Name = 
REMARK  11 active torsions:
REMARK  status: ('A' for Active; 'I' for Inactive)
REMARK    1  A    between atoms: C_1  and  C_2
REMARK    2  A    between atoms: C_2  and  O_3
REMARK    3  A    between atoms: O_3  and  C_4
REMARK    4  A    between atoms: C_4  and  C_6
REMARK    5  A    between atoms: C_6  and  C_7
REMARK    6  A    between atoms: C_6  and  S_8
REMARK    7  A    between atoms: S_8  and  C_9
REMARK    8  A    between atoms: N_17  and  C_18
REMARK    9  A    between atoms: C_19  and  C_20
REMARK   10  A    between atoms: C_22  and  C_23
REMARK   11  A    between atoms: C_25  and  C_26
REMARK                            x       y       z     vdW  Elec       q    Type
REMARK                         _______ _______ _______ _____ _____    ______ ____
ROOT
ATOM      1  C   UNL     1      -0.496  11.215  19.084  0.00  0.00    +0.000 A 
ATOM      2  N   UNL     1      -1.093  10.449  18.203  0.00  0.00    +0.000 NA
ATOM      3  C   UNL     1      -2.408  10.805  18.258  0.00  0.00    +0.000 A 
ATOM      4  C   UNL     1      -3.515  10.238  17.614  0.00  0.00    +0.000 A 
ATOM      5  C   UNL     1      -4.768  10.762  17.921  0.00  0.00    +0.000 A 
ATOM      6  C   UNL     1      -4.843  11.860  18.767  0.00  0.00    +0.000 A 
ATOM      7  N   UNL     1      -3.798  12.483  19.346  0.00  0.00    +0.000 NA
ATOM      8  C   UNL     1      -2.604  11.882  19.111  0.00  0.00    +0.000 A 
ATOM      9  N   UNL     1      -1.350  12.161  19.674  0.00  0.00    +0.000 N 
ENDROOT
BRANCH   9  10
ATOM     10  C   UNL     1      -1.056  13.177  20.665  0.00  0.00    +0.000 A 
ATOM     11  C   UNL     1      -0.538  14.444  20.266  0.00  0.00    +0.000 A 
ATOM     12  C   UNL     1      -0.336  14.942  18.857  0.00  0.00    +0.000 C 
ATOM     13  C   UNL     1      -0.175  15.392  21.253  0.00  0.00    +0.000 A 
ATOM     14  C   UNL     1      -0.388  15.165  22.607  0.00  0.00    +0.000 A 
ATOM     15  C   UNL     1      -0.013  16.183  23.642  0.00  0.00    +0.000 C 
ATOM     16  C   UNL     1      -0.956  13.959  22.992  0.00  0.00    +0.000 A 
ATOM     17  C   UNL     1      -1.241  12.937  22.060  0.00  0.00    +0.000 A 
ATOM     18  C   UNL     1      -1.675  11.648  22.708  0.00  0.00    +0.000 C 
ENDBRANCH   9  10
BRANCH   1  19
ATOM     19  S   UNL     1       1.122  10.850  19.603  0.00  0.00    +0.000 S 
BRANCH  19  20
ATOM     20  C   UNL     1       1.115   9.004  19.635  0.00  0.00    +0.000 C 
ATOM     21  C   UNL     1       1.424   8.401  21.006  0.00  0.00    +0.000 C 
BRANCH  20  22
ATOM     22  C   UNL     1       2.016   8.440  18.547  0.00  0.00    +0.000 C 
ATOM     23  O   UNL     1       2.180   8.934  17.438  0.00  0.00    +0.000 OA
BRANCH  22  24
ATOM     24  O   UNL     1       2.682   7.343  19.016  0.00  0.00    +0.000 OA
BRANCH  24  26
ATOM     25  C   UNL     1       2.206   5.222  17.987  0.00  0.00    +0.000 C 
ATOM     26  C   UNL     1       3.137   6.422  18.021  0.00  0.00    +0.000 C 
ENDBRANCH  24  26
ENDBRANCH  22  24
ENDBRANCH  20  22
ENDBRANCH  19  20
ENDBRANCH   1  19
TORSDOF 6
ENDMDL
MODEL 8
REMARK VINA RESULT:      -5.9      5.304      8.831
REMARK  Name = 
REMARK  11 active torsions:
REMARK  status: ('A' for Active; 'I' for Inactive)
REMARK    1  A    between atoms: C_1  and  C_2
REMARK    2  A    between atoms: C_2  and  O_3
REMARK    3  A    between atoms: O_3  and  C_4
REMARK    4  A    between atoms: C_4  and  C_6
REMARK    5  A    between atoms: C_6  and  C_7
REMARK    6  A    between atoms: C_6  and  S_8
REMARK    7  A    between atoms: S_8  and  C_9
REMARK    8  A    between atoms: N_17  and  C_18
REMARK    9  A    between atoms: C_19  and  C_20
REMARK   10  A    between atoms: C_22  and  C_23
REMARK   11  A    between atoms: C_25  and  C_26
REMARK                            x       y       z     vdW  Elec       q    Type
REMARK                         _______ _______ _______ _____ _____    ______ ____
ROOT
ATOM      1  C   UNL     1       0.179  11.528  20.116  0.00  0.00    +0.000 A 
ATOM      2  N   UNL     1       1.386  12.035  20.193  0.00  0.00    +0.000 NA
ATOM      3  C   UNL     1       1.258  13.318  19.751  0.00  0.00    +0.000 A 
ATOM      4  C   UNL     1       2.244  14.285  19.517  0.00  0.00    +0.000 A 
ATOM      5  C   UNL     1       1.830  15.502  18.982  0.00  0.00    +0.000 A 
ATOM      6  C   UNL     1       0.471  15.721  18.797  0.00  0.00    +0.000 A 
ATOM      7  N   UNL     1      -0.515  14.848  19.081  0.00  0.00    +0.000 NA
ATOM      8  C   UNL     1      -0.069  13.636  19.498  0.00  0.00    +0.000 A 
ATOM      9  N   UNL     1      -0.797  12.458  19.727  0.00  0.00    +0.000 N 
ENDROOT
BRANCH   9  10
ATOM     10  C   UNL     1      -2.224  12.279  19.549  0.00  0.00    +0.000 A 
ATOM     11  C   UNL     1      -2.731  11.665  18.366  0.00  0.00    +0.000 A 
ATOM     12  C   UNL     1      -1.932  11.044  17.249  0.00  0.00    +0.000 C 
ATOM     13  C   UNL     1      -4.131  11.577  18.170  0.00  0.00    +0.000 A 
ATOM     14  C   UNL     1      -5.038  11.993  19.137  0.00  0.00    +0.000 A 
ATOM     15  C   UNL     1      -6.518  11.881  18.924  0.00  0.00    +0.000 C 
ATOM     16  C   UNL     1      -4.544  12.528  20.318  0.00  0.00    +0.000 A 
ATOM     17  C   UNL     1      -3.163  12.736  20.523  0.00  0.00    +0.000 A 
ATOM     18  C   UNL     1      -2.858  13.497  21.787  0.00  0.00    +0.000 C 
ENDBRANCH   9  10
BRANCH   1  19
ATOM     19  S   UNL     1      -0.053   9.810  20.238  0.00  0.00    +0.000 S 
BRANCH  19  20
ATOM     20  C   UNL     1       1.465   9.151  19.419  0.00  0.00    +0.000 C 
ATOM     21  C   UNL     1       1.394   9.130  17.892  0.00  0.00    +0.000 C 
BRANCH  20  22
ATOM     22  C   UNL     1       1.843   7.793  19.992  0.00  0.00    +0.000 C 
ATOM     23  O   UNL     1       1.377   7.301  21.012  0.00  0.00    +0.000 OA
BRANCH  22  24
ATOM     24  O   UNL     1       2.722   7.164  19.156  0.00  0.00    +0.000 OA
BRANCH  24  26
ATOM     25  C   UNL     1       2.083   5.140  18.026  0.00  0.00    +0.000 C 
ATOM     26  C   UNL     1       2.754   5.737  19.250  0.00  0.00    +0.000 C 
ENDBRANCH  24  26
ENDBRANCH  22  24
ENDBRANCH  20  22
ENDBRANCH  19  20
ENDBRANCH   1  19
TORSDOF 6
ENDMDL
MODEL 9
REMARK VINA RESULT:      -5.9      5.212      8.192
REMARK  Name = 
REMARK  11 active torsions:
REMARK  status: ('A' for Active; 'I' for Inactive)
REMARK    1  A    between atoms: C_1  and  C_2
REMARK    2  A    between atoms: C_2  and  O_3
REMARK    3  A    between atoms: O_3  and  C_4
REMARK    4  A    between atoms: C_4  and  C_6
REMARK    5  A    between atoms: C_6  and  C_7
REMARK    6  A    between atoms: C_6  and  S_8
REMARK    7  A    between atoms: S_8  and  C_9
REMARK    8  A    between atoms: N_17  and  C_18
REMARK    9  A    between atoms: C_19  and  C_20
REMARK   10  A    between atoms: C_22  and  C_23
REMARK   11  A    between atoms: C_25  and  C_26
REMARK                            x       y       z     vdW  Elec       q    Type
REMARK                         _______ _______ _______ _____ _____    ______ ____
ROOT
ATOM      1  C   UNL     1      -0.398  11.110  19.108  0.00  0.00    +0.000 A 
ATOM      2  N   UNL     1      -0.979  10.364  18.201  0.00  0.00    +0.000 NA
ATOM      3  C   UNL     1      -2.294  10.725  18.237  0.00  0.00    +0.000 A 
ATOM      4  C   UNL     1      -3.390  10.176  17.559  0.00  0.00    +0.000 A 
ATOM      5  C   UNL     1      -4.646  10.698  17.852  0.00  0.00    +0.000 A 
ATOM      6  C   UNL     1      -4.735  11.779  18.720  0.00  0.00    +0.000 A 
ATOM      7  N   UNL     1      -3.699  12.386  19.332  0.00  0.00    +0.000 NA
ATOM      8  C   UNL     1      -2.503  11.784  19.109  0.00  0.00    +0.000 A 
ATOM      9  N   UNL     1      -1.259  12.047  19.702  0.00  0.00    +0.000 N 
ENDROOT
BRANCH   9  10
ATOM     10  C   UNL     1      -0.982  13.040  20.719  0.00  0.00    +0.000 A 
ATOM     11  C   UNL     1      -1.160  12.728  22.099  0.00  0.00    +0.000 A 
ATOM     12  C   UNL     1      -1.522  11.389  22.690  0.00  0.00    +0.000 C 
ATOM     13  C   UNL     1      -0.969  13.737  23.074  0.00  0.00    +0.000 A 
ATOM     14  C   UNL     1      -0.525  15.010  22.739  0.00  0.00    +0.000 A 
ATOM     15  C   UNL     1      -0.312  16.066  23.783  0.00  0.00    +0.000 C 
ATOM     16  C   UNL     1      -0.286  15.295  21.403  0.00  0.00    +0.000 A 
ATOM     17  C   UNL     1      -0.559  14.361  20.380  0.00  0.00    +0.000 A 
ATOM     18  C   UNL     1      -0.407  14.936  18.996  0.00  0.00    +0.000 C 
ENDBRANCH   9  10
BRANCH   1  19
ATOM     19  S   UNL     1       1.209  10.728  19.652  0.00  0.00    +0.000 S 
BRANCH  19  20
ATOM     20  C   UNL     1       1.054   8.945  20.107  0.00  0.00    +0.000 C 
ATOM     21  C   UNL     1       1.250   8.660  21.596  0.00  0.00    +0.000 C 
BRANCH  20  22
ATOM     22  C   UNL     1       1.956   8.084  19.237  0.00  0.00    +0.000 C 
ATOM     23  O   UNL     1       2.201   8.286  18.053  0.00  0.00    +0.000 OA
BRANCH  22  24
ATOM     24  O   UNL     1       2.520   7.092  19.989  0.00  0.00    +0.000 OA
BRANCH  24  26
ATOM     25  C   UNL     1       1.546   4.950  20.485  0.00  0.00    +0.000 C 
ATOM     26  C   UNL     1       2.353   5.763  19.488  0.00  0.00    +0.000 C 
ENDBRANCH  24  26
ENDBRANCH  22  24
ENDBRANCH  20  22
ENDBRANCH  19  20
ENDBRANCH   1  19
TORSDOF 6
ENDMDL
