MODEL 1
REMARK VINA RESULT:      -8.2      0.000      0.000
REMARK  Name = 
REMARK  6 active torsions:
REMARK  status: ('A' for Active; 'I' for Inactive)
REMARK    1  A    between atoms: C_1  and  C_2
REMARK    2  A    between atoms: C_3  and  C_4
REMARK    3  A    between atoms: C_4  and  O_6
REMARK    4  A    between atoms: O_6  and  C_7
REMARK    5  A    between atoms: C_11  and  C_12
REMARK    6  A    between atoms: C_14  and  C_15
REMARK                            x       y       z     vdW  Elec       q    Type
REMARK                         _______ _______ _______ _____ _____    ______ ____
ROOT
ATOM      1  C   UNL     1       7.735   8.421  17.422  0.00  0.00    +0.000 C 
ATOM      2  C   UNL     1       7.209   7.105  17.929  0.00  0.00    +0.000 C 
ATOM      3  C   UNL     1       6.157   6.370  17.505  0.00  0.00    +0.000 C 
ATOM      4  C   UNL     1       5.847   5.019  18.145  0.00  0.00    +0.000 C 
ATOM      5  N   UNL     1       6.623   4.801  19.350  0.00  0.00    +0.000 N 
ATOM      6  C   UNL     1       7.753   5.468  19.656  0.00  0.00    +0.000 C 
ATOM      7  O   UNL     1       8.505   5.095  20.552  0.00  0.00    +0.000 OA
ATOM      8  N   UNL     1       7.992   6.599  18.947  0.00  0.00    +0.000 N 
ATOM      9  H   UNL     1       6.471   3.953  19.880  0.00  0.00    +0.000 HD
ATOM     10  H   UNL     1       8.830   7.091  19.231  0.00  0.00    +0.000 HD
ENDROOT
BRANCH   4  11
ATOM     11  C   UNL     1       4.383   4.770  18.487  0.00  0.00    +0.000 A 
ATOM     12  C   UNL     1       3.642   3.823  17.759  0.00  0.00    +0.000 A 
ATOM     13  C   UNL     1       2.284   3.631  18.025  0.00  0.00    +0.000 A 
ATOM     14  C   UNL     1       1.660   4.366  19.028  0.00  0.00    +0.000 A 
ATOM     15  C   UNL     1       2.396   5.274  19.788  0.00  0.00    +0.000 A 
ATOM     16  C   UNL     1       3.752   5.468  19.528  0.00  0.00    +0.000 A 
ENDBRANCH   4  11
BRANCH   3  17
ATOM     17  C   UNL     1       5.341   6.635  16.282  0.00  0.00    +0.000 C 
ATOM     18  O   UNL     1       4.182   7.031  16.343  0.00  0.00    +0.000 OA
BRANCH  17  19
ATOM     19  O   UNL     1       5.952   6.263  15.126  0.00  0.00    +0.000 OA
BRANCH  19  20
ATOM     20  C   UNL     1       6.411   4.891  15.091  0.00  0.00    +0.000 C 
ATOM     21  C   UNL     1       7.835   4.867  14.522  0.00  0.00    +0.000 C 
ATOM     22  C   UNL     1       7.859   5.227  13.040  0.00  0.00    +0.000 C 
ATOM     23  C   UNL     1       7.032   4.233  12.244  0.00  0.00    +0.000 C 
ATOM     24  C   UNL     1       5.576   4.195  12.718  0.00  0.00    +0.000 C 
ATOM     25  C   UNL     1       4.844   3.064  11.986  0.00  0.00    +0.000 C 
ATOM     26  C   UNL     1       5.457   4.023  14.246  0.00  0.00    +0.000 C 
ENDBRANCH  19  20
ENDBRANCH  17  19
ENDBRANCH   3  17
TORSDOF 4
ENDMDL
MODEL 2
REMARK VINA RESULT:      -8.1      2.851      4.462
REMARK  Name = 
REMARK  6 active torsions:
REMARK  status: ('A' for Active; 'I' for Inactive)
REMARK    1  A    between atoms: C_1  and  C_2
REMARK    2  A    between atoms: C_3  and  C_4
REMARK    3  A    between atoms: C_4  and  O_6
REMARK    4  A    between atoms: O_6  and  C_7
REMARK    5  A    between atoms: C_11  and  C_12
REMARK    6  A    between atoms: C_14  and  C_15
REMARK                            x       y       z     vdW  Elec       q    Type
REMARK                         _______ _______ _______ _____ _____    ______ ____
ROOT
ATOM      1  C   UNL     1       4.625   2.019  20.117  0.00  0.00    +0.000 C 
ATOM      2  C   UNL     1       3.585   2.897  19.473  0.00  0.00    +0.000 C 
ATOM      3  C   UNL     1       3.695   4.150  18.978  0.00  0.00    +0.000 C 
ATOM      4  C   UNL     1       2.500   4.826  18.308  0.00  0.00    +0.000 C 
ATOM      5  N   UNL     1       1.272   4.084  18.518  0.00  0.00    +0.000 N 
ATOM      6  C   UNL     1       1.222   2.785  18.874  0.00  0.00    +0.000 C 
ATOM      7  O   UNL     1       0.184   2.133  18.807  0.00  0.00    +0.000 OA
ATOM      8  N   UNL     1       2.373   2.249  19.352  0.00  0.00    +0.000 N 
ATOM      9  H   UNL     1       0.408   4.459  18.151  0.00  0.00    +0.000 HD
ATOM     10  H   UNL     1       2.285   1.283  19.643  0.00  0.00    +0.000 HD
ENDROOT
BRANCH   4  11
ATOM     11  C   UNL     1       2.242   6.270  18.721  0.00  0.00    +0.000 A 
ATOM     12  C   UNL     1       1.940   6.576  20.060  0.00  0.00    +0.000 A 
ATOM     13  C   UNL     1       1.643   7.888  20.436  0.00  0.00    +0.000 A 
ATOM     14  C   UNL     1       1.661   8.906  19.488  0.00  0.00    +0.000 A 
ATOM     15  C   UNL     1       2.005   8.622  18.166  0.00  0.00    +0.000 A 
ATOM     16  C   UNL     1       2.305   7.314  17.786  0.00  0.00    +0.000 A 
ENDBRANCH   4  11
BRANCH   3  17
ATOM     17  C   UNL     1       4.966   4.917  18.810  0.00  0.00    +0.000 C 
ATOM     18  O   UNL     1       5.548   5.432  19.758  0.00  0.00    +0.000 OA
BRANCH  17  19
ATOM     19  O   UNL     1       5.324   5.102  17.512  0.00  0.00    +0.000 OA
BRANCH  19  20
ATOM     20  C   UNL     1       6.102   4.028  16.932  0.00  0.00    +0.000 C 
ATOM     21  C   UNL     1       7.522   4.542  16.667  0.00  0.00    +0.000 C 
ATOM     22  C   UNL     1       7.551   5.571  15.541  0.00  0.00    +0.000 C 
ATOM     23  C   UNL     1       7.040   4.954  14.251  0.00  0.00    +0.000 C 
ATOM     24  C   UNL     1       5.609   4.426  14.400  0.00  0.00    +0.000 C 
ATOM     25  C   UNL     1       5.219   3.678  13.120  0.00  0.00    +0.000 C 
ATOM     26  C   UNL     1       5.440   3.519  15.636  0.00  0.00    +0.000 C 
ENDBRANCH  19  20
ENDBRANCH  17  19
ENDBRANCH   3  17
TORSDOF 4
ENDMDL
MODEL 3
REMARK VINA RESULT:      -7.8      2.623      5.176
REMARK  Name = 
REMARK  6 active torsions:
REMARK  status: ('A' for Active; 'I' for Inactive)
REMARK    1  A    between atoms: C_1  and  C_2
REMARK    2  A    between atoms: C_3  and  C_4
REMARK    3  A    between atoms: C_4  and  O_6
REMARK    4  A    between atoms: O_6  and  C_7
REMARK    5  A    between atoms: C_11  and  C_12
REMARK    6  A    between atoms: C_14  and  C_15
REMARK                            x       y       z     vdW  Elec       q    Type
REMARK                         _______ _______ _______ _____ _____    ______ ____
ROOT
ATOM      1  C   UNL     1       7.269   8.319  17.633  0.00  0.00    +0.000 C 
ATOM      2  C   UNL     1       6.754   6.906  17.568  0.00  0.00    +0.000 C 
ATOM      3  C   UNL     1       5.497   6.449  17.367  0.00  0.00    +0.000 C 
ATOM      4  C   UNL     1       5.223   4.950  17.280  0.00  0.00    +0.000 C 
ATOM      5  N   UNL     1       6.373   4.165  17.685  0.00  0.00    +0.000 N 
ATOM      6  C   UNL     1       7.635   4.635  17.729  0.00  0.00    +0.000 C 
ATOM      7  O   UNL     1       8.603   3.889  17.841  0.00  0.00    +0.000 OA
ATOM      8  N   UNL     1       7.774   5.984  17.685  0.00  0.00    +0.000 N 
ATOM      9  H   UNL     1       6.293   3.157  17.704  0.00  0.00    +0.000 HD
ATOM     10  H   UNL     1       8.734   6.299  17.758  0.00  0.00    +0.000 HD
ENDROOT
BRANCH   4  11
ATOM     11  C   UNL     1       4.022   4.451  18.075  0.00  0.00    +0.000 A 
ATOM     12  C   UNL     1       2.865   4.019  17.403  0.00  0.00    +0.000 A 
ATOM     13  C   UNL     1       1.737   3.617  18.122  0.00  0.00    +0.000 A 
ATOM     14  C   UNL     1       1.759   3.625  19.514  0.00  0.00    +0.000 A 
ATOM     15  C   UNL     1       2.918   4.006  20.191  0.00  0.00    +0.000 A 
ATOM     16  C   UNL     1       4.046   4.406  19.476  0.00  0.00    +0.000 A 
ENDBRANCH   4  11
BRANCH   3  17
ATOM     17  C   UNL     1       4.314   7.280  16.993  0.00  0.00    +0.000 C 
ATOM     18  O   UNL     1       4.021   7.509  15.824  0.00  0.00    +0.000 OA
BRANCH  17  19
ATOM     19  O   UNL     1       3.695   7.859  18.055  0.00  0.00    +0.000 OA
BRANCH  19  20
ATOM     20  C   UNL     1       2.285   7.558  18.180  0.00  0.00    +0.000 C 
ATOM     21  C   UNL     1       1.485   8.676  17.502  0.00  0.00    +0.000 C 
ATOM     22  C   UNL     1       1.578   9.988  18.273  0.00  0.00    +0.000 C 
ATOM     23  C   UNL     1       1.022   9.815  19.676  0.00  0.00    +0.000 C 
ATOM     24  C   UNL     1       1.772   8.730  20.455  0.00  0.00    +0.000 C 
ATOM     25  C   UNL     1       1.060   8.497  21.794  0.00  0.00    +0.000 C 
ATOM     26  C   UNL     1       1.894   7.411  19.664  0.00  0.00    +0.000 C 
ENDBRANCH  19  20
ENDBRANCH  17  19
ENDBRANCH   3  17
TORSDOF 4
ENDMDL
MODEL 4
REMARK VINA RESULT:      -7.6      2.632      5.645
REMARK  Name = 
REMARK  6 active torsions:
REMARK  status: ('A' for Active; 'I' for Inactive)
REMARK    1  A    between atoms: C_1  and  C_2
REMARK    2  A    between atoms: C_3  and  C_4
REMARK    3  A    between atoms: C_4  and  O_6
REMARK    4  A    between atoms: O_6  and  C_7
REMARK    5  A    between atoms: C_11  and  C_12
REMARK    6  A    between atoms: C_14  and  C_15
REMARK                            x       y       z     vdW  Elec       q    Type
REMARK                         _______ _______ _______ _____ _____    ______ ____
ROOT
ATOM      1  C   UNL     1       7.680   6.718  17.888  0.00  0.00    +0.000 C 
ATOM      2  C   UNL     1       6.603   5.940  17.181  0.00  0.00    +0.000 C 
ATOM      3  C   UNL     1       5.343   5.650  17.574  0.00  0.00    +0.000 C 
ATOM      4  C   UNL     1       4.399   4.886  16.647  0.00  0.00    +0.000 C 
ATOM      5  N   UNL     1       5.096   4.334  15.502  0.00  0.00    +0.000 N 
ATOM      6  C   UNL     1       6.296   4.762  15.065  0.00  0.00    +0.000 C 
ATOM      7  O   UNL     1       6.739   4.442  13.966  0.00  0.00    +0.000 OA
ATOM      8  N   UNL     1       7.007   5.533  15.926  0.00  0.00    +0.000 N 
ATOM      9  H   UNL     1       4.576   3.774  14.840  0.00  0.00    +0.000 HD
ATOM     10  H   UNL     1       7.919   5.803  15.576  0.00  0.00    +0.000 HD
ENDROOT
BRANCH   4  11
ATOM     11  C   UNL     1       3.610   3.755  17.296  0.00  0.00    +0.000 A 
ATOM     12  C   UNL     1       2.222   3.884  17.483  0.00  0.00    +0.000 A 
ATOM     13  C   UNL     1       1.499   2.879  18.130  0.00  0.00    +0.000 A 
ATOM     14  C   UNL     1       2.148   1.733  18.580  0.00  0.00    +0.000 A 
ATOM     15  C   UNL     1       3.516   1.574  18.358  0.00  0.00    +0.000 A 
ATOM     16  C   UNL     1       4.241   2.573  17.710  0.00  0.00    +0.000 A 
ENDBRANCH   4  11
BRANCH   3  17
ATOM     17  C   UNL     1       4.656   6.196  18.782  0.00  0.00    +0.000 C 
ATOM     18  O   UNL     1       4.689   5.624  19.867  0.00  0.00    +0.000 OA
BRANCH  17  19
ATOM     19  O   UNL     1       3.889   7.289  18.528  0.00  0.00    +0.000 OA
BRANCH  19  20
ATOM     20  C   UNL     1       2.462   7.049  18.531  0.00  0.00    +0.000 C 
ATOM     21  C   UNL     1       1.800   8.028  17.554  0.00  0.00    +0.000 C 
ATOM     22  C   UNL     1       1.861   9.464  18.063  0.00  0.00    +0.000 C 
ATOM     23  C   UNL     1       1.134   9.584  19.391  0.00  0.00    +0.000 C 
ATOM     24  C   UNL     1       1.736   8.658  20.454  0.00  0.00    +0.000 C 
ATOM     25  C   UNL     1       0.859   8.710  21.711  0.00  0.00    +0.000 C 
ATOM     26  C   UNL     1       1.890   7.207  19.954  0.00  0.00    +0.000 C 
ENDBRANCH  19  20
ENDBRANCH  17  19
ENDBRANCH   3  17
TORSDOF 4
ENDMDL
MODEL 5
REMARK VINA RESULT:      -7.5      2.864      4.741
REMARK  Name = 
REMARK  6 active torsions:
REMARK  status: ('A' for Active; 'I' for Inactive)
REMARK    1  A    between atoms: C_1  and  C_2
REMARK    2  A    between atoms: C_3  and  C_4
REMARK    3  A    between atoms: C_4  and  O_6
REMARK    4  A    between atoms: O_6  and  C_7
REMARK    5  A    between atoms: C_11  and  C_12
REMARK    6  A    between atoms: C_14  and  C_15
REMARK                            x       y       z     vdW  Elec       q    Type
REMARK                         _______ _______ _______ _____ _____    ______ ____
ROOT
ATOM      1  C   UNL     1       4.560   1.714  20.250  0.00  0.00    +0.000 C 
ATOM      2  C   UNL     1       3.561   2.628  19.594  0.00  0.00    +0.000 C 
ATOM      3  C   UNL     1       3.712   3.888  19.130  0.00  0.00    +0.000 C 
ATOM      4  C   UNL     1       2.554   4.604  18.438  0.00  0.00    +0.000 C 
ATOM      5  N   UNL     1       1.305   3.884  18.592  0.00  0.00    +0.000 N 
ATOM      6  C   UNL     1       1.216   2.580  18.918  0.00  0.00    +0.000 C 
ATOM      7  O   UNL     1       0.167   1.952  18.805  0.00  0.00    +0.000 OA
ATOM      8  N   UNL     1       2.340   2.009  19.420  0.00  0.00    +0.000 N 
ATOM      9  H   UNL     1       0.461   4.285  18.207  0.00  0.00    +0.000 HD
ATOM     10  H   UNL     1       2.222   1.039  19.687  0.00  0.00    +0.000 HD
ENDROOT
BRANCH   4  11
ATOM     11  C   UNL     1       2.313   6.044  18.874  0.00  0.00    +0.000 A 
ATOM     12  C   UNL     1       1.999   6.330  20.214  0.00  0.00    +0.000 A 
ATOM     13  C   UNL     1       1.718   7.640  20.611  0.00  0.00    +0.000 A 
ATOM     14  C   UNL     1       1.764   8.674  19.682  0.00  0.00    +0.000 A 
ATOM     15  C   UNL     1       2.119   8.409  18.360  0.00  0.00    +0.000 A 
ATOM     16  C   UNL     1       2.403   7.104  17.960  0.00  0.00    +0.000 A 
ENDBRANCH   4  11
BRANCH   3  17
ATOM     17  C   UNL     1       5.004   4.631  19.019  0.00  0.00    +0.000 C 
ATOM     18  O   UNL     1       5.291   5.558  19.768  0.00  0.00    +0.000 OA
BRANCH  17  19
ATOM     19  O   UNL     1       5.746   4.277  17.937  0.00  0.00    +0.000 OA
BRANCH  19  20
ATOM     20  C   UNL     1       6.638   5.304  17.443  0.00  0.00    +0.000 C 
ATOM     21  C   UNL     1       5.828   6.586  17.218  0.00  0.00    +0.000 C 
ATOM     22  C   UNL     1       4.860   6.447  16.047  0.00  0.00    +0.000 C 
ATOM     23  C   UNL     1       5.622   6.155  14.766  0.00  0.00    +0.000 C 
ATOM     24  C   UNL     1       6.452   4.872  14.876  0.00  0.00    +0.000 C 
ATOM     25  C   UNL     1       7.314   4.728  13.616  0.00  0.00    +0.000 C 
ATOM     26  C   UNL     1       7.329   4.842  16.145  0.00  0.00    +0.000 C 
ENDBRANCH  19  20
ENDBRANCH  17  19
ENDBRANCH   3  17
TORSDOF 4
ENDMDL
MODEL 6
REMARK VINA RESULT:      -7.4      2.699      5.668
REMARK  Name = 
REMARK  6 active torsions:
REMARK  status: ('A' for Active; 'I' for Inactive)
REMARK    1  A    between atoms: C_1  and  C_2
REMARK    2  A    between atoms: C_3  and  C_4
REMARK    3  A    between atoms: C_4  and  O_6
REMARK    4  A    between atoms: O_6  and  C_7
REMARK    5  A    between atoms: C_11  and  C_12
REMARK    6  A    between atoms: C_14  and  C_15
REMARK                            x       y       z     vdW  Elec       q    Type
REMARK                         _______ _______ _______ _____ _____    ______ ____
ROOT
ATOM      1  C   UNL     1       7.478   6.893  17.572  0.00  0.00    +0.000 C 
ATOM      2  C   UNL     1       6.412   6.024  16.960  0.00  0.00    +0.000 C 
ATOM      3  C   UNL     1       5.171   5.729  17.408  0.00  0.00    +0.000 C 
ATOM      4  C   UNL     1       4.234   4.860  16.573  0.00  0.00    +0.000 C 
ATOM      5  N   UNL     1       4.922   4.235  15.460  0.00  0.00    +0.000 N 
ATOM      6  C   UNL     1       6.097   4.663  14.959  0.00  0.00    +0.000 C 
ATOM      7  O   UNL     1       6.525   4.266  13.879  0.00  0.00    +0.000 OA
ATOM      8  N   UNL     1       6.801   5.525  15.734  0.00  0.00    +0.000 N 
ATOM      9  H   UNL     1       4.407   3.605  14.861  0.00  0.00    +0.000 HD
ATOM     10  H   UNL     1       7.695   5.794  15.339  0.00  0.00    +0.000 HD
ENDROOT
BRANCH   4  11
ATOM     11  C   UNL     1       3.498   3.763  17.334  0.00  0.00    +0.000 A 
ATOM     12  C   UNL     1       4.194   2.623  17.773  0.00  0.00    +0.000 A 
ATOM     13  C   UNL     1       3.518   1.586  18.419  0.00  0.00    +0.000 A 
ATOM     14  C   UNL     1       2.149   1.682  18.647  0.00  0.00    +0.000 A 
ATOM     15  C   UNL     1       1.456   2.829  18.258  0.00  0.00    +0.000 A 
ATOM     16  C   UNL     1       2.128   3.868  17.615  0.00  0.00    +0.000 A 
ENDBRANCH   4  11
BRANCH   3  17
ATOM     17  C   UNL     1       4.494   6.352  18.584  0.00  0.00    +0.000 C 
ATOM     18  O   UNL     1       4.505   5.834  19.695  0.00  0.00    +0.000 OA
BRANCH  17  19
ATOM     19  O   UNL     1       3.761   7.453  18.272  0.00  0.00    +0.000 OA
BRANCH  19  20
ATOM     20  C   UNL     1       2.326   7.265  18.314  0.00  0.00    +0.000 C 
ATOM     21  C   UNL     1       1.665   8.365  17.476  0.00  0.00    +0.000 C 
ATOM     22  C   UNL     1       1.804   9.737  18.129  0.00  0.00    +0.000 C 
ATOM     23  C   UNL     1       1.138   9.739  19.494  0.00  0.00    +0.000 C 
ATOM     24  C   UNL     1       1.745   8.685  20.425  0.00  0.00    +0.000 C 
ATOM     25  C   UNL     1       0.923   8.633  21.719  0.00  0.00    +0.000 C 
ATOM     26  C   UNL     1       1.820   7.290  19.770  0.00  0.00    +0.000 C 
ENDBRANCH  19  20
ENDBRANCH  17  19
ENDBRANCH   3  17
TORSDOF 4
ENDMDL
MODEL 7
REMARK VINA RESULT:      -7.4      3.168      4.769
REMARK  Name = 
REMARK  6 active torsions:
REMARK  status: ('A' for Active; 'I' for Inactive)
REMARK    1  A    between atoms: C_1  and  C_2
REMARK    2  A    between atoms: C_3  and  C_4
REMARK    3  A    between atoms: C_4  and  O_6
REMARK    4  A    between atoms: O_6  and  C_7
REMARK    5  A    between atoms: C_11  and  C_12
REMARK    6  A    between atoms: C_14  and  C_15
REMARK                            x       y       z     vdW  Elec       q    Type
REMARK                         _______ _______ _______ _____ _____    ______ ____
ROOT
ATOM      1  C   UNL     1       1.545   9.208  17.735  0.00  0.00    +0.000 C 
ATOM      2  C   UNL     1       1.716   8.402  18.995  0.00  0.00    +0.000 C 
ATOM      3  C   UNL     1       2.272   7.183  19.175  0.00  0.00    +0.000 C 
ATOM      4  C   UNL     1       2.389   6.584  20.575  0.00  0.00    +0.000 C 
ATOM      5  N   UNL     1       1.630   7.341  21.552  0.00  0.00    +0.000 N 
ATOM      6  C   UNL     1       1.223   8.613  21.376  0.00  0.00    +0.000 C 
ATOM      7  O   UNL     1       0.800   9.294  22.305  0.00  0.00    +0.000 OA
ATOM      8  N   UNL     1       1.267   9.086  20.105  0.00  0.00    +0.000 N 
ATOM      9  H   UNL     1       1.603   7.013  22.508  0.00  0.00    +0.000 HD
ATOM     10  H   UNL     1       0.918  10.032  20.009  0.00  0.00    +0.000 HD
ENDROOT
BRANCH   4  11
ATOM     11  C   UNL     1       1.978   5.122  20.704  0.00  0.00    +0.000 A 
ATOM     12  C   UNL     1       2.731   4.249  21.509  0.00  0.00    +0.000 A 
ATOM     13  C   UNL     1       2.398   2.894  21.587  0.00  0.00    +0.000 A 
ATOM     14  C   UNL     1       1.305   2.404  20.880  0.00  0.00    +0.000 A 
ATOM     15  C   UNL     1       0.523   3.270  20.115  0.00  0.00    +0.000 A 
ATOM     16  C   UNL     1       0.850   4.623  20.037  0.00  0.00    +0.000 A 
ENDBRANCH   4  11
BRANCH   3  17
ATOM     17  C   UNL     1       3.013   6.398  18.143  0.00  0.00    +0.000 C 
ATOM     18  O   UNL     1       2.437   5.732  17.290  0.00  0.00    +0.000 OA
BRANCH  17  19
ATOM     19  O   UNL     1       4.359   6.382  18.331  0.00  0.00    +0.000 OA
BRANCH  19  20
ATOM     20  C   UNL     1       4.938   5.067  18.502  0.00  0.00    +0.000 C 
ATOM     21  C   UNL     1       6.336   5.224  19.111  0.00  0.00    +0.000 C 
ATOM     22  C   UNL     1       7.316   5.854  18.127  0.00  0.00    +0.000 C 
ATOM     23  C   UNL     1       7.452   4.983  16.890  0.00  0.00    +0.000 C 
ATOM     24  C   UNL     1       6.106   4.781  16.186  0.00  0.00    +0.000 C 
ATOM     25  C   UNL     1       6.288   3.768  15.048  0.00  0.00    +0.000 C 
ATOM     26  C   UNL     1       4.996   4.322  17.154  0.00  0.00    +0.000 C 
ENDBRANCH  19  20
ENDBRANCH  17  19
ENDBRANCH   3  17
TORSDOF 4
ENDMDL
MODEL 8
REMARK VINA RESULT:      -7.2      3.200      5.282
REMARK  Name = 
REMARK  6 active torsions:
REMARK  status: ('A' for Active; 'I' for Inactive)
REMARK    1  A    between atoms: C_1  and  C_2
REMARK    2  A    between atoms: C_3  and  C_4
REMARK    3  A    between atoms: C_4  and  O_6
REMARK    4  A    between atoms: O_6  and  C_7
REMARK    5  A    between atoms: C_11  and  C_12
REMARK    6  A    between atoms: C_14  and  C_15
REMARK                            x       y       z     vdW  Elec       q    Type
REMARK                         _______ _______ _______ _____ _____    ______ ____
ROOT
ATOM      1  C   UNL     1       5.016   2.236  19.888  0.00  0.00    +0.000 C 
ATOM      2  C   UNL     1       3.740   3.032  19.949  0.00  0.00    +0.000 C 
ATOM      3  C   UNL     1       3.306   4.036  19.154  0.00  0.00    +0.000 C 
ATOM      4  C   UNL     1       1.931   4.661  19.377  0.00  0.00    +0.000 C 
ATOM      5  N   UNL     1       1.339   4.233  20.630  0.00  0.00    +0.000 N 
ATOM      6  C   UNL     1       1.718   3.135  21.311  0.00  0.00    +0.000 C 
ATOM      7  O   UNL     1       1.044   2.675  22.229  0.00  0.00    +0.000 OA
ATOM      8  N   UNL     1       2.908   2.589  20.956  0.00  0.00    +0.000 N 
ATOM      9  H   UNL     1       0.443   4.615  20.901  0.00  0.00    +0.000 HD
ATOM     10  H   UNL     1       3.175   1.788  21.515  0.00  0.00    +0.000 HD
ENDROOT
BRANCH   4  11
ATOM     11  C   UNL     1       1.884   6.184  19.342  0.00  0.00    +0.000 A 
ATOM     12  C   UNL     1       1.675   6.909  20.528  0.00  0.00    +0.000 A 
ATOM     13  C   UNL     1       1.571   8.302  20.498  0.00  0.00    +0.000 A 
ATOM     14  C   UNL     1       1.690   8.983  19.291  0.00  0.00    +0.000 A 
ATOM     15  C   UNL     1       1.944   8.278  18.114  0.00  0.00    +0.000 A 
ATOM     16  C   UNL     1       2.051   6.888  18.140  0.00  0.00    +0.000 A 
ENDBRANCH   4  11
BRANCH   3  17
ATOM     17  C   UNL     1       3.953   4.493  17.888  0.00  0.00    +0.000 C 
ATOM     18  O   UNL     1       3.792   3.906  16.823  0.00  0.00    +0.000 OA
BRANCH  17  19
ATOM     19  O   UNL     1       4.833   5.514  18.061  0.00  0.00    +0.000 OA
BRANCH  19  20
ATOM     20  C   UNL     1       6.024   5.443  17.243  0.00  0.00    +0.000 C 
ATOM     21  C   UNL     1       7.090   4.644  18.001  0.00  0.00    +0.000 C 
ATOM     22  C   UNL     1       7.611   5.406  19.215  0.00  0.00    +0.000 C 
ATOM     23  C   UNL     1       8.243   6.717  18.783  0.00  0.00    +0.000 C 
ATOM     24  C   UNL     1       7.248   7.608  18.032  0.00  0.00    +0.000 C 
ATOM     25  C   UNL     1       7.992   8.834  17.488  0.00  0.00    +0.000 C 
ATOM     26  C   UNL     1       6.526   6.858  16.894  0.00  0.00    +0.000 C 
ENDBRANCH  19  20
ENDBRANCH  17  19
ENDBRANCH   3  17
TORSDOF 4
ENDMDL
MODEL 9
REMARK VINA RESULT:      -7.2      3.169      4.760
REMARK  Name = 
REMARK  6 active torsions:
REMARK  status: ('A' for Active; 'I' for Inactive)
REMARK    1  A    between atoms: C_1  and  C_2
REMARK    2  A    between atoms: C_3  and  C_4
REMARK    3  A    between atoms: C_4  and  O_6
REMARK    4  A    between atoms: O_6  and  C_7
REMARK    5  A    between atoms: C_11  and  C_12
REMARK    6  A    between atoms: C_14  and  C_15
REMARK                            x       y       z     vdW  Elec       q    Type
REMARK                         _______ _______ _______ _____ _____    ______ ____
ROOT
ATOM      1  C   UNL     1       1.775   9.337  17.741  0.00  0.00    +0.000 C 
ATOM      2  C   UNL     1       1.814   8.476  18.974  0.00  0.00    +0.000 C 
ATOM      3  C   UNL     1       2.397   7.273  19.173  0.00  0.00    +0.000 C 
ATOM      4  C   UNL     1       2.354   6.609  20.548  0.00  0.00    +0.000 C 
ATOM      5  N   UNL     1       1.438   7.285  21.447  0.00  0.00    +0.000 N 
ATOM      6  C   UNL     1       1.000   8.547  21.274  0.00  0.00    +0.000 C 
ATOM      7  O   UNL     1       0.425   9.163  22.168  0.00  0.00    +0.000 OA
ATOM      8  N   UNL     1       1.190   9.086  20.043  0.00  0.00    +0.000 N 
ATOM      9  H   UNL     1       1.300   6.909  22.375  0.00  0.00    +0.000 HD
ATOM     10  H   UNL     1       0.814  10.021  19.943  0.00  0.00    +0.000 HD
ENDROOT
BRANCH   4  11
ATOM     11  C   UNL     1       1.998   5.128  20.556  0.00  0.00    +0.000 A 
ATOM     12  C   UNL     1       1.134   4.607  19.575  0.00  0.00    +0.000 A 
ATOM     13  C   UNL     1       0.754   3.263  19.608  0.00  0.00    +0.000 A 
ATOM     14  C   UNL     1       1.243   2.426  20.606  0.00  0.00    +0.000 A 
ATOM     15  C   UNL     1       2.137   2.919  21.556  0.00  0.00    +0.000 A 
ATOM     16  C   UNL     1       2.521   4.260  21.525  0.00  0.00    +0.000 A 
ENDBRANCH   4  11
BRANCH   3  17
ATOM     17  C   UNL     1       3.304   6.571  18.217  0.00  0.00    +0.000 C 
ATOM     18  O   UNL     1       2.881   5.979  17.230  0.00  0.00    +0.000 OA
BRANCH  17  19
ATOM     19  O   UNL     1       4.601   6.534  18.622  0.00  0.00    +0.000 OA
BRANCH  19  20
ATOM     20  C   UNL     1       5.136   5.208  18.843  0.00  0.00    +0.000 C 
ATOM     21  C   UNL     1       6.587   5.340  19.319  0.00  0.00    +0.000 C 
ATOM     22  C   UNL     1       7.503   5.847  18.209  0.00  0.00    +0.000 C 
ATOM     23  C   UNL     1       7.492   4.884  17.036  0.00  0.00    +0.000 C 
ATOM     24  C   UNL     1       6.083   4.697  16.465  0.00  0.00    +0.000 C 
ATOM     25  C   UNL     1       6.120   3.597  15.397  0.00  0.00    +0.000 C 
ATOM     26  C   UNL     1       5.043   4.365  17.556  0.00  0.00    +0.000 C 
ENDBRANCH  19  20
ENDBRANCH  17  19
ENDBRANCH   3  17
TORSDOF 4
ENDMDL
