MODEL 1
REMARK VINA RESULT:      -7.9      0.000      0.000
REMARK  Name = 
REMARK  6 active torsions:
REMARK  status: ('A' for Active; 'I' for Inactive)
REMARK    1  A    between atoms: C_2  and  S_3
REMARK    2  A    between atoms: S_3  and  N_6
REMARK    3  A    between atoms: C_9  and  N_10
REMARK    4  A    between atoms: N_10  and  S_11
REMARK    5  A    between atoms: S_11  and  C_14
REMARK    6  A    between atoms: C_15  and  C_16
REMARK                            x       y       z     vdW  Elec       q    Type
REMARK                         _______ _______ _______ _____ _____    ______ ____
ROOT
ATOM      1  C   UNL     1       5.902   4.808  16.139  0.00  0.00    +0.000 A 
ATOM      2  C   UNL     1       7.080   5.468  16.467  0.00  0.00    +0.000 A 
ATOM      3  N   UNL     1       7.852   5.466  15.332  0.00  0.00    +0.000 N 
ATOM      4  C   UNL     1       7.178   4.902  14.275  0.00  0.00    +0.000 A 
ATOM      5  C   UNL     1       7.578   4.751  12.941  0.00  0.00    +0.000 A 
ATOM      6  C   UNL     1       6.677   4.158  12.055  0.00  0.00    +0.000 A 
ATOM      7  C   UNL     1       5.427   3.736  12.493  0.00  0.00    +0.000 A 
ATOM      8 BR   UNL     1       4.217   2.964  11.261  0.00  0.00    +0.000 Br
ATOM      9  C   UNL     1       5.043   3.882  13.830  0.00  0.00    +0.000 A 
ATOM     10  C   UNL     1       5.935   4.476  14.751  0.00  0.00    +0.000 A 
ATOM     11  H   UNL     1       8.760   5.898  15.258  0.00  0.00    +0.000 HD
ENDROOT
BRANCH   2  12
ATOM     12  C   UNL     1       7.437   6.105  17.708  0.00  0.00    +0.000 C 
ATOM     13  N   UNL     1       7.784   5.265  18.724  0.00  0.00    +0.000 N 
ATOM     14  O   UNL     1       7.477   7.321  17.861  0.00  0.00    +0.000 OA
ATOM     15  H   UNL     1       7.500   4.297  18.731  0.00  0.00    +0.000 HD
ATOM     16  H   UNL     1       7.903   5.707  19.627  0.00  0.00    +0.000 HD
ENDBRANCH   2  12
BRANCH   1  17
ATOM     17  S   UNL     1       4.597   4.525  17.247  0.00  0.00    +0.000 S 
ATOM     18  O   UNL     1       3.968   5.817  17.392  0.00  0.00    +0.000 OA
ATOM     19  O   UNL     1       5.171   3.831  18.376  0.00  0.00    +0.000 OA
BRANCH  17  20
ATOM     20  N   UNL     1       3.494   3.492  16.479  0.00  0.00    +0.000 NA
ATOM     21  H   UNL     1       4.063   2.771  16.002  0.00  0.00    +0.000 HD
BRANCH  20  25
ATOM     22  N   UNL     1       1.538   3.418  19.505  0.00  0.00    +0.000 NA
ATOM     23  C   UNL     1       1.835   1.977  19.413  0.00  0.00    +0.000 C 
ATOM     24  C   UNL     1       2.891   1.904  18.331  0.00  0.00    +0.000 C 
ATOM     25  C   UNL     1       2.404   2.910  17.301  0.00  0.00    +0.000 C 
ATOM     26  C   UNL     1       1.704   3.998  18.144  0.00  0.00    +0.000 C 
BRANCH  22  27
ATOM     27  S   UNL     1       2.241   4.266  20.808  0.00  0.00    +0.000 S 
ATOM     28  O   UNL     1       3.621   4.502  20.434  0.00  0.00    +0.000 OA
ATOM     29  O   UNL     1       1.932   3.509  22.003  0.00  0.00    +0.000 OA
BRANCH  27  31
ATOM     30  C   UNL     1       1.897   6.899  20.348  0.00  0.00    +0.000 C 
ATOM     31  C   UNL     1       1.398   5.790  20.910  0.00  0.00    +0.000 C 
ENDBRANCH  27  31
ENDBRANCH  22  27
ENDBRANCH  20  25
ENDBRANCH  17  20
ENDBRANCH   1  17
TORSDOF 6
ENDMDL
MODEL 2
REMARK VINA RESULT:      -7.8      1.283      2.240
REMARK  Name = 
REMARK  6 active torsions:
REMARK  status: ('A' for Active; 'I' for Inactive)
REMARK    1  A    between atoms: C_2  and  S_3
REMARK    2  A    between atoms: S_3  and  N_6
REMARK    3  A    between atoms: C_9  and  N_10
REMARK    4  A    between atoms: N_10  and  S_11
REMARK    5  A    between atoms: S_11  and  C_14
REMARK    6  A    between atoms: C_15  and  C_16
REMARK                            x       y       z     vdW  Elec       q    Type
REMARK                         _______ _______ _______ _____ _____    ______ ____
ROOT
ATOM      1  C   UNL     1       5.831   4.698  16.069  0.00  0.00    +0.000 A 
ATOM      2  C   UNL     1       7.014   5.345  16.408  0.00  0.00    +0.000 A 
ATOM      3  N   UNL     1       7.787   5.353  15.273  0.00  0.00    +0.000 N 
ATOM      4  C   UNL     1       7.111   4.809  14.207  0.00  0.00    +0.000 A 
ATOM      5  C   UNL     1       7.510   4.674  12.872  0.00  0.00    +0.000 A 
ATOM      6  C   UNL     1       6.606   4.100  11.977  0.00  0.00    +0.000 A 
ATOM      7  C   UNL     1       5.352   3.682  12.408  0.00  0.00    +0.000 A 
ATOM      8 BR   UNL     1       4.138   2.937  11.164  0.00  0.00    +0.000 Br
ATOM      9  C   UNL     1       4.968   3.811  13.746  0.00  0.00    +0.000 A 
ATOM     10  C   UNL     1       5.864   4.385  14.676  0.00  0.00    +0.000 A 
ATOM     11  H   UNL     1       8.699   5.779  15.206  0.00  0.00    +0.000 HD
ENDROOT
BRANCH   2  12
ATOM     12  C   UNL     1       7.375   5.961  17.658  0.00  0.00    +0.000 C 
ATOM     13  N   UNL     1       7.774   5.108  18.643  0.00  0.00    +0.000 N 
ATOM     14  O   UNL     1       7.375   7.173  17.843  0.00  0.00    +0.000 OA
ATOM     15  H   UNL     1       7.525   4.130  18.629  0.00  0.00    +0.000 HD
ATOM     16  H   UNL     1       7.896   5.529  19.555  0.00  0.00    +0.000 HD
ENDBRANCH   2  12
BRANCH   1  17
ATOM     17  S   UNL     1       4.523   4.409  17.171  0.00  0.00    +0.000 S 
ATOM     18  O   UNL     1       5.161   3.852  18.342  0.00  0.00    +0.000 OA
ATOM     19  O   UNL     1       3.527   3.671  16.429  0.00  0.00    +0.000 OA
BRANCH  17  20
ATOM     20  N   UNL     1       3.876   5.917  17.597  0.00  0.00    +0.000 NA
ATOM     21  H   UNL     1       3.202   6.158  16.851  0.00  0.00    +0.000 HD
BRANCH  20  25
ATOM     22  N   UNL     1       2.848   4.491  20.744  0.00  0.00    +0.000 NA
ATOM     23  C   UNL     1       1.638   5.289  20.470  0.00  0.00    +0.000 C 
ATOM     24  C   UNL     1       1.822   5.725  19.033  0.00  0.00    +0.000 C 
ATOM     25  C   UNL     1       3.303   6.063  18.958  0.00  0.00    +0.000 C 
ATOM     26  C   UNL     1       3.960   5.077  19.947  0.00  0.00    +0.000 C 
BRANCH  22  27
ATOM     27  S   UNL     1       2.672   2.795  20.714  0.00  0.00    +0.000 S 
ATOM     28  O   UNL     1       1.705   2.474  21.746  0.00  0.00    +0.000 OA
ATOM     29  O   UNL     1       4.010   2.244  20.777  0.00  0.00    +0.000 OA
BRANCH  27  31
ATOM     30  C   UNL     1       0.689   2.223  18.981  0.00  0.00    +0.000 C 
ATOM     31  C   UNL     1       2.006   2.400  19.151  0.00  0.00    +0.000 C 
ENDBRANCH  27  31
ENDBRANCH  22  27
ENDBRANCH  20  25
ENDBRANCH  17  20
ENDBRANCH   1  17
TORSDOF 6
ENDMDL
MODEL 3
REMARK VINA RESULT:      -7.6      6.920      9.197
REMARK  Name = 
REMARK  6 active torsions:
REMARK  status: ('A' for Active; 'I' for Inactive)
REMARK    1  A    between atoms: C_2  and  S_3
REMARK    2  A    between atoms: S_3  and  N_6
REMARK    3  A    between atoms: C_9  and  N_10
REMARK    4  A    between atoms: N_10  and  S_11
REMARK    5  A    between atoms: S_11  and  C_14
REMARK    6  A    between atoms: C_15  and  C_16
REMARK                            x       y       z     vdW  Elec       q    Type
REMARK                         _______ _______ _______ _____ _____    ______ ____
ROOT
ATOM      1  C   UNL     1       1.258   8.542  20.173  0.00  0.00    +0.000 A 
ATOM      2  C   UNL     1       1.519   9.304  19.040  0.00  0.00    +0.000 A 
ATOM      3  N   UNL     1       2.273   8.512  18.209  0.00  0.00    +0.000 N 
ATOM      4  C   UNL     1       2.432   7.252  18.733  0.00  0.00    +0.000 A 
ATOM      5  C   UNL     1       3.080   6.135  18.191  0.00  0.00    +0.000 A 
ATOM      6  C   UNL     1       3.071   4.953  18.933  0.00  0.00    +0.000 A 
ATOM      7  C   UNL     1       2.436   4.898  20.169  0.00  0.00    +0.000 A 
ATOM      8 BR   UNL     1       2.417   3.273  21.137  0.00  0.00    +0.000 Br
ATOM      9  C   UNL     1       1.803   6.023  20.706  0.00  0.00    +0.000 A 
ATOM     10  C   UNL     1       1.798   7.235  19.979  0.00  0.00    +0.000 A 
ATOM     11  H   UNL     1       2.595   8.789  17.294  0.00  0.00    +0.000 HD
ENDROOT
BRANCH   2  12
ATOM     12  C   UNL     1       1.057  10.630  18.723  0.00  0.00    +0.000 C 
ATOM     13  N   UNL     1      -0.111  10.696  18.024  0.00  0.00    +0.000 N 
ATOM     14  O   UNL     1       1.631  11.653  19.079  0.00  0.00    +0.000 OA
ATOM     15  H   UNL     1      -0.451   9.914  17.485  0.00  0.00    +0.000 HD
ATOM     16  H   UNL     1      -0.361  11.618  17.689  0.00  0.00    +0.000 HD
ENDBRANCH   2  12
BRANCH   1  17
ATOM     17  S   UNL     1       0.352   9.103  21.542  0.00  0.00    +0.000 S 
ATOM     18  O   UNL     1       1.360   9.440  22.521  0.00  0.00    +0.000 OA
ATOM     19  O   UNL     1      -0.649   8.094  21.802  0.00  0.00    +0.000 OA
BRANCH  17  20
ATOM     20  N   UNL     1      -0.428  10.535  21.082  0.00  0.00    +0.000 NA
ATOM     21  H   UNL     1      -1.383  10.260  20.794  0.00  0.00    +0.000 HD
BRANCH  20  25
ATOM     22  N   UNL     1      -2.168  12.774  23.307  0.00  0.00    +0.000 NA
ATOM     23  C   UNL     1      -1.372  13.780  22.579  0.00  0.00    +0.000 C 
ATOM     24  C   UNL     1      -0.797  12.999  21.417  0.00  0.00    +0.000 C 
ATOM     25  C   UNL     1      -0.424  11.665  22.045  0.00  0.00    +0.000 C 
ATOM     26  C   UNL     1      -1.487  11.461  23.145  0.00  0.00    +0.000 C 
BRANCH  22  27
ATOM     27  S   UNL     1      -3.857  12.814  23.072  0.00  0.00    +0.000 S 
ATOM     28  O   UNL     1      -4.441  12.244  24.270  0.00  0.00    +0.000 OA
ATOM     29  O   UNL     1      -4.105  12.205  21.782  0.00  0.00    +0.000 OA
BRANCH  27  31
ATOM     30  C   UNL     1      -4.734  15.177  24.026  0.00  0.00    +0.000 C 
ATOM     31  C   UNL     1      -4.294  14.499  22.957  0.00  0.00    +0.000 C 
ENDBRANCH  27  31
ENDBRANCH  22  27
ENDBRANCH  20  25
ENDBRANCH  17  20
ENDBRANCH   1  17
TORSDOF 6
ENDMDL
MODEL 4
REMARK VINA RESULT:      -7.6      1.508      2.426
REMARK  Name = 
REMARK  6 active torsions:
REMARK  status: ('A' for Active; 'I' for Inactive)
REMARK    1  A    between atoms: C_2  and  S_3
REMARK    2  A    between atoms: S_3  and  N_6
REMARK    3  A    between atoms: C_9  and  N_10
REMARK    4  A    between atoms: N_10  and  S_11
REMARK    5  A    between atoms: S_11  and  C_14
REMARK    6  A    between atoms: C_15  and  C_16
REMARK                            x       y       z     vdW  Elec       q    Type
REMARK                         _______ _______ _______ _____ _____    ______ ____
ROOT
ATOM      1  C   UNL     1       5.819   5.230  15.891  0.00  0.00    +0.000 A 
ATOM      2  C   UNL     1       7.047   5.796  16.212  0.00  0.00    +0.000 A 
ATOM      3  N   UNL     1       7.877   5.544  15.148  0.00  0.00    +0.000 N 
ATOM      4  C   UNL     1       7.202   4.911  14.131  0.00  0.00    +0.000 A 
ATOM      5  C   UNL     1       7.656   4.526  12.863  0.00  0.00    +0.000 A 
ATOM      6  C   UNL     1       6.743   3.916  12.002  0.00  0.00    +0.000 A 
ATOM      7  C   UNL     1       5.427   3.705  12.400  0.00  0.00    +0.000 A 
ATOM      8 BR   UNL     1       4.206   2.903  11.199  0.00  0.00    +0.000 Br
ATOM      9  C   UNL     1       4.988   4.083  13.673  0.00  0.00    +0.000 A 
ATOM     10  C   UNL     1       5.891   4.700  14.567  0.00  0.00    +0.000 A 
ATOM     11  H   UNL     1       8.834   5.856  15.083  0.00  0.00    +0.000 HD
ENDROOT
BRANCH   2  12
ATOM     12  C   UNL     1       7.407   6.561  17.377  0.00  0.00    +0.000 C 
ATOM     13  N   UNL     1       7.367   7.915  17.229  0.00  0.00    +0.000 N 
ATOM     14  O   UNL     1       7.694   6.059  18.458  0.00  0.00    +0.000 OA
ATOM     15  H   UNL     1       7.414   8.350  16.320  0.00  0.00    +0.000 HD
ATOM     16  H   UNL     1       7.747   8.445  18.003  0.00  0.00    +0.000 HD
ENDBRANCH   2  12
BRANCH   1  17
ATOM     17  S   UNL     1       4.428   5.258  16.927  0.00  0.00    +0.000 S 
ATOM     18  O   UNL     1       3.606   4.171  16.448  0.00  0.00    +0.000 OA
ATOM     19  O   UNL     1       3.953   6.623  16.927  0.00  0.00    +0.000 OA
BRANCH  17  20
ATOM     20  N   UNL     1       4.952   4.866  18.491  0.00  0.00    +0.000 NA
ATOM     21  H   UNL     1       5.946   5.148  18.537  0.00  0.00    +0.000 HD
BRANCH  20  25
ATOM     22  N   UNL     1       2.426   4.398  21.020  0.00  0.00    +0.000 NA
ATOM     23  C   UNL     1       1.964   5.699  20.501  0.00  0.00    +0.000 C 
ATOM     24  C   UNL     1       2.777   5.883  19.238  0.00  0.00    +0.000 C 
ATOM     25  C   UNL     1       4.156   5.377  19.635  0.00  0.00    +0.000 C 
ATOM     26  C   UNL     1       3.861   4.253  20.652  0.00  0.00    +0.000 C 
BRANCH  22  27
ATOM     27  S   UNL     1       1.410   3.057  20.747  0.00  0.00    +0.000 S 
ATOM     28  O   UNL     1       0.220   3.580  20.105  0.00  0.00    +0.000 OA
ATOM     29  O   UNL     1       1.304   2.358  22.011  0.00  0.00    +0.000 OA
BRANCH  27  31
ATOM     30  C   UNL     1       1.946   1.987  18.332  0.00  0.00    +0.000 C 
ATOM     31  C   UNL     1       2.260   2.017  19.634  0.00  0.00    +0.000 C 
ENDBRANCH  27  31
ENDBRANCH  22  27
ENDBRANCH  20  25
ENDBRANCH  17  20
ENDBRANCH   1  17
TORSDOF 6
ENDMDL
MODEL 5
REMARK VINA RESULT:      -7.6      1.042      1.556
REMARK  Name = 
REMARK  6 active torsions:
REMARK  status: ('A' for Active; 'I' for Inactive)
REMARK    1  A    between atoms: C_2  and  S_3
REMARK    2  A    between atoms: S_3  and  N_6
REMARK    3  A    between atoms: C_9  and  N_10
REMARK    4  A    between atoms: N_10  and  S_11
REMARK    5  A    between atoms: S_11  and  C_14
REMARK    6  A    between atoms: C_15  and  C_16
REMARK                            x       y       z     vdW  Elec       q    Type
REMARK                         _______ _______ _______ _____ _____    ______ ____
ROOT
ATOM      1  C   UNL     1       5.921   5.197  16.129  0.00  0.00    +0.000 A 
ATOM      2  C   UNL     1       7.092   5.889  16.415  0.00  0.00    +0.000 A 
ATOM      3  N   UNL     1       7.890   5.773  15.304  0.00  0.00    +0.000 N 
ATOM      4  C   UNL     1       7.241   5.103  14.295  0.00  0.00    +0.000 A 
ATOM      5  C   UNL     1       7.672   4.818  12.993  0.00  0.00    +0.000 A 
ATOM      6  C   UNL     1       6.791   4.137  12.150  0.00  0.00    +0.000 A 
ATOM      7  C   UNL     1       5.530   3.761  12.600  0.00  0.00    +0.000 A 
ATOM      8 BR   UNL     1       4.349   2.866  11.424  0.00  0.00    +0.000 Br
ATOM      9  C   UNL     1       5.116   4.041  13.906  0.00  0.00    +0.000 A 
ATOM     10  C   UNL     1       5.987   4.726  14.782  0.00  0.00    +0.000 A 
ATOM     11  H   UNL     1       8.801   6.196  15.208  0.00  0.00    +0.000 HD
ENDROOT
BRANCH   2  12
ATOM     12  C   UNL     1       7.421   6.649  17.593  0.00  0.00    +0.000 C 
ATOM     13  N   UNL     1       7.806   5.919  18.678  0.00  0.00    +0.000 N 
ATOM     14  O   UNL     1       7.406   7.874  17.638  0.00  0.00    +0.000 OA
ATOM     15  H   UNL     1       7.567   4.944  18.772  0.00  0.00    +0.000 HD
ATOM     16  H   UNL     1       7.906   6.444  19.537  0.00  0.00    +0.000 HD
ENDBRANCH   2  12
BRANCH   1  17
ATOM     17  S   UNL     1       4.590   5.027  17.228  0.00  0.00    +0.000 S 
ATOM     18  O   UNL     1       3.791   6.209  17.004  0.00  0.00    +0.000 OA
ATOM     19  O   UNL     1       5.170   4.738  18.520  0.00  0.00    +0.000 OA
BRANCH  17  20
ATOM     20  N   UNL     1       3.687   3.683  16.727  0.00  0.00    +0.000 NA
ATOM     21  H   UNL     1       4.298   2.860  16.867  0.00  0.00    +0.000 HD
BRANCH  20  25
ATOM     22  N   UNL     1       1.489   3.583  19.582  0.00  0.00    +0.000 NA
ATOM     23  C   UNL     1       1.055   2.328  18.940  0.00  0.00    +0.000 C 
ATOM     24  C   UNL     1       2.097   2.104  17.867  0.00  0.00    +0.000 C 
ATOM     25  C   UNL     1       2.336   3.501  17.314  0.00  0.00    +0.000 C 
ATOM     26  C   UNL     1       2.132   4.423  18.535  0.00  0.00    +0.000 C 
BRANCH  22  27
ATOM     27  S   UNL     1       2.298   3.441  21.077  0.00  0.00    +0.000 S 
ATOM     28  O   UNL     1       1.681   2.321  21.761  0.00  0.00    +0.000 OA
ATOM     29  O   UNL     1       2.281   4.758  21.679  0.00  0.00    +0.000 OA
BRANCH  27  31
ATOM     30  C   UNL     1       4.357   1.777  20.573  0.00  0.00    +0.000 C 
ATOM     31  C   UNL     1       3.955   3.049  20.700  0.00  0.00    +0.000 C 
ENDBRANCH  27  31
ENDBRANCH  22  27
ENDBRANCH  20  25
ENDBRANCH  17  20
ENDBRANCH   1  17
TORSDOF 6
ENDMDL
MODEL 6
REMARK VINA RESULT:      -7.6      6.528      8.479
REMARK  Name = 
REMARK  6 active torsions:
REMARK  status: ('A' for Active; 'I' for Inactive)
REMARK    1  A    between atoms: C_2  and  S_3
REMARK    2  A    between atoms: S_3  and  N_6
REMARK    3  A    between atoms: C_9  and  N_10
REMARK    4  A    between atoms: N_10  and  S_11
REMARK    5  A    between atoms: S_11  and  C_14
REMARK    6  A    between atoms: C_15  and  C_16
REMARK                            x       y       z     vdW  Elec       q    Type
REMARK                         _______ _______ _______ _____ _____    ______ ____
ROOT
ATOM      1  C   UNL     1       1.564   8.425  19.517  0.00  0.00    +0.000 A 
ATOM      2  C   UNL     1       1.184   7.918  20.754  0.00  0.00    +0.000 A 
ATOM      3  N   UNL     1       1.802   6.698  20.876  0.00  0.00    +0.000 N 
ATOM      4  C   UNL     1       2.622   6.446  19.803  0.00  0.00    +0.000 A 
ATOM      5  C   UNL     1       3.464   5.354  19.560  0.00  0.00    +0.000 A 
ATOM      6  C   UNL     1       4.219   5.362  18.386  0.00  0.00    +0.000 A 
ATOM      7  C   UNL     1       4.131   6.426  17.495  0.00  0.00    +0.000 A 
ATOM      8 BR   UNL     1       5.189   6.421  15.928  0.00  0.00    +0.000 Br
ATOM      9  C   UNL     1       3.277   7.506  17.742  0.00  0.00    +0.000 A 
ATOM     10  C   UNL     1       2.499   7.524  18.921  0.00  0.00    +0.000 A 
ATOM     11  H   UNL     1       1.732   6.101  21.687  0.00  0.00    +0.000 HD
ENDROOT
BRANCH   2  12
ATOM     12  C   UNL     1       0.369   8.537  21.766  0.00  0.00    +0.000 C 
ATOM     13  N   UNL     1       1.019   9.393  22.605  0.00  0.00    +0.000 N 
ATOM     14  O   UNL     1      -0.839   8.360  21.868  0.00  0.00    +0.000 OA
ATOM     15  H   UNL     1       2.018   9.350  22.735  0.00  0.00    +0.000 HD
ATOM     16  H   UNL     1       0.475   9.720  23.393  0.00  0.00    +0.000 HD
ENDBRANCH   2  12
BRANCH   1  17
ATOM     17  S   UNL     1       1.030   9.945  18.875  0.00  0.00    +0.000 S 
ATOM     18  O   UNL     1       1.544   9.962  17.526  0.00  0.00    +0.000 OA
ATOM     19  O   UNL     1       1.412  10.947  19.844  0.00  0.00    +0.000 OA
BRANCH  17  20
ATOM     20  N   UNL     1      -0.662   9.893  18.789  0.00  0.00    +0.000 NA
ATOM     21  H   UNL     1      -1.006  10.295  19.678  0.00  0.00    +0.000 HD
BRANCH  20  25
ATOM     22  N   UNL     1      -3.416  11.650  17.265  0.00  0.00    +0.000 NA
ATOM     23  C   UNL     1      -3.289  10.562  16.277  0.00  0.00    +0.000 C 
ATOM     24  C   UNL     1      -2.344   9.588  16.946  0.00  0.00    +0.000 C 
ATOM     25  C   UNL     1      -1.313  10.495  17.598  0.00  0.00    +0.000 C 
ATOM     26  C   UNL     1      -2.116  11.756  17.983  0.00  0.00    +0.000 C 
BRANCH  22  27
ATOM     27  S   UNL     1      -4.836  11.669  18.209  0.00  0.00    +0.000 S 
ATOM     28  O   UNL     1      -4.505  12.402  19.415  0.00  0.00    +0.000 OA
ATOM     29  O   UNL     1      -5.289  10.295  18.295  0.00  0.00    +0.000 OA
BRANCH  27  31
ATOM     30  C   UNL     1      -6.880  13.396  17.893  0.00  0.00    +0.000 C 
ATOM     31  C   UNL     1      -6.020  12.563  17.292  0.00  0.00    +0.000 C 
ENDBRANCH  27  31
ENDBRANCH  22  27
ENDBRANCH  20  25
ENDBRANCH  17  20
ENDBRANCH   1  17
TORSDOF 6
ENDMDL
MODEL 7
REMARK VINA RESULT:      -7.5      6.949      9.202
REMARK  Name = 
REMARK  6 active torsions:
REMARK  status: ('A' for Active; 'I' for Inactive)
REMARK    1  A    between atoms: C_2  and  S_3
REMARK    2  A    between atoms: S_3  and  N_6
REMARK    3  A    between atoms: C_9  and  N_10
REMARK    4  A    between atoms: N_10  and  S_11
REMARK    5  A    between atoms: S_11  and  C_14
REMARK    6  A    between atoms: C_15  and  C_16
REMARK                            x       y       z     vdW  Elec       q    Type
REMARK                         _______ _______ _______ _____ _____    ______ ____
ROOT
ATOM      1  C   UNL     1       1.259   8.556  20.203  0.00  0.00    +0.000 A 
ATOM      2  C   UNL     1       1.492   9.329  19.072  0.00  0.00    +0.000 A 
ATOM      3  N   UNL     1       2.225   8.547  18.214  0.00  0.00    +0.000 N 
ATOM      4  C   UNL     1       2.399   7.282  18.723  0.00  0.00    +0.000 A 
ATOM      5  C   UNL     1       3.035   6.172  18.153  0.00  0.00    +0.000 A 
ATOM      6  C   UNL     1       3.046   4.982  18.884  0.00  0.00    +0.000 A 
ATOM      7  C   UNL     1       2.441   4.914  20.134  0.00  0.00    +0.000 A 
ATOM      8 BR   UNL     1       2.447   3.279  21.085  0.00  0.00    +0.000 Br
ATOM      9  C   UNL     1       1.820   6.033  20.698  0.00  0.00    +0.000 A 
ATOM     10  C   UNL     1       1.796   7.251  19.983  0.00  0.00    +0.000 A 
ATOM     11  H   UNL     1       2.525   8.833  17.295  0.00  0.00    +0.000 HD
ENDROOT
BRANCH   2  12
ATOM     12  C   UNL     1       1.020  10.658  18.780  0.00  0.00    +0.000 C 
ATOM     13  N   UNL     1      -0.173  10.730  18.124  0.00  0.00    +0.000 N 
ATOM     14  O   UNL     1       1.608  11.678  19.121  0.00  0.00    +0.000 OA
ATOM     15  H   UNL     1      -0.533   9.952  17.593  0.00  0.00    +0.000 HD
ATOM     16  H   UNL     1      -0.433  11.654  17.803  0.00  0.00    +0.000 HD
ENDBRANCH   2  12
BRANCH   1  17
ATOM     17  S   UNL     1       0.387   9.102  21.600  0.00  0.00    +0.000 S 
ATOM     18  O   UNL     1       1.409   9.312  22.598  0.00  0.00    +0.000 OA
ATOM     19  O   UNL     1      -0.684   8.152  21.801  0.00  0.00    +0.000 OA
BRANCH  17  20
ATOM     20  N   UNL     1      -0.289  10.608  21.219  0.00  0.00    +0.000 NA
ATOM     21  H   UNL     1      -1.213  10.408  20.800  0.00  0.00    +0.000 HD
BRANCH  20  25
ATOM     22  N   UNL     1      -2.156  12.988  23.180  0.00  0.00    +0.000 NA
ATOM     23  C   UNL     1      -1.006  13.849  22.845  0.00  0.00    +0.000 C 
ATOM     24  C   UNL     1      -0.271  13.057  21.785  0.00  0.00    +0.000 C 
ATOM     25  C   UNL     1      -0.357  11.627  22.296  0.00  0.00    +0.000 C 
ATOM     26  C   UNL     1      -1.717  11.574  23.026  0.00  0.00    +0.000 C 
BRANCH  22  27
ATOM     27  S   UNL     1      -3.661  13.418  22.503  0.00  0.00    +0.000 S 
ATOM     28  O   UNL     1      -3.908  12.465  21.439  0.00  0.00    +0.000 OA
ATOM     29  O   UNL     1      -3.587  14.834  22.206  0.00  0.00    +0.000 OA
BRANCH  27  31
ATOM     30  C   UNL     1      -4.614  12.381  24.800  0.00  0.00    +0.000 C 
ATOM     31  C   UNL     1      -4.845  13.199  23.765  0.00  0.00    +0.000 C 
ENDBRANCH  27  31
ENDBRANCH  22  27
ENDBRANCH  20  25
ENDBRANCH  17  20
ENDBRANCH   1  17
TORSDOF 6
ENDMDL
MODEL 8
REMARK VINA RESULT:      -7.5      6.884      9.158
REMARK  Name = 
REMARK  6 active torsions:
REMARK  status: ('A' for Active; 'I' for Inactive)
REMARK    1  A    between atoms: C_2  and  S_3
REMARK    2  A    between atoms: S_3  and  N_6
REMARK    3  A    between atoms: C_9  and  N_10
REMARK    4  A    between atoms: N_10  and  S_11
REMARK    5  A    between atoms: S_11  and  C_14
REMARK    6  A    between atoms: C_15  and  C_16
REMARK                            x       y       z     vdW  Elec       q    Type
REMARK                         _______ _______ _______ _____ _____    ______ ____
ROOT
ATOM      1  C   UNL     1       1.248   8.613  20.202  0.00  0.00    +0.000 A 
ATOM      2  C   UNL     1       1.484   9.403  19.083  0.00  0.00    +0.000 A 
ATOM      3  N   UNL     1       2.225   8.636  18.219  0.00  0.00    +0.000 N 
ATOM      4  C   UNL     1       2.400   7.364  18.709  0.00  0.00    +0.000 A 
ATOM      5  C   UNL     1       3.042   6.264  18.127  0.00  0.00    +0.000 A 
ATOM      6  C   UNL     1       3.053   5.064  18.840  0.00  0.00    +0.000 A 
ATOM      7  C   UNL     1       2.441   4.976  20.086  0.00  0.00    +0.000 A 
ATOM      8 BR   UNL     1       2.447   3.327  21.013  0.00  0.00    +0.000 Br
ATOM      9  C   UNL     1       1.813   6.084  20.662  0.00  0.00    +0.000 A 
ATOM     10  C   UNL     1       1.789   7.313  19.965  0.00  0.00    +0.000 A 
ATOM     11  H   UNL     1       2.529   8.937  17.305  0.00  0.00    +0.000 HD
ENDROOT
BRANCH   2  12
ATOM     12  C   UNL     1       1.011  10.735  18.808  0.00  0.00    +0.000 C 
ATOM     13  N   UNL     1      -0.170  10.813  18.130  0.00  0.00    +0.000 N 
ATOM     14  O   UNL     1       1.585  11.751  19.181  0.00  0.00    +0.000 OA
ATOM     15  H   UNL     1      -0.514  10.043  17.577  0.00  0.00    +0.000 HD
ATOM     16  H   UNL     1      -0.430  11.741  17.823  0.00  0.00    +0.000 HD
ENDBRANCH   2  12
BRANCH   1  17
ATOM     17  S   UNL     1       0.365   9.135  21.601  0.00  0.00    +0.000 S 
ATOM     18  O   UNL     1       1.385   9.368  22.598  0.00  0.00    +0.000 OA
ATOM     19  O   UNL     1      -0.682   8.160  21.803  0.00  0.00    +0.000 OA
BRANCH  17  20
ATOM     20  N   UNL     1      -0.347  10.626  21.225  0.00  0.00    +0.000 NA
ATOM     21  H   UNL     1      -1.267  10.405  20.807  0.00  0.00    +0.000 HD
BRANCH  20  25
ATOM     22  N   UNL     1      -2.286  12.861  23.283  0.00  0.00    +0.000 NA
ATOM     23  C   UNL     1      -1.227  13.808  22.887  0.00  0.00    +0.000 C 
ATOM     24  C   UNL     1      -0.490  13.072  21.789  0.00  0.00    +0.000 C 
ATOM     25  C   UNL     1      -0.437  11.641  22.304  0.00  0.00    +0.000 C 
ATOM     26  C   UNL     1      -1.747  11.486  23.105  0.00  0.00    +0.000 C 
BRANCH  22  27
ATOM     27  S   UNL     1      -3.854  13.170  22.687  0.00  0.00    +0.000 S 
ATOM     28  O   UNL     1      -4.032  14.607  22.753  0.00  0.00    +0.000 OA
ATOM     29  O   UNL     1      -4.749  12.293  23.415  0.00  0.00    +0.000 OA
BRANCH  27  31
ATOM     30  C   UNL     1      -4.782  13.095  20.158  0.00  0.00    +0.000 C 
ATOM     31  C   UNL     1      -3.852  12.661  21.018  0.00  0.00    +0.000 C 
ENDBRANCH  27  31
ENDBRANCH  22  27
ENDBRANCH  20  25
ENDBRANCH  17  20
ENDBRANCH   1  17
TORSDOF 6
ENDMDL
MODEL 9
REMARK VINA RESULT:      -7.5      1.249      1.445
REMARK  Name = 
REMARK  6 active torsions:
REMARK  status: ('A' for Active; 'I' for Inactive)
REMARK    1  A    between atoms: C_2  and  S_3
REMARK    2  A    between atoms: S_3  and  N_6
REMARK    3  A    between atoms: C_9  and  N_10
REMARK    4  A    between atoms: N_10  and  S_11
REMARK    5  A    between atoms: S_11  and  C_14
REMARK    6  A    between atoms: C_15  and  C_16
REMARK                            x       y       z     vdW  Elec       q    Type
REMARK                         _______ _______ _______ _____ _____    ______ ____
ROOT
ATOM      1  C   UNL     1       5.937   5.316  16.137  0.00  0.00    +0.000 A 
ATOM      2  C   UNL     1       7.142   5.958  16.398  0.00  0.00    +0.000 A 
ATOM      3  N   UNL     1       7.929   5.765  15.291  0.00  0.00    +0.000 N 
ATOM      4  C   UNL     1       7.244   5.095  14.305  0.00  0.00    +0.000 A 
ATOM      5  C   UNL     1       7.655   4.746  13.013  0.00  0.00    +0.000 A 
ATOM      6  C   UNL     1       6.739   4.082  12.195  0.00  0.00    +0.000 A 
ATOM      7  C   UNL     1       5.462   3.785  12.659  0.00  0.00    +0.000 A 
ATOM      8 BR   UNL     1       4.234   2.912  11.516  0.00  0.00    +0.000 Br
ATOM      9  C   UNL     1       5.067   4.128  13.955  0.00  0.00    +0.000 A 
ATOM     10  C   UNL     1       5.974   4.798  14.807  0.00  0.00    +0.000 A 
ATOM     11  H   UNL     1       8.860   6.138  15.179  0.00  0.00    +0.000 HD
ENDROOT
BRANCH   2  12
ATOM     12  C   UNL     1       7.512   6.739  17.549  0.00  0.00    +0.000 C 
ATOM     13  N   UNL     1       7.368   8.088  17.418  0.00  0.00    +0.000 N 
ATOM     14  O   UNL     1       7.895   6.252  18.607  0.00  0.00    +0.000 OA
ATOM     15  H   UNL     1       7.332   8.531  16.512  0.00  0.00    +0.000 HD
ATOM     16  H   UNL     1       7.753   8.639  18.175  0.00  0.00    +0.000 HD
ENDBRANCH   2  12
BRANCH   1  17
ATOM     17  S   UNL     1       4.603   5.249  17.244  0.00  0.00    +0.000 S 
ATOM     18  O   UNL     1       3.799   6.399  16.901  0.00  0.00    +0.000 OA
ATOM     19  O   UNL     1       5.179   5.093  18.560  0.00  0.00    +0.000 OA
BRANCH  17  20
ATOM     20  N   UNL     1       3.708   3.858  16.876  0.00  0.00    +0.000 NA
ATOM     21  H   UNL     1       3.988   3.583  15.919  0.00  0.00    +0.000 HD
BRANCH  20  25
ATOM     22  N   UNL     1       2.493   2.180  19.826  0.00  0.00    +0.000 NA
ATOM     23  C   UNL     1       3.935   2.118  20.129  0.00  0.00    +0.000 C 
ATOM     24  C   UNL     1       4.551   3.039  19.099  0.00  0.00    +0.000 C 
ATOM     25  C   UNL     1       3.761   2.727  17.837  0.00  0.00    +0.000 C 
ATOM     26  C   UNL     1       2.352   2.373  18.357  0.00  0.00    +0.000 C 
BRANCH  22  27
ATOM     27  S   UNL     1       1.536   3.163  20.840  0.00  0.00    +0.000 S 
ATOM     28  O   UNL     1       1.512   2.503  22.131  0.00  0.00    +0.000 OA
ATOM     29  O   UNL     1       0.300   3.408  20.126  0.00  0.00    +0.000 OA
BRANCH  27  31
ATOM     30  C   UNL     1       2.028   5.744  20.242  0.00  0.00    +0.000 C 
ATOM     31  C   UNL     1       2.379   4.684  20.982  0.00  0.00    +0.000 C 
ENDBRANCH  27  31
ENDBRANCH  22  27
ENDBRANCH  20  25
ENDBRANCH  17  20
ENDBRANCH   1  17
TORSDOF 6
ENDMDL
