MODEL 1
REMARK VINA RESULT:      -7.8      0.000      0.000
REMARK  Name = 
REMARK  7 active torsions:
REMARK  status: ('A' for Active; 'I' for Inactive)
REMARK    1  A    between atoms: C_1  and  C_2
REMARK    2  A    between atoms: C_2  and  C_3
REMARK    3  A    between atoms: C_2  and  C_4
REMARK    4  A    between atoms: C_9  and  C_10
REMARK    5  A    between atoms: C_15  and  O_16
REMARK    6  A    between atoms: O_16  and  C_17
REMARK    7  A    between atoms: C_20  and  N_21
REMARK                            x       y       z     vdW  Elec       q    Type
REMARK                         _______ _______ _______ _____ _____    ______ ____
ROOT
ATOM      1  C   UNL     1      -1.576  11.969  19.576  0.00  0.00    +0.000 A 
ATOM      2  N   UNL     1      -2.911  12.101  19.330  0.00  0.00    +0.000 NA
ATOM      3  C   UNL     1      -3.407  11.445  18.261  0.00  0.00    +0.000 A 
ATOM      4  C   UNL     1      -2.610  10.691  17.429  0.00  0.00    +0.000 A 
ATOM      5  N   UNL     1      -1.286  10.560  17.633  0.00  0.00    +0.000 NA
ATOM      6  C   UNL     1      -0.777  11.178  18.733  0.00  0.00    +0.000 A 
ENDROOT
BRANCH   1  12
ATOM      7  C   UNL     1      -3.679  14.273  23.754  0.00  0.00    +0.000 C 
ATOM      8  O   UNL     1      -3.627  13.685  24.838  0.00  0.00    +0.000 OA
ATOM      9  N   UNL     1      -3.149  13.707  22.603  0.00  0.00    +0.000 N 
ATOM     10  C   UNL     1      -2.829  12.280  22.604  0.00  0.00    +0.000 C 
ATOM     11  C   UNL     1      -1.401  12.024  22.121  0.00  0.00    +0.000 C 
ATOM     12  C   UNL     1      -1.052  12.722  20.788  0.00  0.00    +0.000 C 
ATOM     13  C   UNL     1      -1.541  14.188  20.812  0.00  0.00    +0.000 C 
ATOM     14  C   UNL     1      -2.981  14.360  21.308  0.00  0.00    +0.000 C 
BRANCH   7  16
ATOM     15  C   UNL     1      -5.850  15.476  23.445  0.00  0.00    +0.000 C 
ATOM     16  C   UNL     1      -4.341  15.652  23.665  0.00  0.00    +0.000 C 
ATOM     17  C   UNL     1      -4.100  16.481  24.925  0.00  0.00    +0.000 C 
ENDBRANCH   7  16
ENDBRANCH   1  12
BRANCH   6  18
ATOM     18  O   UNL     1       0.583  11.041  18.972  0.00  0.00    +0.000 OA
BRANCH  18  19
ATOM     19  C   UNL     1       1.074   9.767  19.202  0.00  0.00    +0.000 A 
ATOM     20  C   UNL     1       1.843   9.175  18.195  0.00  0.00    +0.000 A 
ATOM     21  C   UNL     1       2.476   7.939  18.416  0.00  0.00    +0.000 A 
ATOM     22  C   UNL     1       2.380   7.290  19.657  0.00  0.00    +0.000 A 
ATOM     23  C   UNL     1       1.515   7.842  20.606  0.00  0.00    +0.000 A 
ATOM     24  C   UNL     1       0.902   9.084  20.405  0.00  0.00    +0.000 A 
BRANCH  22  25
ATOM     25  N   UNL     1       3.101   6.091  19.894  0.00  0.00    +0.000 N 
ATOM     26  C   UNL     1       2.660   4.774  19.587  0.00  0.00    +0.000 A 
ATOM     27  C   UNL     1       3.509   3.702  19.868  0.00  0.00    +0.000 A 
ATOM     28  C   UNL     1       3.109   2.401  19.537  0.00  0.00    +0.000 A 
ATOM     29  C   UNL     1       1.880   2.196  18.926  0.00  0.00    +0.000 A 
ATOM     30  C   UNL     1       1.098   3.305  18.678  0.00  0.00    +0.000 A 
ATOM     31  N   UNL     1       1.462   4.563  19.001  0.00  0.00    +0.000 NA
ATOM     32  H   UNL     1       3.535   6.097  20.810  0.00  0.00    +0.000 HD
ENDBRANCH  22  25
ENDBRANCH  18  19
ENDBRANCH   6  18
TORSDOF 5
ENDMDL
MODEL 2
REMARK VINA RESULT:      -7.8      3.953     10.948
REMARK  Name = 
REMARK  7 active torsions:
REMARK  status: ('A' for Active; 'I' for Inactive)
REMARK    1  A    between atoms: C_1  and  C_2
REMARK    2  A    between atoms: C_2  and  C_3
REMARK    3  A    between atoms: C_2  and  C_4
REMARK    4  A    between atoms: C_9  and  C_10
REMARK    5  A    between atoms: C_15  and  O_16
REMARK    6  A    between atoms: O_16  and  C_17
REMARK    7  A    between atoms: C_20  and  N_21
REMARK                            x       y       z     vdW  Elec       q    Type
REMARK                         _______ _______ _______ _____ _____    ______ ____
ROOT
ATOM      1  C   UNL     1       3.237   4.373  19.516  0.00  0.00    +0.000 A 
ATOM      2  N   UNL     1       2.843   3.104  19.209  0.00  0.00    +0.000 NA
ATOM      3  C   UNL     1       1.590   2.748  19.559  0.00  0.00    +0.000 A 
ATOM      4  C   UNL     1       0.742   3.608  20.220  0.00  0.00    +0.000 A 
ATOM      5  N   UNL     1       1.110   4.858  20.556  0.00  0.00    +0.000 NA
ATOM      6  C   UNL     1       2.355   5.248  20.170  0.00  0.00    +0.000 A 
ENDROOT
BRANCH   1  12
ATOM      7  C   UNL     1       5.735   5.261  15.026  0.00  0.00    +0.000 C 
ATOM      8  O   UNL     1       5.975   6.430  14.708  0.00  0.00    +0.000 OA
ATOM      9  N   UNL     1       5.062   4.960  16.202  0.00  0.00    +0.000 N 
ATOM     10  C   UNL     1       4.347   6.030  16.897  0.00  0.00    +0.000 C 
ATOM     11  C   UNL     1       4.734   6.096  18.374  0.00  0.00    +0.000 C 
ATOM     12  C   UNL     1       4.655   4.738  19.108  0.00  0.00    +0.000 C 
ATOM     13  C   UNL     1       5.313   3.633  18.252  0.00  0.00    +0.000 C 
ATOM     14  C   UNL     1       4.873   3.634  16.783  0.00  0.00    +0.000 C 
BRANCH   7  16
ATOM     15  C   UNL     1       5.022   3.735  13.177  0.00  0.00    +0.000 C 
ATOM     16  C   UNL     1       6.179   4.115  14.111  0.00  0.00    +0.000 C 
ATOM     17  C   UNL     1       7.405   4.492  13.281  0.00  0.00    +0.000 C 
ENDBRANCH   7  16
ENDBRANCH   1  12
BRANCH   6  18
ATOM     18  O   UNL     1       2.748   6.540  20.491  0.00  0.00    +0.000 OA
BRANCH  18  19
ATOM     19  C   UNL     1       1.955   7.586  20.050  0.00  0.00    +0.000 A 
ATOM     20  C   UNL     1       1.153   8.236  20.992  0.00  0.00    +0.000 A 
ATOM     21  C   UNL     1       0.423   9.385  20.636  0.00  0.00    +0.000 A 
ATOM     22  C   UNL     1       0.510   9.923  19.342  0.00  0.00    +0.000 A 
ATOM     23  C   UNL     1       1.225   9.192  18.388  0.00  0.00    +0.000 A 
ATOM     24  C   UNL     1       1.975   8.063  18.740  0.00  0.00    +0.000 A 
BRANCH  22  25
ATOM     25  N   UNL     1      -0.158  11.133  19.025  0.00  0.00    +0.000 N 
ATOM     26  C   UNL     1       0.392  12.443  19.115  0.00  0.00    +0.000 A 
ATOM     27  C   UNL     1      -0.401  13.528  18.741  0.00  0.00    +0.000 A 
ATOM     28  C   UNL     1       0.135  14.821  18.785  0.00  0.00    +0.000 A 
ATOM     29  C   UNL     1       1.449  15.005  19.190  0.00  0.00    +0.000 A 
ATOM     30  C   UNL     1       2.172  13.884  19.541  0.00  0.00    +0.000 A 
ATOM     31  N   UNL     1       1.667  12.633  19.516  0.00  0.00    +0.000 NA
ATOM     32  H   UNL     1      -1.103  11.139  19.390  0.00  0.00    +0.000 HD
ENDBRANCH  22  25
ENDBRANCH  18  19
ENDBRANCH   6  18
TORSDOF 5
ENDMDL
MODEL 3
REMARK VINA RESULT:      -7.5      3.941     10.643
REMARK  Name = 
REMARK  7 active torsions:
REMARK  status: ('A' for Active; 'I' for Inactive)
REMARK    1  A    between atoms: C_1  and  C_2
REMARK    2  A    between atoms: C_2  and  C_3
REMARK    3  A    between atoms: C_2  and  C_4
REMARK    4  A    between atoms: C_9  and  C_10
REMARK    5  A    between atoms: C_15  and  O_16
REMARK    6  A    between atoms: O_16  and  C_17
REMARK    7  A    between atoms: C_20  and  N_21
REMARK                            x       y       z     vdW  Elec       q    Type
REMARK                         _______ _______ _______ _____ _____    ______ ____
ROOT
ATOM      1  C   UNL     1       3.244   4.550  19.479  0.00  0.00    +0.000 A 
ATOM      2  N   UNL     1       2.801   3.281  19.243  0.00  0.00    +0.000 NA
ATOM      3  C   UNL     1       1.536   2.993  19.611  0.00  0.00    +0.000 A 
ATOM      4  C   UNL     1       0.722   3.920  20.222  0.00  0.00    +0.000 A 
ATOM      5  N   UNL     1       1.138   5.172  20.488  0.00  0.00    +0.000 NA
ATOM      6  C   UNL     1       2.396   5.493  20.082  0.00  0.00    +0.000 A 
ENDROOT
BRANCH   1  12
ATOM      7  C   UNL     1       5.742   5.228  14.952  0.00  0.00    +0.000 C 
ATOM      8  O   UNL     1       6.036   6.377  14.609  0.00  0.00    +0.000 OA
ATOM      9  N   UNL     1       5.066   4.983  16.139  0.00  0.00    +0.000 N 
ATOM     10  C   UNL     1       4.410   6.099  16.818  0.00  0.00    +0.000 C 
ATOM     11  C   UNL     1       4.812   6.176  18.291  0.00  0.00    +0.000 C 
ATOM     12  C   UNL     1       4.674   4.838  19.052  0.00  0.00    +0.000 C 
ATOM     13  C   UNL     1       5.270   3.685  18.213  0.00  0.00    +0.000 C 
ATOM     14  C   UNL     1       4.817   3.679  16.748  0.00  0.00    +0.000 C 
BRANCH   7  16
ATOM     15  C   UNL     1       4.939   3.702  13.140  0.00  0.00    +0.000 C 
ATOM     16  C   UNL     1       6.122   4.044  14.056  0.00  0.00    +0.000 C 
ATOM     17  C   UNL     1       7.357   4.346  13.209  0.00  0.00    +0.000 C 
ENDBRANCH   7  16
ENDBRANCH   1  12
BRANCH   6  18
ATOM     18  O   UNL     1       2.838   6.784  20.331  0.00  0.00    +0.000 OA
BRANCH  18  19
ATOM     19  C   UNL     1       1.927   7.818  20.191  0.00  0.00    +0.000 A 
ATOM     20  C   UNL     1       1.870   8.470  18.955  0.00  0.00    +0.000 A 
ATOM     21  C   UNL     1       0.881   9.439  18.707  0.00  0.00    +0.000 A 
ATOM     22  C   UNL     1      -0.088   9.748  19.675  0.00  0.00    +0.000 A 
ATOM     23  C   UNL     1       0.060   9.169  20.939  0.00  0.00    +0.000 A 
ATOM     24  C   UNL     1       1.024   8.185  21.187  0.00  0.00    +0.000 A 
BRANCH  22  25
ATOM     25  N   UNL     1      -1.133  10.658  19.375  0.00  0.00    +0.000 N 
ATOM     26  C   UNL     1      -1.961  10.633  18.219  0.00  0.00    +0.000 A 
ATOM     27  C   UNL     1      -2.962  11.597  18.091  0.00  0.00    +0.000 A 
ATOM     28  C   UNL     1      -3.813  11.564  16.979  0.00  0.00    +0.000 A 
ATOM     29  C   UNL     1      -3.656  10.570  16.025  0.00  0.00    +0.000 A 
ATOM     30  C   UNL     1      -2.647   9.651  16.221  0.00  0.00    +0.000 A 
ATOM     31  N   UNL     1      -1.810   9.674  17.280  0.00  0.00    +0.000 NA
ATOM     32  H   UNL     1      -0.857  11.614  19.571  0.00  0.00    +0.000 HD
ENDBRANCH  22  25
ENDBRANCH  18  19
ENDBRANCH   6  18
TORSDOF 5
ENDMDL
MODEL 4
REMARK VINA RESULT:      -7.5      0.816      1.189
REMARK  Name = 
REMARK  7 active torsions:
REMARK  status: ('A' for Active; 'I' for Inactive)
REMARK    1  A    between atoms: C_1  and  C_2
REMARK    2  A    between atoms: C_2  and  C_3
REMARK    3  A    between atoms: C_2  and  C_4
REMARK    4  A    between atoms: C_9  and  C_10
REMARK    5  A    between atoms: C_15  and  O_16
REMARK    6  A    between atoms: O_16  and  C_17
REMARK    7  A    between atoms: C_20  and  N_21
REMARK                            x       y       z     vdW  Elec       q    Type
REMARK                         _______ _______ _______ _____ _____    ______ ____
ROOT
ATOM      1  C   UNL     1      -1.547  11.875  19.745  0.00  0.00    +0.000 A 
ATOM      2  N   UNL     1      -2.770  12.074  19.174  0.00  0.00    +0.000 NA
ATOM      3  C   UNL     1      -3.152  11.199  18.222  0.00  0.00    +0.000 A 
ATOM      4  C   UNL     1      -2.347  10.161  17.814  0.00  0.00    +0.000 A 
ATOM      5  N   UNL     1      -1.126   9.952  18.343  0.00  0.00    +0.000 NA
ATOM      6  C   UNL     1      -0.743  10.798  19.337  0.00  0.00    +0.000 A 
ENDROOT
BRANCH   1  12
ATOM      7  C   UNL     1      -3.896  14.175  23.792  0.00  0.00    +0.000 C 
ATOM      8  O   UNL     1      -3.648  13.762  24.929  0.00  0.00    +0.000 OA
ATOM      9  N   UNL     1      -3.313  13.597  22.674  0.00  0.00    +0.000 N 
ATOM     10  C   UNL     1      -2.668  12.292  22.813  0.00  0.00    +0.000 C 
ATOM     11  C   UNL     1      -1.249  12.303  22.244  0.00  0.00    +0.000 C 
ATOM     12  C   UNL     1      -1.148  12.881  20.814  0.00  0.00    +0.000 C 
ATOM     13  C   UNL     1      -1.964  14.188  20.710  0.00  0.00    +0.000 C 
ATOM     14  C   UNL     1      -3.375  14.094  21.303  0.00  0.00    +0.000 C 
BRANCH   7  16
ATOM     15  C   UNL     1      -6.309  14.830  23.711  0.00  0.00    +0.000 C 
ATOM     16  C   UNL     1      -4.868  15.345  23.602  0.00  0.00    +0.000 C 
ATOM     17  C   UNL     1      -4.638  16.449  24.632  0.00  0.00    +0.000 C 
ENDBRANCH   7  16
ENDBRANCH   1  12
BRANCH   6  18
ATOM     18  O   UNL     1       0.505  10.590  19.908  0.00  0.00    +0.000 OA
BRANCH  18  19
ATOM     19  C   UNL     1       1.265   9.535  19.433  0.00  0.00    +0.000 A 
ATOM     20  C   UNL     1       1.464   8.442  20.282  0.00  0.00    +0.000 A 
ATOM     21  C   UNL     1       2.116   7.287  19.815  0.00  0.00    +0.000 A 
ATOM     22  C   UNL     1       2.550   7.191  18.483  0.00  0.00    +0.000 A 
ATOM     23  C   UNL     1       2.444   8.335  17.688  0.00  0.00    +0.000 A 
ATOM     24  C   UNL     1       1.773   9.480  18.135  0.00  0.00    +0.000 A 
BRANCH  22  25
ATOM     25  N   UNL     1       3.122   5.984  18.004  0.00  0.00    +0.000 N 
ATOM     26  C   UNL     1       2.628   4.671  18.237  0.00  0.00    +0.000 A 
ATOM     27  C   UNL     1       3.304   3.590  17.670  0.00  0.00    +0.000 A 
ATOM     28  C   UNL     1       2.810   2.293  17.855  0.00  0.00    +0.000 A 
ATOM     29  C   UNL     1       1.650   2.100  18.592  0.00  0.00    +0.000 A 
ATOM     30  C   UNL     1       1.036   3.217  19.119  0.00  0.00    +0.000 A 
ATOM     31  N   UNL     1       1.504   4.472  18.961  0.00  0.00    +0.000 NA
ATOM     32  H   UNL     1       4.130   5.988  18.108  0.00  0.00    +0.000 HD
ENDBRANCH  22  25
ENDBRANCH  18  19
ENDBRANCH   6  18
TORSDOF 5
ENDMDL
MODEL 5
REMARK VINA RESULT:      -7.5      1.045      1.158
REMARK  Name = 
REMARK  7 active torsions:
REMARK  status: ('A' for Active; 'I' for Inactive)
REMARK    1  A    between atoms: C_1  and  C_2
REMARK    2  A    between atoms: C_2  and  C_3
REMARK    3  A    between atoms: C_2  and  C_4
REMARK    4  A    between atoms: C_9  and  C_10
REMARK    5  A    between atoms: C_15  and  O_16
REMARK    6  A    between atoms: O_16  and  C_17
REMARK    7  A    between atoms: C_20  and  N_21
REMARK                            x       y       z     vdW  Elec       q    Type
REMARK                         _______ _______ _______ _____ _____    ______ ____
ROOT
ATOM      1  C   UNL     1      -1.504  11.936  20.273  0.00  0.00    +0.000 A 
ATOM      2  N   UNL     1      -2.855  12.113  20.197  0.00  0.00    +0.000 NA
ATOM      3  C   UNL     1      -3.440  11.869  19.006  0.00  0.00    +0.000 A 
ATOM      4  C   UNL     1      -2.718  11.483  17.900  0.00  0.00    +0.000 A 
ATOM      5  N   UNL     1      -1.382  11.322  17.938  0.00  0.00    +0.000 NA
ATOM      6  C   UNL     1      -0.781  11.520  19.144  0.00  0.00    +0.000 A 
ENDROOT
BRANCH   1  12
ATOM      7  C   UNL     1      -2.820  14.683  24.505  0.00  0.00    +0.000 C 
ATOM      8  O   UNL     1      -3.246  14.075  25.492  0.00  0.00    +0.000 OA
ATOM      9  N   UNL     1      -2.465  14.010  23.345  0.00  0.00    +0.000 N 
ATOM     10  C   UNL     1      -2.906  12.628  23.170  0.00  0.00    +0.000 C 
ATOM     11  C   UNL     1      -1.742  11.708  22.804  0.00  0.00    +0.000 C 
ATOM     12  C   UNL     1      -0.879  12.221  21.629  0.00  0.00    +0.000 C 
ATOM     13  C   UNL     1      -0.565  13.723  21.817  0.00  0.00    +0.000 C 
ATOM     14  C   UNL     1      -1.786  14.576  22.182  0.00  0.00    +0.000 C 
BRANCH   7  16
ATOM     15  C   UNL     1      -4.025  16.829  24.949  0.00  0.00    +0.000 C 
ATOM     16  C   UNL     1      -2.679  16.209  24.552  0.00  0.00    +0.000 C 
ATOM     17  C   UNL     1      -1.600  16.651  25.538  0.00  0.00    +0.000 C 
ENDBRANCH   7  16
ENDBRANCH   1  12
BRANCH   6  18
ATOM     18  O   UNL     1       0.593  11.342  19.209  0.00  0.00    +0.000 OA
BRANCH  18  19
ATOM     19  C   UNL     1       1.077  10.045  19.227  0.00  0.00    +0.000 A 
ATOM     20  C   UNL     1       1.665   9.553  18.057  0.00  0.00    +0.000 A 
ATOM     21  C   UNL     1       2.289   8.293  18.048  0.00  0.00    +0.000 A 
ATOM     22  C   UNL     1       2.368   7.518  19.216  0.00  0.00    +0.000 A 
ATOM     23  C   UNL     1       1.675   7.977  20.340  0.00  0.00    +0.000 A 
ATOM     24  C   UNL     1       1.074   9.241  20.366  0.00  0.00    +0.000 A 
BRANCH  22  25
ATOM     25  N   UNL     1       3.082   6.292  19.213  0.00  0.00    +0.000 N 
ATOM     26  C   UNL     1       2.596   5.038  19.677  0.00  0.00    +0.000 A 
ATOM     27  C   UNL     1       3.428   3.921  19.579  0.00  0.00    +0.000 A 
ATOM     28  C   UNL     1       2.953   2.670  19.994  0.00  0.00    +0.000 A 
ATOM     29  C   UNL     1       1.661   2.556  20.486  0.00  0.00    +0.000 A 
ATOM     30  C   UNL     1       0.899   3.703  20.549  0.00  0.00    +0.000 A 
ATOM     31  N   UNL     1       1.343   4.918  20.166  0.00  0.00    +0.000 NA
ATOM     32  H   UNL     1       4.037   6.421  19.527  0.00  0.00    +0.000 HD
ENDBRANCH  22  25
ENDBRANCH  18  19
ENDBRANCH   6  18
TORSDOF 5
ENDMDL
MODEL 6
REMARK VINA RESULT:      -7.4      1.720      2.490
REMARK  Name = 
REMARK  7 active torsions:
REMARK  status: ('A' for Active; 'I' for Inactive)
REMARK    1  A    between atoms: C_1  and  C_2
REMARK    2  A    between atoms: C_2  and  C_3
REMARK    3  A    between atoms: C_2  and  C_4
REMARK    4  A    between atoms: C_9  and  C_10
REMARK    5  A    between atoms: C_15  and  O_16
REMARK    6  A    between atoms: O_16  and  C_17
REMARK    7  A    between atoms: C_20  and  N_21
REMARK                            x       y       z     vdW  Elec       q    Type
REMARK                         _______ _______ _______ _____ _____    ______ ____
ROOT
ATOM      1  C   UNL     1      -0.220  12.464  20.735  0.00  0.00    +0.000 A 
ATOM      2  N   UNL     1       0.085  13.464  21.612  0.00  0.00    +0.000 NA
ATOM      3  C   UNL     1       1.284  14.064  21.464  0.00  0.00    +0.000 A 
ATOM      4  C   UNL     1       2.182  13.681  20.494  0.00  0.00    +0.000 A 
ATOM      5  N   UNL     1       1.917  12.683  19.629  0.00  0.00    +0.000 NA
ATOM      6  C   UNL     1       0.694  12.097  19.735  0.00  0.00    +0.000 A 
ENDROOT
BRANCH   1  12
ATOM      7  C   UNL     1      -4.971  14.049  22.190  0.00  0.00    +0.000 C 
ATOM      8  O   UNL     1      -5.832  14.202  21.319  0.00  0.00    +0.000 OA
ATOM      9  N   UNL     1      -3.684  13.641  21.865  0.00  0.00    +0.000 N 
ATOM     10  C   UNL     1      -3.254  13.715  20.470  0.00  0.00    +0.000 C 
ATOM     11  C   UNL     1      -2.661  12.389  19.994  0.00  0.00    +0.000 C 
ATOM     12  C   UNL     1      -1.579  11.809  20.932  0.00  0.00    +0.000 C 
ATOM     13  C   UNL     1      -2.051  11.889  22.401  0.00  0.00    +0.000 C 
ATOM     14  C   UNL     1      -2.632  13.251  22.799  0.00  0.00    +0.000 C 
BRANCH   7  16
ATOM     15  C   UNL     1      -5.677  15.795  23.835  0.00  0.00    +0.000 C 
ATOM     16  C   UNL     1      -5.317  14.314  23.659  0.00  0.00    +0.000 C 
ATOM     17  C   UNL     1      -6.478  13.443  24.136  0.00  0.00    +0.000 C 
ENDBRANCH   7  16
ENDBRANCH   1  12
BRANCH   6  18
ATOM     18  O   UNL     1       0.394  11.078  18.841  0.00  0.00    +0.000 OA
BRANCH  18  19
ATOM     19  C   UNL     1       0.946   9.830  19.076  0.00  0.00    +0.000 A 
ATOM     20  C   UNL     1       1.639   9.218  18.027  0.00  0.00    +0.000 A 
ATOM     21  C   UNL     1       2.330   8.011  18.238  0.00  0.00    +0.000 A 
ATOM     22  C   UNL     1       2.370   7.414  19.509  0.00  0.00    +0.000 A 
ATOM     23  C   UNL     1       1.577   7.982  20.510  0.00  0.00    +0.000 A 
ATOM     24  C   UNL     1       0.907   9.195  20.317  0.00  0.00    +0.000 A 
BRANCH  22  25
ATOM     25  N   UNL     1       3.148   6.248  19.726  0.00  0.00    +0.000 N 
ATOM     26  C   UNL     1       2.844   4.939  19.260  0.00  0.00    +0.000 A 
ATOM     27  C   UNL     1       3.735   3.903  19.546  0.00  0.00    +0.000 A 
ATOM     28  C   UNL     1       3.474   2.615  19.062  0.00  0.00    +0.000 A 
ATOM     29  C   UNL     1       2.339   2.388  18.298  0.00  0.00    +0.000 A 
ATOM     30  C   UNL     1       1.508   3.461  18.054  0.00  0.00    +0.000 A 
ATOM     31  N   UNL     1       1.738   4.705  18.522  0.00  0.00    +0.000 NA
ATOM     32  H   UNL     1       3.476   6.197  20.683  0.00  0.00    +0.000 HD
ENDBRANCH  22  25
ENDBRANCH  18  19
ENDBRANCH   6  18
TORSDOF 5
ENDMDL
MODEL 7
REMARK VINA RESULT:      -7.4      2.241     10.095
REMARK  Name = 
REMARK  7 active torsions:
REMARK  status: ('A' for Active; 'I' for Inactive)
REMARK    1  A    between atoms: C_1  and  C_2
REMARK    2  A    between atoms: C_2  and  C_3
REMARK    3  A    between atoms: C_2  and  C_4
REMARK    4  A    between atoms: C_9  and  C_10
REMARK    5  A    between atoms: C_15  and  O_16
REMARK    6  A    between atoms: O_16  and  C_17
REMARK    7  A    between atoms: C_20  and  N_21
REMARK                            x       y       z     vdW  Elec       q    Type
REMARK                         _______ _______ _______ _____ _____    ______ ____
ROOT
ATOM      1  C   UNL     1       1.210  11.273  19.480  0.00  0.00    +0.000 A 
ATOM      2  N   UNL     1       1.955  11.836  18.486  0.00  0.00    +0.000 NA
ATOM      3  C   UNL     1       2.593  12.988  18.774  0.00  0.00    +0.000 A 
ATOM      4  C   UNL     1       2.488  13.596  20.004  0.00  0.00    +0.000 A 
ATOM      5  N   UNL     1       1.743  13.077  20.998  0.00  0.00    +0.000 NA
ATOM      6  C   UNL     1       1.129  11.891  20.739  0.00  0.00    +0.000 A 
ENDROOT
BRANCH   1  12
ATOM      7  C   UNL     1       2.524   6.233  19.228  0.00  0.00    +0.000 C 
ATOM      8  O   UNL     1       2.162   5.484  20.140  0.00  0.00    +0.000 OA
ATOM      9  N   UNL     1       2.217   7.586  19.244  0.00  0.00    +0.000 N 
ATOM     10  C   UNL     1       1.756   8.188  20.494  0.00  0.00    +0.000 C 
ATOM     11  C   UNL     1       0.460   8.973  20.295  0.00  0.00    +0.000 C 
ATOM     12  C   UNL     1       0.503   9.976  19.120  0.00  0.00    +0.000 C 
ATOM     13  C   UNL     1       1.125   9.306  17.874  0.00  0.00    +0.000 C 
ATOM     14  C   UNL     1       2.423   8.540  18.157  0.00  0.00    +0.000 C 
BRANCH   7  16
ATOM     15  C   UNL     1       4.799   5.516  18.475  0.00  0.00    +0.000 C 
ATOM     16  C   UNL     1       3.332   5.669  18.054  0.00  0.00    +0.000 C 
ATOM     17  C   UNL     1       2.789   4.320  17.587  0.00  0.00    +0.000 C 
ENDBRANCH   7  16
ENDBRANCH   1  12
BRANCH   6  18
ATOM     18  O   UNL     1       0.369  11.329  21.756  0.00  0.00    +0.000 OA
BRANCH  18  19
ATOM     19  C   UNL     1      -0.943  11.749  21.890  0.00  0.00    +0.000 A 
ATOM     20  C   UNL     1      -1.555  11.580  23.136  0.00  0.00    +0.000 A 
ATOM     21  C   UNL     1      -2.840  12.101  23.375  0.00  0.00    +0.000 A 
ATOM     22  C   UNL     1      -3.519  12.830  22.386  0.00  0.00    +0.000 A 
ATOM     23  C   UNL     1      -2.938  12.887  21.116  0.00  0.00    +0.000 A 
ATOM     24  C   UNL     1      -1.650  12.394  20.876  0.00  0.00    +0.000 A 
BRANCH  22  25
ATOM     25  N   UNL     1      -4.773  13.428  22.674  0.00  0.00    +0.000 N 
ATOM     26  C   UNL     1      -4.977  14.678  23.323  0.00  0.00    +0.000 A 
ATOM     27  C   UNL     1      -6.284  15.130  23.508  0.00  0.00    +0.000 A 
ATOM     28  C   UNL     1      -6.503  16.376  24.109  0.00  0.00    +0.000 A 
ATOM     29  C   UNL     1      -5.419  17.147  24.503  0.00  0.00    +0.000 A 
ATOM     30  C   UNL     1      -4.158  16.635  24.284  0.00  0.00    +0.000 A 
ATOM     31  N   UNL     1      -3.929  15.432  23.718  0.00  0.00    +0.000 NA
ATOM     32  H   UNL     1      -5.430  12.748  23.038  0.00  0.00    +0.000 HD
ENDBRANCH  22  25
ENDBRANCH  18  19
ENDBRANCH   6  18
TORSDOF 5
ENDMDL
MODEL 8
REMARK VINA RESULT:      -7.4      1.195      1.605
REMARK  Name = 
REMARK  7 active torsions:
REMARK  status: ('A' for Active; 'I' for Inactive)
REMARK    1  A    between atoms: C_1  and  C_2
REMARK    2  A    between atoms: C_2  and  C_3
REMARK    3  A    between atoms: C_2  and  C_4
REMARK    4  A    between atoms: C_9  and  C_10
REMARK    5  A    between atoms: C_15  and  O_16
REMARK    6  A    between atoms: O_16  and  C_17
REMARK    7  A    between atoms: C_20  and  N_21
REMARK                            x       y       z     vdW  Elec       q    Type
REMARK                         _______ _______ _______ _____ _____    ______ ____
ROOT
ATOM      1  C   UNL     1      -1.905  11.846  18.578  0.00  0.00    +0.000 A 
ATOM      2  N   UNL     1      -3.245  11.704  18.365  0.00  0.00    +0.000 NA
ATOM      3  C   UNL     1      -3.651  10.584  17.733  0.00  0.00    +0.000 A 
ATOM      4  C   UNL     1      -2.764   9.628  17.293  0.00  0.00    +0.000 A 
ATOM      5  N   UNL     1      -1.434   9.751  17.469  0.00  0.00    +0.000 NA
ATOM      6  C   UNL     1      -1.011  10.853  18.145  0.00  0.00    +0.000 A 
ENDROOT
BRANCH   1  12
ATOM      7  C   UNL     1      -2.005  13.603  23.486  0.00  0.00    +0.000 C 
ATOM      8  O   UNL     1      -0.954  13.597  24.135  0.00  0.00    +0.000 OA
ATOM      9  N   UNL     1      -2.046  13.137  22.180  0.00  0.00    +0.000 N 
ATOM     10  C   UNL     1      -0.929  12.334  21.684  0.00  0.00    +0.000 C 
ATOM     11  C   UNL     1      -0.393  12.874  20.359  0.00  0.00    +0.000 C 
ATOM     12  C   UNL     1      -1.483  13.121  19.291  0.00  0.00    +0.000 C 
ATOM     13  C   UNL     1      -2.688  13.855  19.922  0.00  0.00    +0.000 C 
ATOM     14  C   UNL     1      -3.164  13.251  21.248  0.00  0.00    +0.000 C 
BRANCH   7  16
ATOM     15  C   UNL     1      -4.118  12.946  24.653  0.00  0.00    +0.000 C 
ATOM     16  C   UNL     1      -3.294  14.129  24.127  0.00  0.00    +0.000 C 
ATOM     17  C   UNL     1      -3.005  15.100  25.270  0.00  0.00    +0.000 C 
ENDBRANCH   7  16
ENDBRANCH   1  12
BRANCH   6  18
ATOM     18  O   UNL     1       0.354  10.990  18.352  0.00  0.00    +0.000 OA
BRANCH  18  19
ATOM     19  C   UNL     1       1.060   9.873  18.765  0.00  0.00    +0.000 A 
ATOM     20  C   UNL     1       0.860   9.424  20.074  0.00  0.00    +0.000 A 
ATOM     21  C   UNL     1       1.447   8.224  20.514  0.00  0.00    +0.000 A 
ATOM     22  C   UNL     1       2.215   7.434  19.643  0.00  0.00    +0.000 A 
ATOM     23  C   UNL     1       2.496   7.960  18.378  0.00  0.00    +0.000 A 
ATOM     24  C   UNL     1       1.895   9.139  17.924  0.00  0.00    +0.000 A 
BRANCH  22  25
ATOM     25  N   UNL     1       2.722   6.182  20.074  0.00  0.00    +0.000 N 
ATOM     26  C   UNL     1       2.579   4.940  19.395  0.00  0.00    +0.000 A 
ATOM     27  C   UNL     1       3.162   3.801  19.951  0.00  0.00    +0.000 A 
ATOM     28  C   UNL     1       3.066   2.578  19.277  0.00  0.00    +0.000 A 
ATOM     29  C   UNL     1       2.401   2.516  18.061  0.00  0.00    +0.000 A 
ATOM     30  C   UNL     1       1.853   3.683  17.573  0.00  0.00    +0.000 A 
ATOM     31  N   UNL     1       1.925   4.868  18.215  0.00  0.00    +0.000 NA
ATOM     32  H   UNL     1       2.567   6.043  21.066  0.00  0.00    +0.000 HD
ENDBRANCH  22  25
ENDBRANCH  18  19
ENDBRANCH   6  18
TORSDOF 5
ENDMDL
MODEL 9
REMARK VINA RESULT:      -7.4      2.482      3.484
REMARK  Name = 
REMARK  7 active torsions:
REMARK  status: ('A' for Active; 'I' for Inactive)
REMARK    1  A    between atoms: C_1  and  C_2
REMARK    2  A    between atoms: C_2  and  C_3
REMARK    3  A    between atoms: C_2  and  C_4
REMARK    4  A    between atoms: C_9  and  C_10
REMARK    5  A    between atoms: C_15  and  O_16
REMARK    6  A    between atoms: O_16  and  C_17
REMARK    7  A    between atoms: C_20  and  N_21
REMARK                            x       y       z     vdW  Elec       q    Type
REMARK                         _______ _______ _______ _____ _____    ______ ____
ROOT
ATOM      1  C   UNL     1      -1.028  11.587  19.301  0.00  0.00    +0.000 A 
ATOM      2  N   UNL     1      -2.377  11.779  19.370  0.00  0.00    +0.000 NA
ATOM      3  C   UNL     1      -3.142  11.078  18.509  0.00  0.00    +0.000 A 
ATOM      4  C   UNL     1      -2.600  10.221  17.578  0.00  0.00    +0.000 A 
ATOM      5  N   UNL     1      -1.272  10.028  17.471  0.00  0.00    +0.000 NA
ATOM      6  C   UNL     1      -0.489  10.693  18.363  0.00  0.00    +0.000 A 
ENDROOT
BRANCH   1  12
ATOM      7  C   UNL     1       0.335  16.592  19.836  0.00  0.00    +0.000 C 
ATOM      8  O   UNL     1      -0.250  17.273  20.683  0.00  0.00    +0.000 OA
ATOM      9  N   UNL     1       0.009  15.257  19.637  0.00  0.00    +0.000 N 
ATOM     10  C   UNL     1      -1.245  14.750  20.191  0.00  0.00    +0.000 C 
ATOM     11  C   UNL     1      -1.023  13.480  21.013  0.00  0.00    +0.000 C 
ATOM     12  C   UNL     1      -0.198  12.395  20.286  0.00  0.00    +0.000 C 
ATOM     13  C   UNL     1       1.040  13.030  19.613  0.00  0.00    +0.000 C 
ATOM     14  C   UNL     1       0.732  14.298  18.808  0.00  0.00    +0.000 C 
BRANCH   7  16
ATOM     15  C   UNL     1       1.009  18.631  18.554  0.00  0.00    +0.000 C 
ATOM     16  C   UNL     1       1.440  17.221  18.982  0.00  0.00    +0.000 C 
ATOM     17  C   UNL     1       2.767  17.298  19.734  0.00  0.00    +0.000 C 
ENDBRANCH   7  16
ENDBRANCH   1  12
BRANCH   6  18
ATOM     18  O   UNL     1       0.882  10.494  18.281  0.00  0.00    +0.000 OA
BRANCH  18  19
ATOM     19  C   UNL     1       1.380   9.260  18.664  0.00  0.00    +0.000 A 
ATOM     20  C   UNL     1       2.199   8.580  17.757  0.00  0.00    +0.000 A 
ATOM     21  C   UNL     1       2.839   7.385  18.132  0.00  0.00    +0.000 A 
ATOM     22  C   UNL     1       2.701   6.868  19.431  0.00  0.00    +0.000 A 
ATOM     23  C   UNL     1       1.789   7.501  20.280  0.00  0.00    +0.000 A 
ATOM     24  C   UNL     1       1.167   8.704  19.925  0.00  0.00    +0.000 A 
BRANCH  22  25
ATOM     25  N   UNL     1       3.427   5.714  19.821  0.00  0.00    +0.000 N 
ATOM     26  C   UNL     1       3.291   4.410  19.268  0.00  0.00    +0.000 A 
ATOM     27  C   UNL     1       4.104   3.388  19.757  0.00  0.00    +0.000 A 
ATOM     28  C   UNL     1       4.013   2.107  19.197  0.00  0.00    +0.000 A 
ATOM     29  C   UNL     1       3.123   1.875  18.159  0.00  0.00    +0.000 A 
ATOM     30  C   UNL     1       2.355   2.936  17.727  0.00  0.00    +0.000 A 
ATOM     31  N   UNL     1       2.421   4.172  18.262  0.00  0.00    +0.000 NA
ATOM     32  H   UNL     1       3.496   5.646  20.830  0.00  0.00    +0.000 HD
ENDBRANCH  22  25
ENDBRANCH  18  19
ENDBRANCH   6  18
TORSDOF 5
ENDMDL
