MODEL 1
REMARK VINA RESULT:      -9.2      0.000      0.000
REMARK  Name = 
REMARK  7 active torsions:
REMARK  status: ('A' for Active; 'I' for Inactive)
REMARK    1  A    between atoms: C_1  and  C_2
REMARK    2  A    between atoms: C_3  and  O_4
REMARK    3  A    between atoms: O_4  and  C_5
REMARK    4  A    between atoms: C_5  and  C_6
REMARK    5  A    between atoms: C_9  and  C_10
REMARK    6  A    between atoms: C_26  and  C_27
REMARK    7  A    between atoms: C_27  and  O_29
REMARK                            x       y       z     vdW  Elec       q    Type
REMARK                         _______ _______ _______ _____ _____    ______ ____
ROOT
ATOM      1  C   UNL     1       1.242   4.454  20.545  0.00  0.00    +0.000 C 
ATOM      2  C   UNL     1       2.190   4.954  19.489  0.00  0.00    +0.000 A 
ATOM      3  C   UNL     1       2.470   6.305  19.345  0.00  0.00    +0.000 A 
ATOM      4  N   UNL     1       3.274   6.797  18.384  0.00  0.00    +0.000 NA
ATOM      5  C   UNL     1       3.903   5.978  17.560  0.00  0.00    +0.000 A 
ATOM      6  C   UNL     1       4.731   6.586  16.635  0.00  0.00    +0.000 A 
ATOM      7  C   UNL     1       5.478   5.839  15.733  0.00  0.00    +0.000 A 
ATOM      8  C   UNL     1       5.394   4.460  15.786  0.00  0.00    +0.000 A 
ATOM      9  F   UNL     1       6.115   3.726  14.932  0.00  0.00    +0.000 F 
ATOM     10  C   UNL     1       4.565   3.825  16.709  0.00  0.00    +0.000 A 
ATOM     11  C   UNL     1       3.769   4.579  17.614  0.00  0.00    +0.000 A 
ATOM     12  C   UNL     1       2.852   4.080  18.590  0.00  0.00    +0.000 A 
ENDROOT
BRANCH  12  13
ATOM     13  C   UNL     1       2.608   2.613  18.713  0.00  0.00    +0.000 C 
ATOM     14  O   UNL     1       3.275   1.878  19.419  0.00  0.00    +0.000 OA
BRANCH  13  15
ATOM     15  O   UNL     1       1.545   2.172  18.006  0.00  0.00    +0.000 OA
ATOM     16  H   UNL     1       0.668   2.378  18.378  0.00  0.00    +0.000 HD
ENDBRANCH  13  15
ENDBRANCH  12  13
BRANCH   3  17
ATOM     17  O   UNL     1       1.921   7.232  20.210  0.00  0.00    +0.000 OA
BRANCH  17  18
ATOM     18  C   UNL     1       1.650   8.475  19.533  0.00  0.00    +0.000 C 
BRANCH  18  19
ATOM     19  C   UNL     1       0.844   9.453  20.353  0.00  0.00    +0.000 A 
ATOM     20  C   UNL     1       0.570  10.744  19.914  0.00  0.00    +0.000 A 
ATOM     21  C   UNL     1      -0.161  11.622  20.719  0.00  0.00    +0.000 A 
ATOM     22  C   UNL     1      -0.665  11.242  21.977  0.00  0.00    +0.000 A 
ATOM     23  C   UNL     1      -0.398   9.933  22.402  0.00  0.00    +0.000 A 
ATOM     24  C   UNL     1       0.350   9.052  21.604  0.00  0.00    +0.000 A 
BRANCH  22  25
ATOM     25  C   UNL     1      -1.445  12.197  22.802  0.00  0.00    +0.000 A 
ATOM     26  C   UNL     1      -2.732  11.867  23.272  0.00  0.00    +0.000 A 
ATOM     27  C   UNL     1      -3.500  12.774  24.006  0.00  0.00    +0.000 A 
ATOM     28  C   UNL     1      -2.987  14.029  24.314  0.00  0.00    +0.000 A 
ATOM     29  C   UNL     1      -1.710  14.375  23.885  0.00  0.00    +0.000 A 
ATOM     30  C   UNL     1      -0.950  13.471  23.134  0.00  0.00    +0.000 A 
ENDBRANCH  22  25
ENDBRANCH  18  19
ENDBRANCH  17  18
ENDBRANCH   3  17
TORSDOF 6
ENDMDL
MODEL 2
REMARK VINA RESULT:      -9.0      0.179      1.274
REMARK  Name = 
REMARK  7 active torsions:
REMARK  status: ('A' for Active; 'I' for Inactive)
REMARK    1  A    between atoms: C_1  and  C_2
REMARK    2  A    between atoms: C_3  and  O_4
REMARK    3  A    between atoms: O_4  and  C_5
REMARK    4  A    between atoms: C_5  and  C_6
REMARK    5  A    between atoms: C_9  and  C_10
REMARK    6  A    between atoms: C_26  and  C_27
REMARK    7  A    between atoms: C_27  and  O_29
REMARK                            x       y       z     vdW  Elec       q    Type
REMARK                         _______ _______ _______ _____ _____    ______ ____
ROOT
ATOM      1  C   UNL     1       1.299   4.729  20.538  0.00  0.00    +0.000 C 
ATOM      2  C   UNL     1       2.246   5.173  19.458  0.00  0.00    +0.000 A 
ATOM      3  C   UNL     1       2.596   6.507  19.301  0.00  0.00    +0.000 A 
ATOM      4  N   UNL     1       3.401   6.951  18.319  0.00  0.00    +0.000 NA
ATOM      5  C   UNL     1       3.965   6.097  17.484  0.00  0.00    +0.000 A 
ATOM      6  C   UNL     1       4.802   6.656  16.536  0.00  0.00    +0.000 A 
ATOM      7  C   UNL     1       5.486   5.866  15.621  0.00  0.00    +0.000 A 
ATOM      8  C   UNL     1       5.329   4.494  15.682  0.00  0.00    +0.000 A 
ATOM      9  F   UNL     1       5.988   3.719  14.814  0.00  0.00    +0.000 F 
ATOM     10  C   UNL     1       4.490   3.908  16.628  0.00  0.00    +0.000 A 
ATOM     11  C   UNL     1       3.757   4.708  17.547  0.00  0.00    +0.000 A 
ATOM     12  C   UNL     1       2.838   4.262  18.548  0.00  0.00    +0.000 A 
ENDROOT
BRANCH  12  13
ATOM     13  C   UNL     1       2.518   2.811  18.683  0.00  0.00    +0.000 C 
ATOM     14  O   UNL     1       3.152   2.046  19.389  0.00  0.00    +0.000 OA
BRANCH  13  15
ATOM     15  O   UNL     1       1.427   2.421  17.988  0.00  0.00    +0.000 OA
ATOM     16  H   UNL     1       1.204   2.958  17.205  0.00  0.00    +0.000 HD
ENDBRANCH  13  15
ENDBRANCH  12  13
BRANCH   3  17
ATOM     17  O   UNL     1       2.118   7.465  20.175  0.00  0.00    +0.000 OA
BRANCH  17  18
ATOM     18  C   UNL     1       1.558   8.584  19.459  0.00  0.00    +0.000 C 
BRANCH  18  19
ATOM     19  C   UNL     1       0.775   9.535  20.332  0.00  0.00    +0.000 A 
ATOM     20  C   UNL     1       0.290   9.168  21.583  0.00  0.00    +0.000 A 
ATOM     21  C   UNL     1      -0.449  10.076  22.346  0.00  0.00    +0.000 A 
ATOM     22  C   UNL     1      -0.713  11.386  21.905  0.00  0.00    +0.000 A 
ATOM     23  C   UNL     1      -0.203  11.750  20.650  0.00  0.00    +0.000 A 
ATOM     24  C   UNL     1       0.526  10.837  19.873  0.00  0.00    +0.000 A 
BRANCH  22  25
ATOM     25  C   UNL     1      -1.495  12.327  22.744  0.00  0.00    +0.000 A 
ATOM     26  C   UNL     1      -0.962  13.577  23.121  0.00  0.00    +0.000 A 
ATOM     27  C   UNL     1      -1.664  14.452  23.953  0.00  0.00    +0.000 A 
ATOM     28  C   UNL     1      -2.931  14.111  24.409  0.00  0.00    +0.000 A 
ATOM     29  C   UNL     1      -3.494  12.895  24.034  0.00  0.00    +0.000 A 
ATOM     30  C   UNL     1      -2.782  12.012  23.215  0.00  0.00    +0.000 A 
ENDBRANCH  22  25
ENDBRANCH  18  19
ENDBRANCH  17  18
ENDBRANCH   3  17
TORSDOF 6
ENDMDL
MODEL 3
REMARK VINA RESULT:      -9.0      0.195      1.077
REMARK  Name = 
REMARK  7 active torsions:
REMARK  status: ('A' for Active; 'I' for Inactive)
REMARK    1  A    between atoms: C_1  and  C_2
REMARK    2  A    between atoms: C_3  and  O_4
REMARK    3  A    between atoms: O_4  and  C_5
REMARK    4  A    between atoms: C_5  and  C_6
REMARK    5  A    between atoms: C_9  and  C_10
REMARK    6  A    between atoms: C_26  and  C_27
REMARK    7  A    between atoms: C_27  and  O_29
REMARK                            x       y       z     vdW  Elec       q    Type
REMARK                         _______ _______ _______ _____ _____    ______ ____
ROOT
ATOM      1  C   UNL     1       1.302   4.700  20.459  0.00  0.00    +0.000 C 
ATOM      2  C   UNL     1       2.264   5.138  19.389  0.00  0.00    +0.000 A 
ATOM      3  C   UNL     1       2.637   6.468  19.247  0.00  0.00    +0.000 A 
ATOM      4  N   UNL     1       3.456   6.907  18.273  0.00  0.00    +0.000 NA
ATOM      5  C   UNL     1       4.011   6.051  17.434  0.00  0.00    +0.000 A 
ATOM      6  C   UNL     1       4.864   6.605  16.497  0.00  0.00    +0.000 A 
ATOM      7  C   UNL     1       5.540   5.813  15.579  0.00  0.00    +0.000 A 
ATOM      8  C   UNL     1       5.360   4.442  15.626  0.00  0.00    +0.000 A 
ATOM      9  F   UNL     1       6.012   3.664  14.756  0.00  0.00    +0.000 F 
ATOM     10  C   UNL     1       4.505   3.861  16.562  0.00  0.00    +0.000 A 
ATOM     11  C   UNL     1       3.779   4.665  17.484  0.00  0.00    +0.000 A 
ATOM     12  C   UNL     1       2.847   4.225  18.474  0.00  0.00    +0.000 A 
ENDROOT
BRANCH  12  13
ATOM     13  C   UNL     1       2.502   2.779  18.594  0.00  0.00    +0.000 C 
ATOM     14  O   UNL     1       1.591   2.252  17.980  0.00  0.00    +0.000 OA
BRANCH  13  15
ATOM     15  O   UNL     1       3.324   2.084  19.410  0.00  0.00    +0.000 OA
ATOM     16  H   UNL     1       3.148   2.166  20.365  0.00  0.00    +0.000 HD
ENDBRANCH  13  15
ENDBRANCH  12  13
BRANCH   3  17
ATOM     17  O   UNL     1       2.169   7.425  20.126  0.00  0.00    +0.000 OA
BRANCH  17  18
ATOM     18  C   UNL     1       1.540   8.513  19.419  0.00  0.00    +0.000 C 
BRANCH  18  19
ATOM     19  C   UNL     1       0.776   9.460  20.313  0.00  0.00    +0.000 A 
ATOM     20  C   UNL     1       0.545   9.189  21.658  0.00  0.00    +0.000 A 
ATOM     21  C   UNL     1      -0.187  10.086  22.441  0.00  0.00    +0.000 A 
ATOM     22  C   UNL     1      -0.694  11.293  21.924  0.00  0.00    +0.000 A 
ATOM     23  C   UNL     1      -0.439  11.563  20.572  0.00  0.00    +0.000 A 
ATOM     24  C   UNL     1       0.282  10.658  19.776  0.00  0.00    +0.000 A 
BRANCH  22  25
ATOM     25  C   UNL     1      -1.459  12.226  22.786  0.00  0.00    +0.000 A 
ATOM     26  C   UNL     1      -2.754  11.899  23.239  0.00  0.00    +0.000 A 
ATOM     27  C   UNL     1      -3.508  12.788  24.009  0.00  0.00    +0.000 A 
ATOM     28  C   UNL     1      -2.975  14.019  24.369  0.00  0.00    +0.000 A 
ATOM     29  C   UNL     1      -1.691  14.362  23.957  0.00  0.00    +0.000 A 
ATOM     30  C   UNL     1      -0.944  13.477  23.171  0.00  0.00    +0.000 A 
ENDBRANCH  22  25
ENDBRANCH  18  19
ENDBRANCH  17  18
ENDBRANCH   3  17
TORSDOF 6
ENDMDL
MODEL 4
REMARK VINA RESULT:      -8.8      0.962      1.302
REMARK  Name = 
REMARK  7 active torsions:
REMARK  status: ('A' for Active; 'I' for Inactive)
REMARK    1  A    between atoms: C_1  and  C_2
REMARK    2  A    between atoms: C_3  and  O_4
REMARK    3  A    between atoms: O_4  and  C_5
REMARK    4  A    between atoms: C_5  and  C_6
REMARK    5  A    between atoms: C_9  and  C_10
REMARK    6  A    between atoms: C_26  and  C_27
REMARK    7  A    between atoms: C_27  and  O_29
REMARK                            x       y       z     vdW  Elec       q    Type
REMARK                         _______ _______ _______ _____ _____    ______ ____
ROOT
ATOM      1  C   UNL     1       1.164   3.735  20.602  0.00  0.00    +0.000 C 
ATOM      2  C   UNL     1       2.016   4.538  19.658  0.00  0.00    +0.000 A 
ATOM      3  C   UNL     1       2.082   5.922  19.736  0.00  0.00    +0.000 A 
ATOM      4  N   UNL     1       2.794   6.678  18.880  0.00  0.00    +0.000 NA
ATOM      5  C   UNL     1       3.538   6.109  17.950  0.00  0.00    +0.000 A 
ATOM      6  C   UNL     1       4.257   6.977  17.149  0.00  0.00    +0.000 A 
ATOM      7  C   UNL     1       5.106   6.508  16.155  0.00  0.00    +0.000 A 
ATOM      8  C   UNL     1       5.239   5.142  15.987  0.00  0.00    +0.000 A 
ATOM      9  F   UNL     1       6.061   4.674  15.043  0.00  0.00    +0.000 F 
ATOM     10  C   UNL     1       4.524   4.247  16.782  0.00  0.00    +0.000 A 
ATOM     11  C   UNL     1       3.624   4.716  17.779  0.00  0.00    +0.000 A 
ATOM     12  C   UNL     1       2.802   3.931  18.646  0.00  0.00    +0.000 A 
ENDROOT
BRANCH  12  13
ATOM     13  C   UNL     1       2.790   2.444  18.530  0.00  0.00    +0.000 C 
ATOM     14  O   UNL     1       3.553   1.717  19.141  0.00  0.00    +0.000 OA
BRANCH  13  15
ATOM     15  O   UNL     1       1.822   1.963  17.721  0.00  0.00    +0.000 OA
ATOM     16  H   UNL     1       1.120   1.444  18.155  0.00  0.00    +0.000 HD
ENDBRANCH  13  15
ENDBRANCH  12  13
BRANCH   3  17
ATOM     17  O   UNL     1       1.399   6.602  20.725  0.00  0.00    +0.000 OA
BRANCH  17  18
ATOM     18  C   UNL     1       1.983   7.899  20.958  0.00  0.00    +0.000 C 
BRANCH  18  19
ATOM     19  C   UNL     1       0.975   8.968  21.307  0.00  0.00    +0.000 A 
ATOM     20  C   UNL     1       0.628   9.263  22.621  0.00  0.00    +0.000 A 
ATOM     21  C   UNL     1      -0.327  10.245  22.894  0.00  0.00    +0.000 A 
ATOM     22  C   UNL     1      -0.955  10.985  21.874  0.00  0.00    +0.000 A 
ATOM     23  C   UNL     1      -0.584  10.691  20.554  0.00  0.00    +0.000 A 
ATOM     24  C   UNL     1       0.364   9.693  20.274  0.00  0.00    +0.000 A 
BRANCH  22  25
ATOM     25  C   UNL     1      -1.959  12.027  22.200  0.00  0.00    +0.000 A 
ATOM     26  C   UNL     1      -2.703  11.969  23.396  0.00  0.00    +0.000 A 
ATOM     27  C   UNL     1      -3.688  12.913  23.694  0.00  0.00    +0.000 A 
ATOM     28  C   UNL     1      -3.937  13.959  22.813  0.00  0.00    +0.000 A 
ATOM     29  C   UNL     1      -3.202  14.057  21.635  0.00  0.00    +0.000 A 
ATOM     30  C   UNL     1      -2.228  13.100  21.331  0.00  0.00    +0.000 A 
ENDBRANCH  22  25
ENDBRANCH  18  19
ENDBRANCH  17  18
ENDBRANCH   3  17
TORSDOF 6
ENDMDL
MODEL 5
REMARK VINA RESULT:      -8.8      0.960      1.030
REMARK  Name = 
REMARK  7 active torsions:
REMARK  status: ('A' for Active; 'I' for Inactive)
REMARK    1  A    between atoms: C_1  and  C_2
REMARK    2  A    between atoms: C_3  and  O_4
REMARK    3  A    between atoms: O_4  and  C_5
REMARK    4  A    between atoms: C_5  and  C_6
REMARK    5  A    between atoms: C_9  and  C_10
REMARK    6  A    between atoms: C_26  and  C_27
REMARK    7  A    between atoms: C_27  and  O_29
REMARK                            x       y       z     vdW  Elec       q    Type
REMARK                         _______ _______ _______ _____ _____    ______ ____
ROOT
ATOM      1  C   UNL     1       1.550   4.423  20.105  0.00  0.00    +0.000 C 
ATOM      2  C   UNL     1       2.512   4.889  19.047  0.00  0.00    +0.000 A 
ATOM      3  C   UNL     1       2.784   6.236  18.854  0.00  0.00    +0.000 A 
ATOM      4  N   UNL     1       3.601   6.696  17.888  0.00  0.00    +0.000 NA
ATOM      5  C   UNL     1       4.251   5.850  17.109  0.00  0.00    +0.000 A 
ATOM      6  C   UNL     1       5.090   6.428  16.174  0.00  0.00    +0.000 A 
ATOM      7  C   UNL     1       5.859   5.652  15.316  0.00  0.00    +0.000 A 
ATOM      8  C   UNL     1       5.786   4.276  15.423  0.00  0.00    +0.000 A 
ATOM      9  F   UNL     1       6.528   3.514  14.612  0.00  0.00    +0.000 F 
ATOM     10  C   UNL     1       4.946   3.670  16.357  0.00  0.00    +0.000 A 
ATOM     11  C   UNL     1       4.127   4.454  17.216  0.00  0.00    +0.000 A 
ATOM     12  C   UNL     1       3.197   3.985  18.196  0.00  0.00    +0.000 A 
ENDROOT
BRANCH  12  13
ATOM     13  C   UNL     1       2.964   2.523  18.373  0.00  0.00    +0.000 C 
ATOM     14  O   UNL     1       3.576   1.836  19.172  0.00  0.00    +0.000 OA
BRANCH  13  15
ATOM     15  O   UNL     1       1.972   2.027  17.601  0.00  0.00    +0.000 OA
ATOM     16  H   UNL     1       2.248   1.427  16.884  0.00  0.00    +0.000 HD
ENDBRANCH  13  15
ENDBRANCH  12  13
BRANCH   3  17
ATOM     17  O   UNL     1       2.212   7.192  19.671  0.00  0.00    +0.000 OA
BRANCH  17  18
ATOM     18  C   UNL     1       1.987   8.420  18.951  0.00  0.00    +0.000 C 
BRANCH  18  19
ATOM     19  C   UNL     1       1.004   9.348  19.623  0.00  0.00    +0.000 A 
ATOM     20  C   UNL     1       0.386  10.394  18.945  0.00  0.00    +0.000 A 
ATOM     21  C   UNL     1      -0.501  11.241  19.615  0.00  0.00    +0.000 A 
ATOM     22  C   UNL     1      -0.823  11.067  20.974  0.00  0.00    +0.000 A 
ATOM     23  C   UNL     1      -0.208   9.998  21.642  0.00  0.00    +0.000 A 
ATOM     24  C   UNL     1       0.696   9.154  20.978  0.00  0.00    +0.000 A 
BRANCH  22  25
ATOM     25  C   UNL     1      -1.775  11.981  21.652  0.00  0.00    +0.000 A 
ATOM     26  C   UNL     1      -2.083  11.823  23.019  0.00  0.00    +0.000 A 
ATOM     27  C   UNL     1      -3.015  12.642  23.659  0.00  0.00    +0.000 A 
ATOM     28  C   UNL     1      -3.646  13.661  22.955  0.00  0.00    +0.000 A 
ATOM     29  C   UNL     1      -3.345  13.857  21.610  0.00  0.00    +0.000 A 
ATOM     30  C   UNL     1      -2.424  13.023  20.966  0.00  0.00    +0.000 A 
ENDBRANCH  22  25
ENDBRANCH  18  19
ENDBRANCH  17  18
ENDBRANCH   3  17
TORSDOF 6
ENDMDL
MODEL 6
REMARK VINA RESULT:      -8.6      0.882      1.213
REMARK  Name = 
REMARK  7 active torsions:
REMARK  status: ('A' for Active; 'I' for Inactive)
REMARK    1  A    between atoms: C_1  and  C_2
REMARK    2  A    between atoms: C_3  and  O_4
REMARK    3  A    between atoms: O_4  and  C_5
REMARK    4  A    between atoms: C_5  and  C_6
REMARK    5  A    between atoms: C_9  and  C_10
REMARK    6  A    between atoms: C_26  and  C_27
REMARK    7  A    between atoms: C_27  and  O_29
REMARK                            x       y       z     vdW  Elec       q    Type
REMARK                         _______ _______ _______ _____ _____    ______ ____
ROOT
ATOM      1  C   UNL     1       1.541   4.707  20.501  0.00  0.00    +0.000 C 
ATOM      2  C   UNL     1       2.462   5.103  19.380  0.00  0.00    +0.000 A 
ATOM      3  C   UNL     1       2.741   6.434  19.104  0.00  0.00    +0.000 A 
ATOM      4  N   UNL     1       3.520   6.831  18.081  0.00  0.00    +0.000 NA
ATOM      5  C   UNL     1       4.125   5.937  17.320  0.00  0.00    +0.000 A 
ATOM      6  C   UNL     1       4.930   6.453  16.321  0.00  0.00    +0.000 A 
ATOM      7  C   UNL     1       5.651   5.622  15.473  0.00  0.00    +0.000 A 
ATOM      8  C   UNL     1       5.566   4.254  15.655  0.00  0.00    +0.000 A 
ATOM      9  F   UNL     1       6.262   3.440  14.855  0.00  0.00    +0.000 F 
ATOM     10  C   UNL     1       4.761   3.711  16.655  0.00  0.00    +0.000 A 
ATOM     11  C   UNL     1       3.990   4.550  17.506  0.00  0.00    +0.000 A 
ATOM     12  C   UNL     1       3.098   4.147  18.548  0.00  0.00    +0.000 A 
ENDROOT
BRANCH  12  13
ATOM     13  C   UNL     1       2.854   2.699  18.813  0.00  0.00    +0.000 C 
ATOM     14  O   UNL     1       1.959   2.061  18.286  0.00  0.00    +0.000 OA
BRANCH  13  15
ATOM     15  O   UNL     1       3.748   2.136  19.654  0.00  0.00    +0.000 OA
ATOM     16  H   UNL     1       3.731   1.162  19.707  0.00  0.00    +0.000 HD
ENDBRANCH  13  15
ENDBRANCH  12  13
BRANCH   3  17
ATOM     17  O   UNL     1       2.217   7.440  19.894  0.00  0.00    +0.000 OA
BRANCH  17  18
ATOM     18  C   UNL     1       1.837   8.578  19.096  0.00  0.00    +0.000 C 
BRANCH  18  19
ATOM     19  C   UNL     1       0.840   9.490  19.771  0.00  0.00    +0.000 A 
ATOM     20  C   UNL     1       0.063  10.399  19.061  0.00  0.00    +0.000 A 
ATOM     21  C   UNL     1      -0.830  11.238  19.733  0.00  0.00    +0.000 A 
ATOM     22  C   UNL     1      -0.999  11.189  21.129  0.00  0.00    +0.000 A 
ATOM     23  C   UNL     1      -0.224  10.256  21.832  0.00  0.00    +0.000 A 
ATOM     24  C   UNL     1       0.687   9.422  21.164  0.00  0.00    +0.000 A 
BRANCH  22  25
ATOM     25  C   UNL     1      -1.962  12.089  21.809  0.00  0.00    +0.000 A 
ATOM     26  C   UNL     1      -2.549  13.173  21.125  0.00  0.00    +0.000 A 
ATOM     27  C   UNL     1      -3.418  14.061  21.765  0.00  0.00    +0.000 A 
ATOM     28  C   UNL     1      -3.744  13.870  23.102  0.00  0.00    +0.000 A 
ATOM     29  C   UNL     1      -3.200  12.795  23.798  0.00  0.00    +0.000 A 
ATOM     30  C   UNL     1      -2.316  11.918  23.160  0.00  0.00    +0.000 A 
ENDBRANCH  22  25
ENDBRANCH  18  19
ENDBRANCH  17  18
ENDBRANCH   3  17
TORSDOF 6
ENDMDL
MODEL 7
REMARK VINA RESULT:      -8.6      2.500      3.068
REMARK  Name = 
REMARK  7 active torsions:
REMARK  status: ('A' for Active; 'I' for Inactive)
REMARK    1  A    between atoms: C_1  and  C_2
REMARK    2  A    between atoms: C_3  and  O_4
REMARK    3  A    between atoms: O_4  and  C_5
REMARK    4  A    between atoms: C_5  and  C_6
REMARK    5  A    between atoms: C_9  and  C_10
REMARK    6  A    between atoms: C_26  and  C_27
REMARK    7  A    between atoms: C_27  and  O_29
REMARK                            x       y       z     vdW  Elec       q    Type
REMARK                         _______ _______ _______ _____ _____    ______ ____
ROOT
ATOM      1  C   UNL     1       1.361   4.826  20.235  0.00  0.00    +0.000 C 
ATOM      2  C   UNL     1       2.340   5.207  19.159  0.00  0.00    +0.000 A 
ATOM      3  C   UNL     1       2.626   6.535  18.872  0.00  0.00    +0.000 A 
ATOM      4  N   UNL     1       3.458   6.917  17.887  0.00  0.00    +0.000 NA
ATOM      5  C   UNL     1       4.112   6.012  17.179  0.00  0.00    +0.000 A 
ATOM      6  C   UNL     1       4.968   6.514  16.217  0.00  0.00    +0.000 A 
ATOM      7  C   UNL     1       5.742   5.673  15.428  0.00  0.00    +0.000 A 
ATOM      8  C   UNL     1       5.656   4.308  15.634  0.00  0.00    +0.000 A 
ATOM      9  F   UNL     1       6.402   3.484  14.890  0.00  0.00    +0.000 F 
ATOM     10  C   UNL     1       4.799   3.779  16.598  0.00  0.00    +0.000 A 
ATOM     11  C   UNL     1       3.975   4.628  17.386  0.00  0.00    +0.000 A 
ATOM     12  C   UNL     1       3.029   4.239  18.385  0.00  0.00    +0.000 A 
ENDROOT
BRANCH  12  13
ATOM     13  C   UNL     1       2.781   2.795  18.664  0.00  0.00    +0.000 C 
ATOM     14  O   UNL     1       3.348   2.174  19.546  0.00  0.00    +0.000 OA
BRANCH  13  15
ATOM     15  O   UNL     1       1.830   2.239  17.883  0.00  0.00    +0.000 OA
ATOM     16  H   UNL     1       1.954   1.298  17.663  0.00  0.00    +0.000 HD
ENDBRANCH  13  15
ENDBRANCH  12  13
BRANCH   3  17
ATOM     17  O   UNL     1       2.051   7.551  19.610  0.00  0.00    +0.000 OA
BRANCH  17  18
ATOM     18  C   UNL     1       2.073   8.795  18.882  0.00  0.00    +0.000 C 
BRANCH  18  19
ATOM     19  C   UNL     1       0.717   9.444  18.744  0.00  0.00    +0.000 A 
ATOM     20  C   UNL     1      -0.045   9.336  17.585  0.00  0.00    +0.000 A 
ATOM     21  C   UNL     1      -1.286   9.974  17.496  0.00  0.00    +0.000 A 
ATOM     22  C   UNL     1      -1.823  10.722  18.561  0.00  0.00    +0.000 A 
ATOM     23  C   UNL     1      -1.054  10.808  19.730  0.00  0.00    +0.000 A 
ATOM     24  C   UNL     1       0.200  10.183  19.819  0.00  0.00    +0.000 A 
BRANCH  22  25
ATOM     25  C   UNL     1      -3.147  11.379  18.435  0.00  0.00    +0.000 A 
ATOM     26  C   UNL     1      -3.708  12.092  19.513  0.00  0.00    +0.000 A 
ATOM     27  C   UNL     1      -4.976  12.673  19.428  0.00  0.00    +0.000 A 
ATOM     28  C   UNL     1      -5.705  12.578  18.249  0.00  0.00    +0.000 A 
ATOM     29  C   UNL     1      -5.168  11.901  17.159  0.00  0.00    +0.000 A 
ATOM     30  C   UNL     1      -3.906  11.305  17.253  0.00  0.00    +0.000 A 
ENDBRANCH  22  25
ENDBRANCH  18  19
ENDBRANCH  17  18
ENDBRANCH   3  17
TORSDOF 6
ENDMDL
MODEL 8
REMARK VINA RESULT:      -8.6      2.590      3.142
REMARK  Name = 
REMARK  7 active torsions:
REMARK  status: ('A' for Active; 'I' for Inactive)
REMARK    1  A    between atoms: C_1  and  C_2
REMARK    2  A    between atoms: C_3  and  O_4
REMARK    3  A    between atoms: O_4  and  C_5
REMARK    4  A    between atoms: C_5  and  C_6
REMARK    5  A    between atoms: C_9  and  C_10
REMARK    6  A    between atoms: C_26  and  C_27
REMARK    7  A    between atoms: C_27  and  O_29
REMARK                            x       y       z     vdW  Elec       q    Type
REMARK                         _______ _______ _______ _____ _____    ______ ____
ROOT
ATOM      1  C   UNL     1       1.606   5.216  20.498  0.00  0.00    +0.000 C 
ATOM      2  C   UNL     1       2.500   5.515  19.326  0.00  0.00    +0.000 A 
ATOM      3  C   UNL     1       2.690   6.811  18.868  0.00  0.00    +0.000 A 
ATOM      4  N   UNL     1       3.442   7.115  17.795  0.00  0.00    +0.000 NA
ATOM      5  C   UNL     1       4.108   6.168  17.160  0.00  0.00    +0.000 A 
ATOM      6  C   UNL     1       4.878   6.594  16.094  0.00  0.00    +0.000 A 
ATOM      7  C   UNL     1       5.656   5.706  15.363  0.00  0.00    +0.000 A 
ATOM      8  C   UNL     1       5.663   4.373  15.731  0.00  0.00    +0.000 A 
ATOM      9  F   UNL     1       6.415   3.506  15.045  0.00  0.00    +0.000 F 
ATOM     10  C   UNL     1       4.894   3.919  16.802  0.00  0.00    +0.000 A 
ATOM     11  C   UNL     1       4.066   4.813  17.535  0.00  0.00    +0.000 A 
ATOM     12  C   UNL     1       3.201   4.498  18.629  0.00  0.00    +0.000 A 
ENDROOT
BRANCH  12  13
ATOM     13  C   UNL     1       3.056   3.087  19.091  0.00  0.00    +0.000 C 
ATOM     14  O   UNL     1       2.204   2.326  18.667  0.00  0.00    +0.000 OA
BRANCH  13  15
ATOM     15  O   UNL     1       3.987   2.705  19.992  0.00  0.00    +0.000 OA
ATOM     16  H   UNL     1       4.764   3.288  20.077  0.00  0.00    +0.000 HD
ENDBRANCH  13  15
ENDBRANCH  12  13
BRANCH   3  17
ATOM     17  O   UNL     1       2.097   7.878  19.516  0.00  0.00    +0.000 OA
BRANCH  17  18
ATOM     18  C   UNL     1       2.010   9.026  18.649  0.00  0.00    +0.000 C 
BRANCH  18  19
ATOM     19  C   UNL     1       0.629   9.634  18.581  0.00  0.00    +0.000 A 
ATOM     20  C   UNL     1      -0.204   9.465  17.480  0.00  0.00    +0.000 A 
ATOM     21  C   UNL     1      -1.465  10.067  17.453  0.00  0.00    +0.000 A 
ATOM     22  C   UNL     1      -1.953  10.837  18.526  0.00  0.00    +0.000 A 
ATOM     23  C   UNL     1      -1.111  10.984  19.637  0.00  0.00    +0.000 A 
ATOM     24  C   UNL     1       0.164  10.396  19.663  0.00  0.00    +0.000 A 
BRANCH  22  25
ATOM     25  C   UNL     1      -3.300  11.454  18.467  0.00  0.00    +0.000 A 
ATOM     26  C   UNL     1      -4.105  11.330  17.316  0.00  0.00    +0.000 A 
ATOM     27  C   UNL     1      -5.354  11.948  17.225  0.00  0.00    +0.000 A 
ATOM     28  C   UNL     1      -5.844  12.686  18.296  0.00  0.00    +0.000 A 
ATOM     29  C   UNL     1      -5.083  12.807  19.455  0.00  0.00    +0.000 A 
ATOM     30  C   UNL     1      -3.825  12.202  19.537  0.00  0.00    +0.000 A 
ENDBRANCH  22  25
ENDBRANCH  18  19
ENDBRANCH  17  18
ENDBRANCH   3  17
TORSDOF 6
ENDMDL
MODEL 9
REMARK VINA RESULT:      -8.5      1.003      1.241
REMARK  Name = 
REMARK  7 active torsions:
REMARK  status: ('A' for Active; 'I' for Inactive)
REMARK    1  A    between atoms: C_1  and  C_2
REMARK    2  A    between atoms: C_3  and  O_4
REMARK    3  A    between atoms: O_4  and  C_5
REMARK    4  A    between atoms: C_5  and  C_6
REMARK    5  A    between atoms: C_9  and  C_10
REMARK    6  A    between atoms: C_26  and  C_27
REMARK    7  A    between atoms: C_27  and  O_29
REMARK                            x       y       z     vdW  Elec       q    Type
REMARK                         _______ _______ _______ _____ _____    ______ ____
ROOT
ATOM      1  C   UNL     1       1.311   3.659  20.465  0.00  0.00    +0.000 C 
ATOM      2  C   UNL     1       2.140   4.513  19.546  0.00  0.00    +0.000 A 
ATOM      3  C   UNL     1       2.149   5.897  19.650  0.00  0.00    +0.000 A 
ATOM      4  N   UNL     1       2.838   6.698  18.817  0.00  0.00    +0.000 NA
ATOM      5  C   UNL     1       3.614   6.177  17.884  0.00  0.00    +0.000 A 
ATOM      6  C   UNL     1       4.305   7.089  17.108  0.00  0.00    +0.000 A 
ATOM      7  C   UNL     1       5.183   6.674  16.115  0.00  0.00    +0.000 A 
ATOM      8  C   UNL     1       5.372   5.318  15.922  0.00  0.00    +0.000 A 
ATOM      9  F   UNL     1       6.222   4.902  14.977  0.00  0.00    +0.000 F 
ATOM     10  C   UNL     1       4.686   4.380  16.692  0.00  0.00    +0.000 A 
ATOM     11  C   UNL     1       3.758   4.793  17.687  0.00  0.00    +0.000 A 
ATOM     12  C   UNL     1       2.959   3.959  18.530  0.00  0.00    +0.000 A 
ENDROOT
BRANCH  12  13
ATOM     13  C   UNL     1       3.008   2.475  18.385  0.00  0.00    +0.000 C 
ATOM     14  O   UNL     1       2.225   1.840  17.701  0.00  0.00    +0.000 OA
BRANCH  13  15
ATOM     15  O   UNL     1       4.034   1.893  19.043  0.00  0.00    +0.000 OA
ATOM     16  H   UNL     1       4.634   2.496  19.519  0.00  0.00    +0.000 HD
ENDBRANCH  13  15
ENDBRANCH  12  13
BRANCH   3  17
ATOM     17  O   UNL     1       1.429   6.530  20.645  0.00  0.00    +0.000 OA
BRANCH  17  18
ATOM     18  C   UNL     1       1.998   7.818  20.955  0.00  0.00    +0.000 C 
BRANCH  18  19
ATOM     19  C   UNL     1       0.969   8.888  21.232  0.00  0.00    +0.000 A 
ATOM     20  C   UNL     1       0.447   9.695  20.227  0.00  0.00    +0.000 A 
ATOM     21  C   UNL     1      -0.488  10.688  20.535  0.00  0.00    +0.000 A 
ATOM     22  C   UNL     1      -0.954  10.898  21.847  0.00  0.00    +0.000 A 
ATOM     23  C   UNL     1      -0.433  10.066  22.848  0.00  0.00    +0.000 A 
ATOM     24  C   UNL     1       0.518   9.078  22.547  0.00  0.00    +0.000 A 
BRANCH  22  25
ATOM     25  C   UNL     1      -1.952  11.956  22.137  0.00  0.00    +0.000 A 
ATOM     26  C   UNL     1      -2.621  12.001  23.378  0.00  0.00    +0.000 A 
ATOM     27  C   UNL     1      -3.601  12.959  23.648  0.00  0.00    +0.000 A 
ATOM     28  C   UNL     1      -3.919  13.916  22.692  0.00  0.00    +0.000 A 
ATOM     29  C   UNL     1      -3.260  13.912  21.467  0.00  0.00    +0.000 A 
ATOM     30  C   UNL     1      -2.291  12.940  21.192  0.00  0.00    +0.000 A 
ENDBRANCH  22  25
ENDBRANCH  18  19
ENDBRANCH  17  18
ENDBRANCH   3  17
TORSDOF 6
ENDMDL
