MODEL 1
REMARK VINA RESULT:      -6.8      0.000      0.000
REMARK  Name = 
REMARK  6 active torsions:
REMARK  status: ('A' for Active; 'I' for Inactive)
REMARK    1  A    between atoms: C_1  and  C_2
REMARK    2  A    between atoms: C_4  and  C_5
REMARK    3  A    between atoms: N_6  and  C_7
REMARK    4  A    between atoms: C_13  and  C_14
REMARK    5  A    between atoms: C_20  and  C_21
REMARK    6  A    between atoms: N_27  and  C_28
REMARK                            x       y       z     vdW  Elec       q    Type
REMARK                         _______ _______ _______ _____ _____    ______ ____
ROOT
ATOM      1  C   UNL     1      -4.174  13.424  20.877  0.00  0.00    +0.000 A 
ATOM      2  N   UNL     1      -4.269  13.221  22.245  0.00  0.00    +0.000 NA
ATOM      3  C   UNL     1      -3.340  12.449  22.819  0.00  0.00    +0.000 A 
ATOM      4  N   UNL     1      -2.279  11.902  22.217  0.00  0.00    +0.000 NA
ATOM      5  C   UNL     1      -1.982  12.521  21.054  0.00  0.00    +0.000 A 
ATOM      6  C   UNL     1      -2.728  13.532  20.428  0.00  0.00    +0.000 A 
ATOM      7  C   UNL     1      -1.464  14.525  20.309  0.00  0.00    +0.000 A 
ATOM      8  C   UNL     1      -0.323  13.673  20.119  0.00  0.00    +0.000 A 
ATOM      9  N   UNL     1      -0.825  12.383  20.312  0.00  0.00    +0.000 N 
ENDROOT
BRANCH   1  15
ATOM     10  C   UNL     1      -7.828   9.844  20.633  0.00  0.00    +0.000 C 
ATOM     11  C   UNL     1      -6.715  10.819  20.231  0.00  0.00    +0.000 A 
ATOM     12  C   UNL     1      -6.022  10.600  19.046  0.00  0.00    +0.000 A 
ATOM     13  C   UNL     1      -5.095  11.617  18.988  0.00  0.00    +0.000 A 
ATOM     14  C   UNL     1      -4.199  11.753  17.817  0.00  0.00    +0.000 C 
ATOM     15  N   UNL     1      -5.239  12.455  20.170  0.00  0.00    +0.000 N 
ATOM     16  N   UNL     1      -6.303  11.896  20.922  0.00  0.00    +0.000 NA
ENDBRANCH   1  15
BRANCH   9  17
ATOM     17  C   UNL     1      -0.180  11.169  19.953  0.00  0.00    +0.000 A 
ATOM     18  C   UNL     1       0.418  10.358  20.920  0.00  0.00    +0.000 A 
ATOM     19  C   UNL     1       1.142   9.232  20.522  0.00  0.00    +0.000 A 
ATOM     20  C   UNL     1       1.268   8.926  19.168  0.00  0.00    +0.000 A 
ATOM     21 CL   UNL     1       2.211   7.570  18.685  0.00  0.00    +0.000 Cl
ATOM     22  C   UNL     1       0.638   9.701  18.204  0.00  0.00    +0.000 A 
ATOM     23  C   UNL     1      -0.119  10.794  18.601  0.00  0.00    +0.000 A 
ENDBRANCH   9  17
BRANCH   7  24
ATOM     24  C   UNL     1      -1.087  16.011  20.363  0.00  0.00    +0.000 A 
ATOM     25  C   UNL     1      -0.493  16.537  21.562  0.00  0.00    +0.000 A 
ATOM     26  C   UNL     1       0.385  17.651  21.587  0.00  0.00    +0.000 A 
ATOM     27  C   UNL     1       0.626  18.360  20.423  0.00  0.00    +0.000 A 
ATOM     28  C   UNL     1      -0.032  17.955  19.260  0.00  0.00    +0.000 A 
ATOM     29  C   UNL     1      -0.862  16.789  19.223  0.00  0.00    +0.000 A 
ENDBRANCH   7  24
BRANCH   8  30
ATOM     30  C   UNL     1       1.168  13.928  19.903  0.00  0.00    +0.000 A 
ATOM     31  C   UNL     1       1.684  14.210  18.615  0.00  0.00    +0.000 A 
ATOM     32  C   UNL     1       2.994  14.689  18.428  0.00  0.00    +0.000 A 
ATOM     33  C   UNL     1       3.855  14.812  19.514  0.00  0.00    +0.000 A 
ATOM     34  C   UNL     1       3.402  14.448  20.780  0.00  0.00    +0.000 A 
ATOM     35  C   UNL     1       2.074  14.022  20.971  0.00  0.00    +0.000 A 
ENDBRANCH   8  30
TORSDOF 4
ENDMDL
MODEL 2
REMARK VINA RESULT:      -6.7      1.091      1.440
REMARK  Name = 
REMARK  6 active torsions:
REMARK  status: ('A' for Active; 'I' for Inactive)
REMARK    1  A    between atoms: C_1  and  C_2
REMARK    2  A    between atoms: C_4  and  C_5
REMARK    3  A    between atoms: N_6  and  C_7
REMARK    4  A    between atoms: C_13  and  C_14
REMARK    5  A    between atoms: C_20  and  C_21
REMARK    6  A    between atoms: N_27  and  C_28
REMARK                            x       y       z     vdW  Elec       q    Type
REMARK                         _______ _______ _______ _____ _____    ______ ____
ROOT
ATOM      1  C   UNL     1      -5.137  13.451  20.894  0.00  0.00    +0.000 A 
ATOM      2  N   UNL     1      -5.418  13.423  22.251  0.00  0.00    +0.000 NA
ATOM      3  C   UNL     1      -4.544  12.798  23.048  0.00  0.00    +0.000 A 
ATOM      4  N   UNL     1      -3.382  12.251  22.678  0.00  0.00    +0.000 NA
ATOM      5  C   UNL     1      -2.952  12.732  21.492  0.00  0.00    +0.000 A 
ATOM      6  C   UNL     1      -3.649  13.599  20.636  0.00  0.00    +0.000 A 
ATOM      7  C   UNL     1      -2.431  14.652  20.552  0.00  0.00    +0.000 A 
ATOM      8  C   UNL     1      -1.234  13.863  20.640  0.00  0.00    +0.000 A 
ATOM      9  N   UNL     1      -1.694  12.579  20.941  0.00  0.00    +0.000 N 
ENDROOT
BRANCH   1  15
ATOM     10  C   UNL     1      -7.552   8.955  20.468  0.00  0.00    +0.000 C 
ATOM     11  C   UNL     1      -6.917  10.306  20.119  0.00  0.00    +0.000 A 
ATOM     12  C   UNL     1      -6.550  10.559  18.802  0.00  0.00    +0.000 A 
ATOM     13  C   UNL     1      -6.001  11.822  18.826  0.00  0.00    +0.000 A 
ATOM     14  C   UNL     1      -5.544  12.468  17.575  0.00  0.00    +0.000 C 
ATOM     15  N   UNL     1      -6.040  12.327  20.191  0.00  0.00    +0.000 N 
ATOM     16  N   UNL     1      -6.649  11.311  20.970  0.00  0.00    +0.000 NA
ENDBRANCH   1  15
BRANCH   9  17
ATOM     17  C   UNL     1      -0.944  11.374  20.846  0.00  0.00    +0.000 A 
ATOM     18  C   UNL     1      -0.371  10.792  21.978  0.00  0.00    +0.000 A 
ATOM     19  C   UNL     1       0.454   9.675  21.834  0.00  0.00    +0.000 A 
ATOM     20  C   UNL     1       0.705   9.150  20.567  0.00  0.00    +0.000 A 
ATOM     21 CL   UNL     1       1.770   7.811  20.394  0.00  0.00    +0.000 Cl
ATOM     22  C   UNL     1       0.102   9.696  19.442  0.00  0.00    +0.000 A 
ATOM     23  C   UNL     1      -0.755  10.778  19.588  0.00  0.00    +0.000 A 
ENDBRANCH   9  17
BRANCH   7  24
ATOM     24  C   UNL     1      -2.141  16.154  20.450  0.00  0.00    +0.000 A 
ATOM     25  C   UNL     1      -2.024  16.926  21.657  0.00  0.00    +0.000 A 
ATOM     26  C   UNL     1      -1.244  18.106  21.770  0.00  0.00    +0.000 A 
ATOM     27  C   UNL     1      -0.627  18.630  20.646  0.00  0.00    +0.000 A 
ATOM     28  C   UNL     1      -0.819  17.977  19.428  0.00  0.00    +0.000 A 
ATOM     29  C   UNL     1      -1.549  16.749  19.331  0.00  0.00    +0.000 A 
ENDBRANCH   7  24
BRANCH   8  30
ATOM     30  C   UNL     1       0.258  14.190  20.596  0.00  0.00    +0.000 A 
ATOM     31  C   UNL     1       0.967  14.542  21.769  0.00  0.00    +0.000 A 
ATOM     32  C   UNL     1       2.373  14.603  21.799  0.00  0.00    +0.000 A 
ATOM     33  C   UNL     1       3.105  14.402  20.633  0.00  0.00    +0.000 A 
ATOM     34  C   UNL     1       2.426  14.149  19.444  0.00  0.00    +0.000 A 
ATOM     35  C   UNL     1       1.024  14.035  19.429  0.00  0.00    +0.000 A 
ENDBRANCH   8  30
TORSDOF 4
ENDMDL
MODEL 3
REMARK VINA RESULT:      -6.6      0.974      1.464
REMARK  Name = 
REMARK  6 active torsions:
REMARK  status: ('A' for Active; 'I' for Inactive)
REMARK    1  A    between atoms: C_1  and  C_2
REMARK    2  A    between atoms: C_4  and  C_5
REMARK    3  A    between atoms: N_6  and  C_7
REMARK    4  A    between atoms: C_13  and  C_14
REMARK    5  A    between atoms: C_20  and  C_21
REMARK    6  A    between atoms: N_27  and  C_28
REMARK                            x       y       z     vdW  Elec       q    Type
REMARK                         _______ _______ _______ _____ _____    ______ ____
ROOT
ATOM      1  C   UNL     1      -3.932  13.674  21.515  0.00  0.00    +0.000 A 
ATOM      2  N   UNL     1      -3.888  13.722  22.899  0.00  0.00    +0.000 NA
ATOM      3  C   UNL     1      -2.913  13.037  23.509  0.00  0.00    +0.000 A 
ATOM      4  N   UNL     1      -1.926  12.360  22.912  0.00  0.00    +0.000 NA
ATOM      5  C   UNL     1      -1.744  12.753  21.634  0.00  0.00    +0.000 A 
ATOM      6  C   UNL     1      -2.540  13.657  20.912  0.00  0.00    +0.000 A 
ATOM      7  C   UNL     1      -1.283  14.574  20.490  0.00  0.00    +0.000 A 
ATOM      8  C   UNL     1      -0.178  13.669  20.345  0.00  0.00    +0.000 A 
ATOM      9  N   UNL     1      -0.672  12.450  20.817  0.00  0.00    +0.000 N 
ENDROOT
BRANCH   1  15
ATOM     10  C   UNL     1      -6.850  10.910  18.340  0.00  0.00    +0.000 C 
ATOM     11  C   UNL     1      -6.322  11.602  19.603  0.00  0.00    +0.000 A 
ATOM     12  C   UNL     1      -7.200  11.852  20.652  0.00  0.00    +0.000 A 
ATOM     13  C   UNL     1      -6.437  12.490  21.604  0.00  0.00    +0.000 A 
ATOM     14  C   UNL     1      -7.022  12.864  22.912  0.00  0.00    +0.000 C 
ATOM     15  N   UNL     1      -5.076  12.626  21.105  0.00  0.00    +0.000 N 
ATOM     16  N   UNL     1      -5.066  12.026  19.820  0.00  0.00    +0.000 NA
ENDBRANCH   1  15
BRANCH   9  17
ATOM     17  C   UNL     1      -0.080  11.172  20.621  0.00  0.00    +0.000 A 
ATOM     18  C   UNL     1       0.398  10.428  21.700  0.00  0.00    +0.000 A 
ATOM     19  C   UNL     1       1.076   9.230  21.464  0.00  0.00    +0.000 A 
ATOM     20  C   UNL     1       1.274   8.786  20.157  0.00  0.00    +0.000 A 
ATOM     21 CL   UNL     1       2.162   7.340  19.873  0.00  0.00    +0.000 Cl
ATOM     22  C   UNL     1       0.761   9.498  19.081  0.00  0.00    +0.000 A 
ATOM     23  C   UNL     1       0.048  10.664  19.318  0.00  0.00    +0.000 A 
ENDBRANCH   9  17
BRANCH   7  24
ATOM     24  C   UNL     1      -0.887  16.034  20.237  0.00  0.00    +0.000 A 
ATOM     25  C   UNL     1      -0.179  16.753  21.261  0.00  0.00    +0.000 A 
ATOM     26  C   UNL     1       0.710  17.828  21.004  0.00  0.00    +0.000 A 
ATOM     27  C   UNL     1       0.851  18.307  19.712  0.00  0.00    +0.000 A 
ATOM     28  C   UNL     1       0.085  17.715  18.707  0.00  0.00    +0.000 A 
ATOM     29  C   UNL     1      -0.758  16.586  18.958  0.00  0.00    +0.000 A 
ENDBRANCH   7  24
BRANCH   8  30
ATOM     30  C   UNL     1       1.286  13.837  19.939  0.00  0.00    +0.000 A 
ATOM     31  C   UNL     1       1.664  13.911  18.577  0.00  0.00    +0.000 A 
ATOM     32  C   UNL     1       2.956  14.311  18.184  0.00  0.00    +0.000 A 
ATOM     33  C   UNL     1       3.931  14.560  19.144  0.00  0.00    +0.000 A 
ATOM     34  C   UNL     1       3.611  14.400  20.490  0.00  0.00    +0.000 A 
ATOM     35  C   UNL     1       2.304  14.054  20.881  0.00  0.00    +0.000 A 
ENDBRANCH   8  30
TORSDOF 4
ENDMDL
MODEL 4
REMARK VINA RESULT:      -6.6      3.134      7.905
REMARK  Name = 
REMARK  6 active torsions:
REMARK  status: ('A' for Active; 'I' for Inactive)
REMARK    1  A    between atoms: C_1  and  C_2
REMARK    2  A    between atoms: C_4  and  C_5
REMARK    3  A    between atoms: N_6  and  C_7
REMARK    4  A    between atoms: C_13  and  C_14
REMARK    5  A    between atoms: C_20  and  C_21
REMARK    6  A    between atoms: N_27  and  C_28
REMARK                            x       y       z     vdW  Elec       q    Type
REMARK                         _______ _______ _______ _____ _____    ______ ____
ROOT
ATOM      1  C   UNL     1       0.303  11.896  20.203  0.00  0.00    +0.000 A 
ATOM      2  N   UNL     1       0.462  10.853  21.101  0.00  0.00    +0.000 NA
ATOM      3  C   UNL     1      -0.344  10.831  22.169  0.00  0.00    +0.000 A 
ATOM      4  N   UNL     1      -1.343  11.682  22.427  0.00  0.00    +0.000 NA
ATOM      5  C   UNL     1      -1.749  12.336  21.318  0.00  0.00    +0.000 A 
ATOM      6  C   UNL     1      -1.156  12.281  20.047  0.00  0.00    +0.000 A 
ATOM      7  C   UNL     1      -2.540  11.902  19.312  0.00  0.00    +0.000 A 
ATOM      8  C   UNL     1      -3.567  12.575  20.058  0.00  0.00    +0.000 A 
ATOM      9  N   UNL     1      -2.900  13.087  21.172  0.00  0.00    +0.000 N 
ENDROOT
BRANCH   1  15
ATOM     10  C   UNL     1       2.458  16.026  22.332  0.00  0.00    +0.000 C 
ATOM     11  C   UNL     1       2.197  14.835  21.402  0.00  0.00    +0.000 A 
ATOM     12  C   UNL     1       2.802  14.811  20.150  0.00  0.00    +0.000 A 
ATOM     13  C   UNL     1       2.357  13.645  19.567  0.00  0.00    +0.000 A 
ATOM     14  C   UNL     1       2.844  13.239  18.229  0.00  0.00    +0.000 C 
ATOM     15  N   UNL     1       1.464  12.965  20.494  0.00  0.00    +0.000 N 
ATOM     16  N   UNL     1       1.412  13.774  21.657  0.00  0.00    +0.000 NA
ENDBRANCH   1  15
BRANCH   9  17
ATOM     17  C   UNL     1      -3.394  14.076  22.066  0.00  0.00    +0.000 A 
ATOM     18  C   UNL     1      -3.157  15.433  21.840  0.00  0.00    +0.000 A 
ATOM     19  C   UNL     1      -3.556  16.370  22.795  0.00  0.00    +0.000 A 
ATOM     20  C   UNL     1      -4.183  15.949  23.968  0.00  0.00    +0.000 A 
ATOM     21 CL   UNL     1      -4.617  17.105  25.165  0.00  0.00    +0.000 Cl
ATOM     22  C   UNL     1      -4.463  14.606  24.178  0.00  0.00    +0.000 A 
ATOM     23  C   UNL     1      -4.108  13.678  23.209  0.00  0.00    +0.000 A 
ENDBRANCH   9  17
BRANCH   7  24
ATOM     24  C   UNL     1      -3.102  11.070  18.153  0.00  0.00    +0.000 A 
ATOM     25  C   UNL     1      -3.975  11.701  17.200  0.00  0.00    +0.000 A 
ATOM     26  C   UNL     1      -4.108  11.283  15.851  0.00  0.00    +0.000 A 
ATOM     27  C   UNL     1      -3.454  10.142  15.419  0.00  0.00    +0.000 A 
ATOM     28  C   UNL     1      -2.695   9.430  16.349  0.00  0.00    +0.000 A 
ATOM     29  C   UNL     1      -2.506   9.893  17.690  0.00  0.00    +0.000 A 
ENDBRANCH   7  24
BRANCH   8  30
ATOM     30  C   UNL     1      -5.085  12.687  19.911  0.00  0.00    +0.000 A 
ATOM     31  C   UNL     1      -5.944  11.666  20.384  0.00  0.00    +0.000 A 
ATOM     32  C   UNL     1      -7.335  11.854  20.487  0.00  0.00    +0.000 A 
ATOM     33  C   UNL     1      -7.916  13.035  20.034  0.00  0.00    +0.000 A 
ATOM     34  C   UNL     1      -7.102  14.017  19.475  0.00  0.00    +0.000 A 
ATOM     35  C   UNL     1      -5.706  13.848  19.424  0.00  0.00    +0.000 A 
ENDBRANCH   8  30
TORSDOF 4
ENDMDL
MODEL 5
REMARK VINA RESULT:      -6.6      3.028      6.098
REMARK  Name = 
REMARK  6 active torsions:
REMARK  status: ('A' for Active; 'I' for Inactive)
REMARK    1  A    between atoms: C_1  and  C_2
REMARK    2  A    between atoms: C_4  and  C_5
REMARK    3  A    between atoms: N_6  and  C_7
REMARK    4  A    between atoms: C_13  and  C_14
REMARK    5  A    between atoms: C_20  and  C_21
REMARK    6  A    between atoms: N_27  and  C_28
REMARK                            x       y       z     vdW  Elec       q    Type
REMARK                         _______ _______ _______ _____ _____    ______ ____
ROOT
ATOM      1  C   UNL     1       0.382  11.665  19.816  0.00  0.00    +0.000 A 
ATOM      2  N   UNL     1      -0.083  11.229  18.586  0.00  0.00    +0.000 NA
ATOM      3  C   UNL     1      -1.403  11.286  18.371  0.00  0.00    +0.000 A 
ATOM      4  N   UNL     1      -2.322  11.788  19.202  0.00  0.00    +0.000 NA
ATOM      5  C   UNL     1      -1.776  12.614  20.120  0.00  0.00    +0.000 A 
ATOM      6  C   UNL     1      -0.408  12.858  20.321  0.00  0.00    +0.000 A 
ATOM      7  C   UNL     1      -0.579  14.458  20.213  0.00  0.00    +0.000 A 
ATOM      8  C   UNL     1      -1.876  14.743  20.760  0.00  0.00    +0.000 A 
ATOM      9  N   UNL     1      -2.448  13.484  20.957  0.00  0.00    +0.000 N 
ENDROOT
BRANCH   1  15
ATOM     10  C   UNL     1       1.483   6.750  20.742  0.00  0.00    +0.000 C 
ATOM     11  C   UNL     1       1.032   8.203  20.934  0.00  0.00    +0.000 A 
ATOM     12  C   UNL     1       0.200   8.515  22.004  0.00  0.00    +0.000 A 
ATOM     13  C   UNL     1      -0.034   9.867  21.883  0.00  0.00    +0.000 A 
ATOM     14  C   UNL     1      -0.843  10.583  22.895  0.00  0.00    +0.000 C 
ATOM     15  N   UNL     1       0.671  10.366  20.712  0.00  0.00    +0.000 N 
ATOM     16  N   UNL     1       1.345   9.250  20.153  0.00  0.00    +0.000 NA
ENDBRANCH   1  15
BRANCH   9  17
ATOM     17  C   UNL     1      -3.597  13.198  21.743  0.00  0.00    +0.000 A 
ATOM     18  C   UNL     1      -4.866  13.128  21.163  0.00  0.00    +0.000 A 
ATOM     19  C   UNL     1      -5.987  12.960  21.979  0.00  0.00    +0.000 A 
ATOM     20  C   UNL     1      -5.836  12.865  23.362  0.00  0.00    +0.000 A 
ATOM     21 CL   UNL     1      -7.227  12.716  24.362  0.00  0.00    +0.000 Cl
ATOM     22  C   UNL     1      -4.575  12.886  23.941  0.00  0.00    +0.000 A 
ATOM     23  C   UNL     1      -3.457  13.009  23.127  0.00  0.00    +0.000 A 
ENDBRANCH   9  17
BRANCH   7  24
ATOM     24  C   UNL     1       0.138  15.716  19.709  0.00  0.00    +0.000 A 
ATOM     25  C   UNL     1      -0.249  16.281  18.445  0.00  0.00    +0.000 A 
ATOM     26  C   UNL     1      -0.119  17.655  18.119  0.00  0.00    +0.000 A 
ATOM     27  C   UNL     1       0.506  18.515  19.007  0.00  0.00    +0.000 A 
ATOM     28  C   UNL     1       1.008  17.979  20.194  0.00  0.00    +0.000 A 
ATOM     29  C   UNL     1       0.813  16.606  20.550  0.00  0.00    +0.000 A 
ENDBRANCH   7  24
BRANCH   8  30
ATOM     30  C   UNL     1      -2.667  16.029  21.001  0.00  0.00    +0.000 A 
ATOM     31  C   UNL     1      -2.495  16.784  22.186  0.00  0.00    +0.000 A 
ATOM     32  C   UNL     1      -3.017  18.084  22.322  0.00  0.00    +0.000 A 
ATOM     33  C   UNL     1      -3.802  18.630  21.312  0.00  0.00    +0.000 A 
ATOM     34  C   UNL     1      -4.067  17.869  20.176  0.00  0.00    +0.000 A 
ATOM     35  C   UNL     1      -3.499  16.592  20.020  0.00  0.00    +0.000 A 
ENDBRANCH   8  30
TORSDOF 4
ENDMDL
MODEL 6
REMARK VINA RESULT:      -6.5      2.985      6.779
REMARK  Name = 
REMARK  6 active torsions:
REMARK  status: ('A' for Active; 'I' for Inactive)
REMARK    1  A    between atoms: C_1  and  C_2
REMARK    2  A    between atoms: C_4  and  C_5
REMARK    3  A    between atoms: N_6  and  C_7
REMARK    4  A    between atoms: C_13  and  C_14
REMARK    5  A    between atoms: C_20  and  C_21
REMARK    6  A    between atoms: N_27  and  C_28
REMARK                            x       y       z     vdW  Elec       q    Type
REMARK                         _______ _______ _______ _____ _____    ______ ____
ROOT
ATOM      1  C   UNL     1       0.028  11.802  21.130  0.00  0.00    +0.000 A 
ATOM      2  N   UNL     1       0.731  12.888  20.633  0.00  0.00    +0.000 NA
ATOM      3  C   UNL     1       0.368  13.361  19.435  0.00  0.00    +0.000 A 
ATOM      4  N   UNL     1      -0.655  12.932  18.689  0.00  0.00    +0.000 NA
ATOM      5  C   UNL     1      -1.560  12.247  19.419  0.00  0.00    +0.000 A 
ATOM      6  C   UNL     1      -1.443  11.876  20.768  0.00  0.00    +0.000 A 
ATOM      7  C   UNL     1      -2.861  12.530  21.170  0.00  0.00    +0.000 A 
ATOM      8  C   UNL     1      -3.701  12.366  20.017  0.00  0.00    +0.000 A 
ATOM      9  N   UNL     1      -2.836  11.884  19.031  0.00  0.00    +0.000 N 
ENDROOT
BRANCH   1  15
ATOM     10  C   UNL     1       2.131   7.987  18.435  0.00  0.00    +0.000 C 
ATOM     11  C   UNL     1       1.649   8.849  19.609  0.00  0.00    +0.000 A 
ATOM     12  C   UNL     1       1.471   8.255  20.854  0.00  0.00    +0.000 A 
ATOM     13  C   UNL     1       1.021   9.271  21.667  0.00  0.00    +0.000 A 
ATOM     14  C   UNL     1       0.776   9.030  23.107  0.00  0.00    +0.000 C 
ATOM     15  N   UNL     1       0.925  10.494  20.884  0.00  0.00    +0.000 N 
ATOM     16  N   UNL     1       1.353  10.159  19.574  0.00  0.00    +0.000 NA
ENDBRANCH   1  15
BRANCH   9  17
ATOM     17  C   UNL     1      -3.218  11.285  17.799  0.00  0.00    +0.000 A 
ATOM     18  C   UNL     1      -2.530  10.181  17.293  0.00  0.00    +0.000 A 
ATOM     19  C   UNL     1      -2.855   9.688  16.028  0.00  0.00    +0.000 A 
ATOM     20  C   UNL     1      -3.857  10.301  15.277  0.00  0.00    +0.000 A 
ATOM     21 CL   UNL     1      -4.210   9.723  13.695  0.00  0.00    +0.000 Cl
ATOM     22  C   UNL     1      -4.576  11.370  15.792  0.00  0.00    +0.000 A 
ATOM     23  C   UNL     1      -4.285  11.832  17.068  0.00  0.00    +0.000 A 
ENDBRANCH   9  17
BRANCH   7  24
ATOM     24  C   UNL     1      -3.568  13.267  22.315  0.00  0.00    +0.000 A 
ATOM     25  C   UNL     1      -3.547  14.705  22.336  0.00  0.00    +0.000 A 
ATOM     26  C   UNL     1      -4.555  15.502  22.936  0.00  0.00    +0.000 A 
ATOM     27  C   UNL     1      -5.581  14.895  23.640  0.00  0.00    +0.000 A 
ATOM     28  C   UNL     1      -5.568  13.503  23.747  0.00  0.00    +0.000 A 
ATOM     29  C   UNL     1      -4.589  12.698  23.082  0.00  0.00    +0.000 A 
ENDBRANCH   7  24
BRANCH   8  30
ATOM     30  C   UNL     1      -5.156  12.714  19.706  0.00  0.00    +0.000 A 
ATOM     31  C   UNL     1      -6.187  11.755  19.853  0.00  0.00    +0.000 A 
ATOM     32  C   UNL     1      -7.547  12.113  19.815  0.00  0.00    +0.000 A 
ATOM     33  C   UNL     1      -7.916  13.426  19.537  0.00  0.00    +0.000 A 
ATOM     34  C   UNL     1      -6.922  14.369  19.292  0.00  0.00    +0.000 A 
ATOM     35  C   UNL     1      -5.562  14.020  19.385  0.00  0.00    +0.000 A 
ENDBRANCH   8  30
TORSDOF 4
ENDMDL
MODEL 7
REMARK VINA RESULT:      -6.4      3.010      6.687
REMARK  Name = 
REMARK  6 active torsions:
REMARK  status: ('A' for Active; 'I' for Inactive)
REMARK    1  A    between atoms: C_1  and  C_2
REMARK    2  A    between atoms: C_4  and  C_5
REMARK    3  A    between atoms: N_6  and  C_7
REMARK    4  A    between atoms: C_13  and  C_14
REMARK    5  A    between atoms: C_20  and  C_21
REMARK    6  A    between atoms: N_27  and  C_28
REMARK                            x       y       z     vdW  Elec       q    Type
REMARK                         _______ _______ _______ _____ _____    ______ ____
ROOT
ATOM      1  C   UNL     1       0.492   9.154  19.711  0.00  0.00    +0.000 A 
ATOM      2  N   UNL     1       0.193   8.843  21.028  0.00  0.00    +0.000 NA
ATOM      3  C   UNL     1       0.533   9.738  21.964  0.00  0.00    +0.000 A 
ATOM      4  N   UNL     1       1.076  10.941  21.752  0.00  0.00    +0.000 NA
ATOM      5  C   UNL     1       0.884  11.366  20.486  0.00  0.00    +0.000 A 
ATOM      6  C   UNL     1       0.313  10.635  19.432  0.00  0.00    +0.000 A 
ATOM      7  C   UNL     1      -0.765  11.783  19.090  0.00  0.00    +0.000 A 
ATOM      8  C   UNL     1      -0.108  13.026  19.383  0.00  0.00    +0.000 A 
ATOM      9  N   UNL     1       1.086  12.644  19.999  0.00  0.00    +0.000 N 
ENDROOT
BRANCH   1  15
ATOM     10  C   UNL     1       4.217   7.466  16.628  0.00  0.00    +0.000 C 
ATOM     11  C   UNL     1       3.274   7.613  17.828  0.00  0.00    +0.000 A 
ATOM     12  C   UNL     1       3.109   6.536  18.692  0.00  0.00    +0.000 A 
ATOM     13  C   UNL     1       2.202   6.975  19.631  0.00  0.00    +0.000 A 
ATOM     14  C   UNL     1       1.818   6.108  20.769  0.00  0.00    +0.000 C 
ATOM     15  N   UNL     1       1.817   8.342  19.313  0.00  0.00    +0.000 N 
ATOM     16  N   UNL     1       2.549   8.697  18.151  0.00  0.00    +0.000 NA
ENDBRANCH   1  15
BRANCH   9  17
ATOM     17  C   UNL     1       2.221  13.472  20.219  0.00  0.00    +0.000 A 
ATOM     18  C   UNL     1       2.442  14.076  21.458  0.00  0.00    +0.000 A 
ATOM     19  C   UNL     1       3.501  14.974  21.607  0.00  0.00    +0.000 A 
ATOM     20  C   UNL     1       4.327  15.266  20.522  0.00  0.00    +0.000 A 
ATOM     21 CL   UNL     1       5.592  16.417  20.699  0.00  0.00    +0.000 Cl
ATOM     22  C   UNL     1       4.141  14.635  19.300  0.00  0.00    +0.000 A 
ATOM     23  C   UNL     1       3.117  13.708  19.163  0.00  0.00    +0.000 A 
ENDBRANCH   9  17
BRANCH   7  24
ATOM     24  C   UNL     1      -2.208  11.979  18.609  0.00  0.00    +0.000 A 
ATOM     25  C   UNL     1      -2.590  11.464  17.322  0.00  0.00    +0.000 A 
ATOM     26  C   UNL     1      -3.910  11.065  16.989  0.00  0.00    +0.000 A 
ATOM     27  C   UNL     1      -4.936  11.263  17.898  0.00  0.00    +0.000 A 
ATOM     28  C   UNL     1      -4.626  11.876  19.113  0.00  0.00    +0.000 A 
ATOM     29  C   UNL     1      -3.282  12.214  19.473  0.00  0.00    +0.000 A 
ENDBRANCH   7  24
BRANCH   8  30
ATOM     30  C   UNL     1      -0.514  14.495  19.265  0.00  0.00    +0.000 A 
ATOM     31  C   UNL     1      -1.248  15.137  20.291  0.00  0.00    +0.000 A 
ATOM     32  C   UNL     1      -1.417  16.534  20.322  0.00  0.00    +0.000 A 
ATOM     33  C   UNL     1      -0.933  17.320  19.280  0.00  0.00    +0.000 A 
ATOM     34  C   UNL     1      -0.291  16.701  18.210  0.00  0.00    +0.000 A 
ATOM     35  C   UNL     1      -0.076  15.310  18.209  0.00  0.00    +0.000 A 
ENDBRANCH   8  30
TORSDOF 4
ENDMDL
MODEL 8
REMARK VINA RESULT:      -6.4      0.634      1.047
REMARK  Name = 
REMARK  6 active torsions:
REMARK  status: ('A' for Active; 'I' for Inactive)
REMARK    1  A    between atoms: C_1  and  C_2
REMARK    2  A    between atoms: C_4  and  C_5
REMARK    3  A    between atoms: N_6  and  C_7
REMARK    4  A    between atoms: C_13  and  C_14
REMARK    5  A    between atoms: C_20  and  C_21
REMARK    6  A    between atoms: N_27  and  C_28
REMARK                            x       y       z     vdW  Elec       q    Type
REMARK                         _______ _______ _______ _____ _____    ______ ____
ROOT
ATOM      1  C   UNL     1      -3.990  13.489  20.321  0.00  0.00    +0.000 A 
ATOM      2  N   UNL     1      -4.293  13.490  21.673  0.00  0.00    +0.000 NA
ATOM      3  C   UNL     1      -3.463  12.830  22.490  0.00  0.00    +0.000 A 
ATOM      4  N   UNL     1      -2.325  12.220  22.143  0.00  0.00    +0.000 NA
ATOM      5  C   UNL     1      -1.854  12.665  20.959  0.00  0.00    +0.000 A 
ATOM      6  C   UNL     1      -2.494  13.557  20.083  0.00  0.00    +0.000 A 
ATOM      7  C   UNL     1      -1.222  14.545  20.007  0.00  0.00    +0.000 A 
ATOM      8  C   UNL     1      -0.069  13.697  20.121  0.00  0.00    +0.000 A 
ATOM      9  N   UNL     1      -0.598  12.441  20.428  0.00  0.00    +0.000 N 
ENDROOT
BRANCH   1  15
ATOM     10  C   UNL     1      -7.465   9.733  20.086  0.00  0.00    +0.000 C 
ATOM     11  C   UNL     1      -6.353  10.715  19.698  0.00  0.00    +0.000 A 
ATOM     12  C   UNL     1      -5.532  10.412  18.617  0.00  0.00    +0.000 A 
ATOM     13  C   UNL     1      -4.642  11.461  18.547  0.00  0.00    +0.000 A 
ATOM     14  C   UNL     1      -3.634  11.522  17.465  0.00  0.00    +0.000 C 
ATOM     15  N   UNL     1      -4.940  12.405  19.615  0.00  0.00    +0.000 N 
ATOM     16  N   UNL     1      -6.055  11.873  20.311  0.00  0.00    +0.000 NA
ENDBRANCH   1  15
BRANCH   9  17
ATOM     17  C   UNL     1       0.090  11.200  20.355  0.00  0.00    +0.000 A 
ATOM     18  C   UNL     1       0.379  10.608  19.124  0.00  0.00    +0.000 A 
ATOM     19  C   UNL     1       0.952   9.335  19.090  0.00  0.00    +0.000 A 
ATOM     20  C   UNL     1       1.230   8.662  20.279  0.00  0.00    +0.000 A 
ATOM     21 CL   UNL     1       1.881   7.071  20.226  0.00  0.00    +0.000 Cl
ATOM     22  C   UNL     1       0.988   9.263  21.507  0.00  0.00    +0.000 A 
ATOM     23  C   UNL     1       0.460  10.546  21.542  0.00  0.00    +0.000 A 
ENDBRANCH   9  17
BRANCH   7  24
ATOM     24  C   UNL     1      -0.853  16.030  19.894  0.00  0.00    +0.000 A 
ATOM     25  C   UNL     1      -0.477  16.748  21.081  0.00  0.00    +0.000 A 
ATOM     26  C   UNL     1       0.388  17.872  21.086  0.00  0.00    +0.000 A 
ATOM     27  C   UNL     1       0.834  18.398  19.885  0.00  0.00    +0.000 A 
ATOM     28  C   UNL     1       0.390  17.804  18.703  0.00  0.00    +0.000 A 
ATOM     29  C   UNL     1      -0.427  16.628  18.704  0.00  0.00    +0.000 A 
ENDBRANCH   7  24
BRANCH   8  30
ATOM     30  C   UNL     1       1.439  13.947  20.095  0.00  0.00    +0.000 A 
ATOM     31  C   UNL     1       2.151  14.010  18.873  0.00  0.00    +0.000 A 
ATOM     32  C   UNL     1       3.475  14.481  18.808  0.00  0.00    +0.000 A 
ATOM     33  C   UNL     1       4.157  14.814  19.975  0.00  0.00    +0.000 A 
ATOM     34  C   UNL     1       3.510  14.667  21.200  0.00  0.00    +0.000 A 
ATOM     35  C   UNL     1       2.168  14.249  21.257  0.00  0.00    +0.000 A 
ENDBRANCH   8  30
TORSDOF 4
ENDMDL
MODEL 9
REMARK VINA RESULT:      -6.4      3.122      6.222
REMARK  Name = 
REMARK  6 active torsions:
REMARK  status: ('A' for Active; 'I' for Inactive)
REMARK    1  A    between atoms: C_1  and  C_2
REMARK    2  A    between atoms: C_4  and  C_5
REMARK    3  A    between atoms: N_6  and  C_7
REMARK    4  A    between atoms: C_13  and  C_14
REMARK    5  A    between atoms: C_20  and  C_21
REMARK    6  A    between atoms: N_27  and  C_28
REMARK                            x       y       z     vdW  Elec       q    Type
REMARK                         _______ _______ _______ _____ _____    ______ ____
ROOT
ATOM      1  C   UNL     1       0.012  12.185  19.813  0.00  0.00    +0.000 A 
ATOM      2  N   UNL     1      -0.455  11.688  18.608  0.00  0.00    +0.000 NA
ATOM      3  C   UNL     1      -1.778  11.699  18.409  0.00  0.00    +0.000 A 
ATOM      4  N   UNL     1      -2.701  12.208  19.232  0.00  0.00    +0.000 NA
ATOM      5  C   UNL     1      -2.168  13.085  20.108  0.00  0.00    +0.000 A 
ATOM      6  C   UNL     1      -0.805  13.375  20.281  0.00  0.00    +0.000 A 
ATOM      7  C   UNL     1      -1.022  14.964  20.112  0.00  0.00    +0.000 A 
ATOM      8  C   UNL     1      -2.320  15.234  20.666  0.00  0.00    +0.000 A 
ATOM      9  N   UNL     1      -2.853  13.969  20.920  0.00  0.00    +0.000 N 
ENDROOT
BRANCH   1  15
ATOM     10  C   UNL     1       1.316   7.357  20.916  0.00  0.00    +0.000 C 
ATOM     11  C   UNL     1       0.801   8.794  21.055  0.00  0.00    +0.000 A 
ATOM     12  C   UNL     1      -0.052   9.107  22.107  0.00  0.00    +0.000 A 
ATOM     13  C   UNL     1      -0.344  10.443  21.939  0.00  0.00    +0.000 A 
ATOM     14  C   UNL     1      -1.191  11.158  22.919  0.00  0.00    +0.000 C 
ATOM     15  N   UNL     1       0.349  10.931  20.755  0.00  0.00    +0.000 N 
ATOM     16  N   UNL     1       1.075   9.827  20.240  0.00  0.00    +0.000 NA
ENDBRANCH   1  15
BRANCH   9  17
ATOM     17  C   UNL     1      -3.984  13.682  21.732  0.00  0.00    +0.000 A 
ATOM     18  C   UNL     1      -5.241  13.462  21.164  0.00  0.00    +0.000 A 
ATOM     19  C   UNL     1      -6.352  13.297  21.993  0.00  0.00    +0.000 A 
ATOM     20  C   UNL     1      -6.204  13.356  23.378  0.00  0.00    +0.000 A 
ATOM     21 CL   UNL     1      -7.587  13.210  24.390  0.00  0.00    +0.000 Cl
ATOM     22  C   UNL     1      -4.951  13.527  23.951  0.00  0.00    +0.000 A 
ATOM     23  C   UNL     1      -3.839  13.646  23.128  0.00  0.00    +0.000 A 
ENDBRANCH   9  17
BRANCH   7  24
ATOM     24  C   UNL     1      -0.347  16.221  19.549  0.00  0.00    +0.000 A 
ATOM     25  C   UNL     1       1.016  16.501  19.909  0.00  0.00    +0.000 A 
ATOM     26  C   UNL     1       1.916  17.233  19.093  0.00  0.00    +0.000 A 
ATOM     27  C   UNL     1       1.461  17.814  17.921  0.00  0.00    +0.000 A 
ATOM     28  C   UNL     1       0.111  17.669  17.599  0.00  0.00    +0.000 A 
ATOM     29  C   UNL     1      -0.778  16.872  18.389  0.00  0.00    +0.000 A 
ENDBRANCH   7  24
BRANCH   8  30
ATOM     30  C   UNL     1      -3.143  16.506  20.867  0.00  0.00    +0.000 A 
ATOM     31  C   UNL     1      -4.149  16.881  19.944  0.00  0.00    +0.000 A 
ATOM     32  C   UNL     1      -5.080  17.898  20.231  0.00  0.00    +0.000 A 
ATOM     33  C   UNL     1      -4.973  18.630  21.410  0.00  0.00    +0.000 A 
ATOM     34  C   UNL     1      -3.933  18.344  22.290  0.00  0.00    +0.000 A 
ATOM     35  C   UNL     1      -3.038  17.291  22.026  0.00  0.00    +0.000 A 
ENDBRANCH   8  30
TORSDOF 4
ENDMDL
