MODEL 1
REMARK VINA RESULT:      -7.4      0.000      0.000
REMARK  Name = 
REMARK  4 active torsions:
REMARK  status: ('A' for Active; 'I' for Inactive)
REMARK    1  A    between atoms: C_1  and  C_2
REMARK    2  A    between atoms: C_2  and  C_3
REMARK    3  A    between atoms: C_5  and  S_6
REMARK    4  A    between atoms: C_11  and  C_12
REMARK                            x       y       z     vdW  Elec       q    Type
REMARK                         _______ _______ _______ _____ _____    ______ ____
ROOT
ATOM      1  C   UNL     1       3.888   2.860  19.218  0.00  0.00    +0.000 C 
ATOM      2  C   UNL     1       2.961   3.890  18.560  0.00  0.00    +0.000 C 
ATOM      3  C   UNL     1       1.849   3.180  17.773  0.00  0.00    +0.000 C 
ATOM      4  O   UNL     1       2.296   4.563  19.655  0.00  0.00    +0.000 OA
ATOM      5  C   UNL     1       2.342   5.910  19.764  0.00  0.00    +0.000 C 
ATOM      6  N   UNL     1       2.979   6.706  18.979  0.00  0.00    +0.000 NA
ATOM      7  C   UNL     1       3.698   6.180  17.913  0.00  0.00    +0.000 A 
ATOM      8  C   UNL     1       4.382   7.058  17.077  0.00  0.00    +0.000 A 
ATOM      9  C   UNL     1       5.100   6.583  15.977  0.00  0.00    +0.000 A 
ATOM     10  C   UNL     1       5.167   5.212  15.686  0.00  0.00    +0.000 A 
ATOM     11  C   UNL     1       4.483   4.341  16.552  0.00  0.00    +0.000 A 
ATOM     12  C   UNL     1       3.740   4.815  17.655  0.00  0.00    +0.000 A 
ENDROOT
BRANCH  10  13
ATOM     13  C   UNL     1       5.899   4.720  14.492  0.00  0.00    +0.000 A 
ATOM     14  C   UNL     1       7.160   5.243  14.141  0.00  0.00    +0.000 A 
ATOM     15  C   UNL     1       7.815   4.852  12.969  0.00  0.00    +0.000 A 
ATOM     16  C   UNL     1       7.227   3.911  12.136  0.00  0.00    +0.000 A 
ATOM     17  F   UNL     1       7.859   3.564  11.006  0.00  0.00    +0.000 F 
ATOM     18  C   UNL     1       6.001   3.346  12.471  0.00  0.00    +0.000 A 
ATOM     19 CL   UNL     1       5.269   2.170  11.450  0.00  0.00    +0.000 Cl
ATOM     20  C   UNL     1       5.342   3.748  13.637  0.00  0.00    +0.000 A 
ENDBRANCH  10  13
BRANCH   5  21
ATOM     21  S   UNL     1       1.452   6.597  21.098  0.00  0.00    +0.000 S 
ATOM     22  H   UNL     1       0.293   6.691  20.437  0.00  0.00    +0.000 HD
ENDBRANCH   5  21
TORSDOF 2
ENDMDL
MODEL 2
REMARK VINA RESULT:      -7.4      4.891      6.393
REMARK  Name = 
REMARK  4 active torsions:
REMARK  status: ('A' for Active; 'I' for Inactive)
REMARK    1  A    between atoms: C_1  and  C_2
REMARK    2  A    between atoms: C_2  and  C_3
REMARK    3  A    between atoms: C_5  and  S_6
REMARK    4  A    between atoms: C_11  and  C_12
REMARK                            x       y       z     vdW  Elec       q    Type
REMARK                         _______ _______ _______ _____ _____    ______ ____
ROOT
ATOM      1  C   UNL     1       1.583   9.288  22.548  0.00  0.00    +0.000 C 
ATOM      2  C   UNL     1       0.655   9.304  21.328  0.00  0.00    +0.000 C 
ATOM      3  C   UNL     1      -0.641   8.538  21.633  0.00  0.00    +0.000 C 
ATOM      4  O   UNL     1       0.260  10.687  21.163  0.00  0.00    +0.000 OA
ATOM      5  C   UNL     1       0.450  11.320  19.983  0.00  0.00    +0.000 C 
ATOM      6  N   UNL     1       1.009  10.815  18.940  0.00  0.00    +0.000 NA
ATOM      7  C   UNL     1       1.474   9.507  18.984  0.00  0.00    +0.000 A 
ATOM      8  C   UNL     1       2.078   8.980  17.845  0.00  0.00    +0.000 A 
ATOM      9  C   UNL     1       2.543   7.662  17.829  0.00  0.00    +0.000 A 
ATOM     10  C   UNL     1       2.429   6.834  18.956  0.00  0.00    +0.000 A 
ATOM     11  C   UNL     1       1.831   7.391  20.100  0.00  0.00    +0.000 A 
ATOM     12  C   UNL     1       1.343   8.715  20.119  0.00  0.00    +0.000 A 
ENDROOT
BRANCH  10  13
ATOM     13  C   UNL     1       2.888   5.423  18.916  0.00  0.00    +0.000 A 
ATOM     14  C   UNL     1       3.374   4.846  17.725  0.00  0.00    +0.000 A 
ATOM     15  C   UNL     1       3.723   3.494  17.656  0.00  0.00    +0.000 A 
ATOM     16  C   UNL     1       3.610   2.697  18.786  0.00  0.00    +0.000 A 
ATOM     17  F   UNL     1       3.928   1.398  18.695  0.00  0.00    +0.000 F 
ATOM     18  C   UNL     1       3.170   3.242  19.987  0.00  0.00    +0.000 A 
ATOM     19 CL   UNL     1       3.039   2.265  21.398  0.00  0.00    +0.000 Cl
ATOM     20  C   UNL     1       2.811   4.592  20.052  0.00  0.00    +0.000 A 
ENDBRANCH  10  13
BRANCH   5  21
ATOM     21  S   UNL     1      -0.121  12.967  19.903  0.00  0.00    +0.000 S 
ATOM     22  H   UNL     1       1.026  13.514  20.319  0.00  0.00    +0.000 HD
ENDBRANCH   5  21
TORSDOF 2
ENDMDL
MODEL 3
REMARK VINA RESULT:      -7.4      4.424      6.129
REMARK  Name = 
REMARK  4 active torsions:
REMARK  status: ('A' for Active; 'I' for Inactive)
REMARK    1  A    between atoms: C_1  and  C_2
REMARK    2  A    between atoms: C_2  and  C_3
REMARK    3  A    between atoms: C_5  and  S_6
REMARK    4  A    between atoms: C_11  and  C_12
REMARK                            x       y       z     vdW  Elec       q    Type
REMARK                         _______ _______ _______ _____ _____    ______ ____
ROOT
ATOM      1  C   UNL     1       1.765   9.248  22.688  0.00  0.00    +0.000 C 
ATOM      2  C   UNL     1       0.730   9.447  21.574  0.00  0.00    +0.000 C 
ATOM      3  C   UNL     1      -0.541   8.638  21.877  0.00  0.00    +0.000 C 
ATOM      4  O   UNL     1       0.336  10.837  21.658  0.00  0.00    +0.000 OA
ATOM      5  C   UNL     1       0.425  11.643  20.575  0.00  0.00    +0.000 C 
ATOM      6  N   UNL     1       0.882  11.304  19.421  0.00  0.00    +0.000 NA
ATOM      7  C   UNL     1       1.335  10.006  19.223  0.00  0.00    +0.000 A 
ATOM      8  C   UNL     1       1.827   9.660  17.967  0.00  0.00    +0.000 A 
ATOM      9  C   UNL     1       2.274   8.362  17.709  0.00  0.00    +0.000 A 
ATOM     10  C   UNL     1       2.254   7.371  18.703  0.00  0.00    +0.000 A 
ATOM     11  C   UNL     1       1.768   7.746  19.968  0.00  0.00    +0.000 A 
ATOM     12  C   UNL     1       1.299   9.051  20.232  0.00  0.00    +0.000 A 
ENDROOT
BRANCH  10  13
ATOM     13  C   UNL     1       2.692   5.984  18.407  0.00  0.00    +0.000 A 
ATOM     14  C   UNL     1       3.930   5.726  17.784  0.00  0.00    +0.000 A 
ATOM     15  C   UNL     1       4.311   4.431  17.419  0.00  0.00    +0.000 A 
ATOM     16  C   UNL     1       3.465   3.365  17.692  0.00  0.00    +0.000 A 
ATOM     17  F   UNL     1       3.837   2.133  17.315  0.00  0.00    +0.000 F 
ATOM     18  C   UNL     1       2.253   3.579  18.339  0.00  0.00    +0.000 A 
ATOM     19 CL   UNL     1       1.202   2.262  18.692  0.00  0.00    +0.000 Cl
ATOM     20  C   UNL     1       1.869   4.876  18.692  0.00  0.00    +0.000 A 
ENDBRANCH  10  13
BRANCH   5  21
ATOM     21  S   UNL     1      -0.133  13.281  20.798  0.00  0.00    +0.000 S 
ATOM     22  H   UNL     1      -1.392  12.942  21.096  0.00  0.00    +0.000 HD
ENDBRANCH   5  21
TORSDOF 2
ENDMDL
MODEL 4
REMARK VINA RESULT:      -7.4      4.358      6.082
REMARK  Name = 
REMARK  4 active torsions:
REMARK  status: ('A' for Active; 'I' for Inactive)
REMARK    1  A    between atoms: C_1  and  C_2
REMARK    2  A    between atoms: C_2  and  C_3
REMARK    3  A    between atoms: C_5  and  S_6
REMARK    4  A    between atoms: C_11  and  C_12
REMARK                            x       y       z     vdW  Elec       q    Type
REMARK                         _______ _______ _______ _____ _____    ______ ____
ROOT
ATOM      1  C   UNL     1       1.732   9.183  22.720  0.00  0.00    +0.000 C 
ATOM      2  C   UNL     1       0.675   9.410  21.631  0.00  0.00    +0.000 C 
ATOM      3  C   UNL     1      -0.548   8.515  21.882  0.00  0.00    +0.000 C 
ATOM      4  O   UNL     1       0.211  10.767  21.822  0.00  0.00    +0.000 OA
ATOM      5  C   UNL     1       0.247  11.655  20.802  0.00  0.00    +0.000 C 
ATOM      6  N   UNL     1       0.708  11.427  19.623  0.00  0.00    +0.000 NA
ATOM      7  C   UNL     1       1.226  10.173  19.325  0.00  0.00    +0.000 A 
ATOM      8  C   UNL     1       1.722   9.948  18.043  0.00  0.00    +0.000 A 
ATOM      9  C   UNL     1       2.232   8.698  17.685  0.00  0.00    +0.000 A 
ATOM     10  C   UNL     1       2.274   7.637  18.603  0.00  0.00    +0.000 A 
ATOM     11  C   UNL     1       1.783   7.890  19.895  0.00  0.00    +0.000 A 
ATOM     12  C   UNL     1       1.250   9.145  20.260  0.00  0.00    +0.000 A 
ENDROOT
BRANCH  10  13
ATOM     13  C   UNL     1       2.781   6.300  18.201  0.00  0.00    +0.000 A 
ATOM     14  C   UNL     1       1.904   5.215  18.002  0.00  0.00    +0.000 A 
ATOM     15  C   UNL     1       2.379   3.932  17.713  0.00  0.00    +0.000 A 
ATOM     16  C   UNL     1       3.744   3.716  17.598  0.00  0.00    +0.000 A 
ATOM     17  F   UNL     1       4.183   2.475  17.343  0.00  0.00    +0.000 F 
ATOM     18  C   UNL     1       4.637   4.772  17.752  0.00  0.00    +0.000 A 
ATOM     19 CL   UNL     1       6.332   4.516  17.600  0.00  0.00    +0.000 Cl
ATOM     20  C   UNL     1       4.161   6.052  18.052  0.00  0.00    +0.000 A 
ENDBRANCH  10  13
BRANCH   5  21
ATOM     21  S   UNL     1      -0.393  13.241  21.151  0.00  0.00    +0.000 S 
ATOM     22  H   UNL     1      -0.444  13.635  19.874  0.00  0.00    +0.000 HD
ENDBRANCH   5  21
TORSDOF 2
ENDMDL
MODEL 5
REMARK VINA RESULT:      -7.1      4.767      6.871
REMARK  Name = 
REMARK  4 active torsions:
REMARK  status: ('A' for Active; 'I' for Inactive)
REMARK    1  A    between atoms: C_1  and  C_2
REMARK    2  A    between atoms: C_2  and  C_3
REMARK    3  A    between atoms: C_5  and  S_6
REMARK    4  A    between atoms: C_11  and  C_12
REMARK                            x       y       z     vdW  Elec       q    Type
REMARK                         _______ _______ _______ _____ _____    ______ ____
ROOT
ATOM      1  C   UNL     1      -0.796  11.138  18.284  0.00  0.00    +0.000 C 
ATOM      2  C   UNL     1       0.308  11.391  19.318  0.00  0.00    +0.000 C 
ATOM      3  C   UNL     1       1.475  12.156  18.676  0.00  0.00    +0.000 C 
ATOM      4  O   UNL     1      -0.270  12.300  20.284  0.00  0.00    +0.000 OA
ATOM      5  C   UNL     1      -0.279  11.990  21.601  0.00  0.00    +0.000 C 
ATOM      6  N   UNL     1       0.161  10.897  22.118  0.00  0.00    +0.000 NA
ATOM      7  C   UNL     1       0.701   9.920  21.291  0.00  0.00    +0.000 A 
ATOM      8  C   UNL     1       1.169   8.744  21.871  0.00  0.00    +0.000 A 
ATOM      9  C   UNL     1       1.742   7.741  21.086  0.00  0.00    +0.000 A 
ATOM     10  C   UNL     1       1.853   7.877  19.694  0.00  0.00    +0.000 A 
ATOM     11  C   UNL     1       1.359   9.065  19.127  0.00  0.00    +0.000 A 
ATOM     12  C   UNL     1       0.795  10.091  19.915  0.00  0.00    +0.000 A 
ENDROOT
BRANCH  10  13
ATOM     13  C   UNL     1       2.500   6.822  18.873  0.00  0.00    +0.000 A 
ATOM     14  C   UNL     1       2.205   5.458  19.071  0.00  0.00    +0.000 A 
ATOM     15  C   UNL     1       2.876   4.454  18.366  0.00  0.00    +0.000 A 
ATOM     16  C   UNL     1       3.843   4.800  17.434  0.00  0.00    +0.000 A 
ATOM     17  F   UNL     1       4.492   3.823  16.783  0.00  0.00    +0.000 F 
ATOM     18  C   UNL     1       4.133   6.137  17.186  0.00  0.00    +0.000 A 
ATOM     19 CL   UNL     1       5.323   6.577  16.022  0.00  0.00    +0.000 Cl
ATOM     20  C   UNL     1       3.469   7.140  17.900  0.00  0.00    +0.000 A 
ENDBRANCH  10  13
BRANCH   5  21
ATOM     21  S   UNL     1      -0.957  13.197  22.663  0.00  0.00    +0.000 S 
ATOM     22  H   UNL     1      -0.892  14.193  21.772  0.00  0.00    +0.000 HD
ENDBRANCH   5  21
TORSDOF 2
ENDMDL
MODEL 6
REMARK VINA RESULT:      -7.1      4.440      6.331
REMARK  Name = 
REMARK  4 active torsions:
REMARK  status: ('A' for Active; 'I' for Inactive)
REMARK    1  A    between atoms: C_1  and  C_2
REMARK    2  A    between atoms: C_2  and  C_3
REMARK    3  A    between atoms: C_5  and  S_6
REMARK    4  A    between atoms: C_11  and  C_12
REMARK                            x       y       z     vdW  Elec       q    Type
REMARK                         _______ _______ _______ _____ _____    ______ ____
ROOT
ATOM      1  C   UNL     1      -0.886  10.693  18.068  0.00  0.00    +0.000 C 
ATOM      2  C   UNL     1       0.096  10.958  19.215  0.00  0.00    +0.000 C 
ATOM      3  C   UNL     1       1.190  11.939  18.765  0.00  0.00    +0.000 C 
ATOM      4  O   UNL     1      -0.668  11.663  20.222  0.00  0.00    +0.000 OA
ATOM      5  C   UNL     1      -0.728  11.198  21.490  0.00  0.00    +0.000 C 
ATOM      6  N   UNL     1      -0.180  10.116  21.921  0.00  0.00    +0.000 NA
ATOM      7  C   UNL     1       0.546   9.324  21.040  0.00  0.00    +0.000 A 
ATOM      8  C   UNL     1       1.129   8.156  21.526  0.00  0.00    +0.000 A 
ATOM      9  C   UNL     1       1.888   7.336  20.688  0.00  0.00    +0.000 A 
ATOM     10  C   UNL     1       2.078   7.652  19.334  0.00  0.00    +0.000 A 
ATOM     11  C   UNL     1       1.468   8.826  18.860  0.00  0.00    +0.000 A 
ATOM     12  C   UNL     1       0.714   9.669  19.705  0.00  0.00    +0.000 A 
ENDROOT
BRANCH  10  13
ATOM     13  C   UNL     1       2.920   6.796  18.461  0.00  0.00    +0.000 A 
ATOM     14  C   UNL     1       3.896   7.354  17.611  0.00  0.00    +0.000 A 
ATOM     15  C   UNL     1       4.630   6.565  16.720  0.00  0.00    +0.000 A 
ATOM     16  C   UNL     1       4.414   5.196  16.678  0.00  0.00    +0.000 A 
ATOM     17  F   UNL     1       5.111   4.457  15.802  0.00  0.00    +0.000 F 
ATOM     18  C   UNL     1       3.486   4.606  17.530  0.00  0.00    +0.000 A 
ATOM     19 CL   UNL     1       3.218   2.906  17.494  0.00  0.00    +0.000 Cl
ATOM     20  C   UNL     1       2.744   5.398  18.412  0.00  0.00    +0.000 A 
ENDBRANCH  10  13
BRANCH   5  21
ATOM     21  S   UNL     1      -1.638  12.172  22.616  0.00  0.00    +0.000 S 
ATOM     22  H   UNL     1      -1.898  11.169  23.462  0.00  0.00    +0.000 HD
ENDBRANCH   5  21
TORSDOF 2
ENDMDL
MODEL 7
REMARK VINA RESULT:      -6.9      4.804      6.428
REMARK  Name = 
REMARK  4 active torsions:
REMARK  status: ('A' for Active; 'I' for Inactive)
REMARK    1  A    between atoms: C_1  and  C_2
REMARK    2  A    between atoms: C_2  and  C_3
REMARK    3  A    between atoms: C_5  and  S_6
REMARK    4  A    between atoms: C_11  and  C_12
REMARK                            x       y       z     vdW  Elec       q    Type
REMARK                         _______ _______ _______ _____ _____    ______ ____
ROOT
ATOM      1  C   UNL     1       1.310   9.686  22.644  0.00  0.00    +0.000 C 
ATOM      2  C   UNL     1       0.360   9.507  21.453  0.00  0.00    +0.000 C 
ATOM      3  C   UNL     1      -0.798   8.571  21.831  0.00  0.00    +0.000 C 
ATOM      4  O   UNL     1      -0.242  10.806  21.242  0.00  0.00    +0.000 OA
ATOM      5  C   UNL     1      -0.178  11.405  20.032  0.00  0.00    +0.000 C 
ATOM      6  N   UNL     1       0.425  10.941  18.994  0.00  0.00    +0.000 NA
ATOM      7  C   UNL     1       1.083   9.720  19.079  0.00  0.00    +0.000 A 
ATOM      8  C   UNL     1       1.731   9.237  17.945  0.00  0.00    +0.000 A 
ATOM      9  C   UNL     1       2.387   8.004  17.970  0.00  0.00    +0.000 A 
ATOM     10  C   UNL     1       2.426   7.221  19.134  0.00  0.00    +0.000 A 
ATOM     11  C   UNL     1       1.780   7.735  20.271  0.00  0.00    +0.000 A 
ATOM     12  C   UNL     1       1.099   8.972  20.249  0.00  0.00    +0.000 A 
ENDROOT
BRANCH  10  13
ATOM     13  C   UNL     1       3.091   5.894  19.139  0.00  0.00    +0.000 A 
ATOM     14  C   UNL     1       2.495   4.779  19.763  0.00  0.00    +0.000 A 
ATOM     15  C   UNL     1       3.154   3.550  19.852  0.00  0.00    +0.000 A 
ATOM     16  C   UNL     1       4.418   3.408  19.299  0.00  0.00    +0.000 A 
ATOM     17  F   UNL     1       5.045   2.227  19.414  0.00  0.00    +0.000 F 
ATOM     18  C   UNL     1       5.021   4.475  18.644  0.00  0.00    +0.000 A 
ATOM     19 CL   UNL     1       6.585   4.306  17.944  0.00  0.00    +0.000 Cl
ATOM     20  C   UNL     1       4.366   5.708  18.565  0.00  0.00    +0.000 A 
ENDBRANCH  10  13
BRANCH   5  21
ATOM     21  S   UNL     1      -0.992  12.944  19.900  0.00  0.00    +0.000 S 
ATOM     22  H   UNL     1       0.113  13.642  19.614  0.00  0.00    +0.000 HD
ENDBRANCH   5  21
TORSDOF 2
ENDMDL
MODEL 8
REMARK VINA RESULT:      -6.9      5.653      8.127
REMARK  Name = 
REMARK  4 active torsions:
REMARK  status: ('A' for Active; 'I' for Inactive)
REMARK    1  A    between atoms: C_1  and  C_2
REMARK    2  A    between atoms: C_2  and  C_3
REMARK    3  A    between atoms: C_5  and  S_6
REMARK    4  A    between atoms: C_11  and  C_12
REMARK                            x       y       z     vdW  Elec       q    Type
REMARK                         _______ _______ _______ _____ _____    ______ ____
ROOT
ATOM      1  C   UNL     1       2.156   3.465  18.133  0.00  0.00    +0.000 C 
ATOM      2  C   UNL     1       3.477   4.224  18.308  0.00  0.00    +0.000 C 
ATOM      3  C   UNL     1       4.122   3.868  19.657  0.00  0.00    +0.000 C 
ATOM      4  O   UNL     1       4.365   3.689  17.298  0.00  0.00    +0.000 OA
ATOM      5  C   UNL     1       4.975   4.511  16.414  0.00  0.00    +0.000 C 
ATOM      6  N   UNL     1       4.816   5.785  16.340  0.00  0.00    +0.000 NA
ATOM      7  C   UNL     1       3.952   6.417  17.225  0.00  0.00    +0.000 A 
ATOM      8  C   UNL     1       3.794   7.796  17.126  0.00  0.00    +0.000 A 
ATOM      9  C   UNL     1       2.955   8.483  18.008  0.00  0.00    +0.000 A 
ATOM     10  C   UNL     1       2.239   7.808  19.008  0.00  0.00    +0.000 A 
ATOM     11  C   UNL     1       2.401   6.414  19.081  0.00  0.00    +0.000 A 
ATOM     12  C   UNL     1       3.260   5.715  18.205  0.00  0.00    +0.000 A 
ENDROOT
BRANCH  10  13
ATOM     13  C   UNL     1       1.381   8.551  19.966  0.00  0.00    +0.000 A 
ATOM     14  C   UNL     1       1.272   8.151  21.313  0.00  0.00    +0.000 A 
ATOM     15  C   UNL     1       0.398   8.788  22.199  0.00  0.00    +0.000 A 
ATOM     16  C   UNL     1      -0.370   9.855  21.756  0.00  0.00    +0.000 A 
ATOM     17  F   UNL     1      -1.219  10.440  22.613  0.00  0.00    +0.000 F 
ATOM     18  C   UNL     1      -0.260  10.301  20.443  0.00  0.00    +0.000 A 
ATOM     19 CL   UNL     1      -1.201  11.631  19.886  0.00  0.00    +0.000 Cl
ATOM     20  C   UNL     1       0.605   9.655  19.555  0.00  0.00    +0.000 A 
ENDBRANCH  10  13
BRANCH   5  21
ATOM     21  S   UNL     1       6.062   3.742  15.285  0.00  0.00    +0.000 S 
ATOM     22  H   UNL     1       5.633   4.425  14.218  0.00  0.00    +0.000 HD
ENDBRANCH   5  21
TORSDOF 2
ENDMDL
MODEL 9
REMARK VINA RESULT:      -6.9      9.036     12.210
REMARK  Name = 
REMARK  4 active torsions:
REMARK  status: ('A' for Active; 'I' for Inactive)
REMARK    1  A    between atoms: C_1  and  C_2
REMARK    2  A    between atoms: C_2  and  C_3
REMARK    3  A    between atoms: C_5  and  S_6
REMARK    4  A    between atoms: C_11  and  C_12
REMARK                            x       y       z     vdW  Elec       q    Type
REMARK                         _______ _______ _______ _____ _____    ______ ____
ROOT
ATOM      1  C   UNL     1       1.506  11.474  18.591  0.00  0.00    +0.000 C 
ATOM      2  C   UNL     1       0.697  10.220  18.944  0.00  0.00    +0.000 C 
ATOM      3  C   UNL     1      -0.579  10.152  18.091  0.00  0.00    +0.000 C 
ATOM      4  O   UNL     1       1.512   9.103  18.516  0.00  0.00    +0.000 OA
ATOM      5  C   UNL     1       1.840   8.119  19.384  0.00  0.00    +0.000 C 
ATOM      6  N   UNL     1       1.523   8.080  20.630  0.00  0.00    +0.000 NA
ATOM      7  C   UNL     1       0.779   9.118  21.177  0.00  0.00    +0.000 A 
ATOM      8  C   UNL     1       0.449   9.057  22.528  0.00  0.00    +0.000 A 
ATOM      9  C   UNL     1      -0.318  10.063  23.121  0.00  0.00    +0.000 A 
ATOM     10  C   UNL     1      -0.767  11.169  22.383  0.00  0.00    +0.000 A 
ATOM     11  C   UNL     1      -0.409  11.219  21.025  0.00  0.00    +0.000 A 
ATOM     12  C   UNL     1       0.350  10.198  20.414  0.00  0.00    +0.000 A 
ENDROOT
BRANCH  10  13
ATOM     13  C   UNL     1      -1.615  12.213  23.013  0.00  0.00    +0.000 A 
ATOM     14  C   UNL     1      -1.122  13.513  23.247  0.00  0.00    +0.000 A 
ATOM     15  C   UNL     1      -1.881  14.474  23.920  0.00  0.00    +0.000 A 
ATOM     16  C   UNL     1      -3.160  14.157  24.356  0.00  0.00    +0.000 A 
ATOM     17  F   UNL     1      -3.866  15.084  25.020  0.00  0.00    +0.000 F 
ATOM     18  C   UNL     1      -3.692  12.896  24.109  0.00  0.00    +0.000 A 
ATOM     19 CL   UNL     1      -5.282  12.496  24.635  0.00  0.00    +0.000 Cl
ATOM     20  C   UNL     1      -2.927  11.932  23.445  0.00  0.00    +0.000 A 
ENDBRANCH  10  13
BRANCH   5  21
ATOM     21  S   UNL     1       2.780   6.805  18.725  0.00  0.00    +0.000 S 
ATOM     22  H   UNL     1       2.632   7.177  17.449  0.00  0.00    +0.000 HD
ENDBRANCH   5  21
TORSDOF 2
ENDMDL
