MODEL 1
REMARK VINA RESULT:      -8.3      0.000      0.000
REMARK  Name = 
REMARK  18 active torsions:
REMARK  status: ('A' for Active; 'I' for Inactive)
REMARK    1  A    between atoms: C_1  and  C_2
REMARK    2  A    between atoms: C_2  and  C_3
REMARK    3  A    between atoms: C_3  and  C_4
REMARK    4  A    between atoms: C_4  and  C_5
REMARK    5  A    between atoms: C_5  and  C_6
REMARK    6  A    between atoms: C_6  and  C_7
REMARK    7  A    between atoms: C_7  and  N_8
REMARK    8  A    between atoms: N_8  and  C_9
REMARK    9  A    between atoms: N_8  and  C_16
REMARK   10  A    between atoms: C_9  and  C_10
REMARK   11  A    between atoms: C_10  and  C_11
REMARK   12  A    between atoms: C_11  and  C_12
REMARK   13  A    between atoms: C_12  and  C_13
REMARK   14  A    between atoms: C_13  and  C_14
REMARK   15  A    between atoms: C_14  and  C_15
REMARK   16  A    between atoms: C_16  and  C_17
REMARK   17  A    between atoms: C_17  and  O_18
REMARK   18  A    between atoms: C_17  and  C_19
REMARK                            x       y       z     vdW  Elec       q    Type
REMARK                         _______ _______ _______ _____ _____    ______ ____
ROOT
ATOM      1  C   UNL     1       4.060   5.756  18.615  0.00  0.00    +0.000 C 
ENDROOT
BRANCH   1   2
ATOM      2  C   UNL     1       3.128   6.937  18.794  0.00  0.00    +0.000 A 
ATOM      3  C   UNL     1       2.849   7.806  17.729  0.00  0.00    +0.000 A 
ATOM      4  C   UNL     1       1.967   8.872  17.893  0.00  0.00    +0.000 A 
ATOM      5  C   UNL     1       1.359   9.107  19.131  0.00  0.00    +0.000 A 
ATOM      6  C   UNL     1       0.493  10.194  19.314  0.00  0.00    +0.000 A 
ATOM      7  C   UNL     1      -0.097  10.446  20.556  0.00  0.00    +0.000 A 
ATOM      8  C   UNL     1      -0.945  11.544  20.745  0.00  0.00    +0.000 A 
ATOM      9  C   UNL     1      -1.525  11.789  21.989  0.00  0.00    +0.000 A 
ATOM     10  C   UNL     1      -1.271  10.933  23.057  0.00  0.00    +0.000 A 
ATOM     11  C   UNL     1      -0.432   9.833  22.884  0.00  0.00    +0.000 A 
ATOM     12  C   UNL     1       0.166   9.576  21.642  0.00  0.00    +0.000 A 
ATOM     13  C   UNL     1       1.024   8.481  21.458  0.00  0.00    +0.000 A 
ATOM     14  C   UNL     1       1.632   8.241  20.214  0.00  0.00    +0.000 A 
ATOM     15  C   UNL     1       2.510   7.164  20.031  0.00  0.00    +0.000 A 
ENDBRANCH   1   2
BRANCH   1  16
ATOM     16  O   UNL     1       4.747   5.563  19.850  0.00  0.00    +0.000 OA
ATOM     17  H   UNL     1       5.488   6.190  19.866  0.00  0.00    +0.000 HD
ENDBRANCH   1  16
BRANCH   1  18
ATOM     18  C   UNL     1       5.028   6.014  17.427  0.00  0.00    +0.000 C 
BRANCH  18  19
ATOM     19  N   UNL     1       5.163   4.945  16.402  0.00  0.00    +0.000 NA
BRANCH  19  20
ATOM     20  C   UNL     1       4.815   3.640  17.017  0.00  0.00    +0.000 C 
BRANCH  20  21
ATOM     21  C   UNL     1       3.312   3.293  17.006  0.00  0.00    +0.000 C 
BRANCH  21  22
ATOM     22  C   UNL     1       2.957   1.984  17.724  0.00  0.00    +0.000 C 
BRANCH  22  23
ATOM     23  C   UNL     1       2.264   2.179  19.077  0.00  0.00    +0.000 C 
BRANCH  23  24
ATOM     24  C   UNL     1       1.274   3.341  19.056  0.00  0.00    +0.000 C 
BRANCH  24  25
ATOM     25  C   UNL     1       0.884   3.797  20.456  0.00  0.00    +0.000 C 
ATOM     26  C   UNL     1       2.099   3.776  21.369  0.00  0.00    +0.000 C 
ENDBRANCH  24  25
ENDBRANCH  23  24
ENDBRANCH  22  23
ENDBRANCH  21  22
ENDBRANCH  20  21
ENDBRANCH  19  20
BRANCH  19  27
ATOM     27  C   UNL     1       6.551   4.924  15.884  0.00  0.00    +0.000 C 
BRANCH  27  28
ATOM     28  C   UNL     1       6.719   4.857  14.356  0.00  0.00    +0.000 C 
BRANCH  28  29
ATOM     29  C   UNL     1       6.155   3.598  13.691  0.00  0.00    +0.000 C 
BRANCH  29  30
ATOM     30  C   UNL     1       6.274   3.632  12.168  0.00  0.00    +0.000 C 
BRANCH  30  31
ATOM     31  C   UNL     1       5.268   2.695  11.501  0.00  0.00    +0.000 C 
BRANCH  31  33
ATOM     32  C   UNL     1       3.405   3.727  10.161  0.00  0.00    +0.000 C 
ATOM     33  C   UNL     1       3.864   3.295  11.543  0.00  0.00    +0.000 C 
ENDBRANCH  31  33
ENDBRANCH  30  31
ENDBRANCH  29  30
ENDBRANCH  28  29
ENDBRANCH  27  28
ENDBRANCH  19  27
ENDBRANCH  18  19
ENDBRANCH   1  18
TORSDOF 16
ENDMDL
MODEL 2
REMARK VINA RESULT:      -7.8      1.937      3.174
REMARK  Name = 
REMARK  18 active torsions:
REMARK  status: ('A' for Active; 'I' for Inactive)
REMARK    1  A    between atoms: C_1  and  C_2
REMARK    2  A    between atoms: C_2  and  C_3
REMARK    3  A    between atoms: C_3  and  C_4
REMARK    4  A    between atoms: C_4  and  C_5
REMARK    5  A    between atoms: C_5  and  C_6
REMARK    6  A    between atoms: C_6  and  C_7
REMARK    7  A    between atoms: C_7  and  N_8
REMARK    8  A    between atoms: N_8  and  C_9
REMARK    9  A    between atoms: N_8  and  C_16
REMARK   10  A    between atoms: C_9  and  C_10
REMARK   11  A    between atoms: C_10  and  C_11
REMARK   12  A    between atoms: C_11  and  C_12
REMARK   13  A    between atoms: C_12  and  C_13
REMARK   14  A    between atoms: C_13  and  C_14
REMARK   15  A    between atoms: C_14  and  C_15
REMARK   16  A    between atoms: C_16  and  C_17
REMARK   17  A    between atoms: C_17  and  O_18
REMARK   18  A    between atoms: C_17  and  C_19
REMARK                            x       y       z     vdW  Elec       q    Type
REMARK                         _______ _______ _______ _____ _____    ______ ____
ROOT
ATOM      1  C   UNL     1       3.179   5.657  19.095  0.00  0.00    +0.000 C 
ENDROOT
BRANCH   1   2
ATOM      2  C   UNL     1       2.438   6.973  19.214  0.00  0.00    +0.000 A 
ATOM      3  C   UNL     1       2.381   7.871  18.138  0.00  0.00    +0.000 A 
ATOM      4  C   UNL     1       1.671   9.065  18.245  0.00  0.00    +0.000 A 
ATOM      5  C   UNL     1       1.019   9.400  19.437  0.00  0.00    +0.000 A 
ATOM      6  C   UNL     1       0.327  10.612  19.564  0.00  0.00    +0.000 A 
ATOM      7  C   UNL     1      -0.305  10.960  20.762  0.00  0.00    +0.000 A 
ATOM      8  C   UNL     1      -0.978  12.181  20.896  0.00  0.00    +0.000 A 
ATOM      9  C   UNL     1      -1.602  12.521  22.096  0.00  0.00    +0.000 A 
ATOM     10  C   UNL     1      -1.567  11.640  23.173  0.00  0.00    +0.000 A 
ATOM     11  C   UNL     1      -0.905  10.418  23.054  0.00  0.00    +0.000 A 
ATOM     12  C   UNL     1      -0.266  10.064  21.857  0.00  0.00    +0.000 A 
ATOM     13  C   UNL     1       0.417   8.845  21.728  0.00  0.00    +0.000 A 
ATOM     14  C   UNL     1       1.069   8.506  20.530  0.00  0.00    +0.000 A 
ATOM     15  C   UNL     1       1.774   7.300  20.404  0.00  0.00    +0.000 A 
ENDBRANCH   1   2
BRANCH   1  16
ATOM     16  O   UNL     1       4.446   5.821  19.731  0.00  0.00    +0.000 OA
ATOM     17  H   UNL     1       4.960   5.017  19.555  0.00  0.00    +0.000 HD
ENDBRANCH   1  16
BRANCH   1  18
ATOM     18  C   UNL     1       3.309   5.250  17.601  0.00  0.00    +0.000 C 
BRANCH  18  19
ATOM     19  N   UNL     1       3.944   3.940  17.295  0.00  0.00    +0.000 NA
BRANCH  19  20
ATOM     20  C   UNL     1       3.851   3.068  18.492  0.00  0.00    +0.000 C 
BRANCH  20  21
ATOM     21  C   UNL     1       3.179   1.700  18.253  0.00  0.00    +0.000 C 
BRANCH  21  22
ATOM     22  C   UNL     1       1.802   1.544  18.912  0.00  0.00    +0.000 C 
BRANCH  22  23
ATOM     23  C   UNL     1       0.870   2.743  18.710  0.00  0.00    +0.000 C 
BRANCH  23  24
ATOM     24  C   UNL     1       0.628   3.510  20.008  0.00  0.00    +0.000 C 
BRANCH  24  25
ATOM     25  C   UNL     1       1.202   2.792  21.222  0.00  0.00    +0.000 C 
ATOM     26  C   UNL     1       2.299   3.632  21.856  0.00  0.00    +0.000 C 
ENDBRANCH  24  25
ENDBRANCH  23  24
ENDBRANCH  22  23
ENDBRANCH  21  22
ENDBRANCH  20  21
ENDBRANCH  19  20
BRANCH  19  27
ATOM     27  C   UNL     1       5.360   4.150  16.911  0.00  0.00    +0.000 C 
BRANCH  27  28
ATOM     28  C   UNL     1       5.616   4.874  15.578  0.00  0.00    +0.000 C 
BRANCH  28  29
ATOM     29  C   UNL     1       5.508   6.401  15.632  0.00  0.00    +0.000 C 
BRANCH  29  30
ATOM     30  C   UNL     1       6.004   6.980  16.957  0.00  0.00    +0.000 C 
BRANCH  30  31
ATOM     31  C   UNL     1       7.530   7.009  17.027  0.00  0.00    +0.000 C 
BRANCH  31  33
ATOM     32  C   UNL     1       7.915   5.744  19.167  0.00  0.00    +0.000 C 
ATOM     33  C   UNL     1       8.000   7.094  18.478  0.00  0.00    +0.000 C 
ENDBRANCH  31  33
ENDBRANCH  30  31
ENDBRANCH  29  30
ENDBRANCH  28  29
ENDBRANCH  27  28
ENDBRANCH  19  27
ENDBRANCH  18  19
ENDBRANCH   1  18
TORSDOF 16
ENDMDL
MODEL 3
REMARK VINA RESULT:      -7.7      2.873      4.748
REMARK  Name = 
REMARK  18 active torsions:
REMARK  status: ('A' for Active; 'I' for Inactive)
REMARK    1  A    between atoms: C_1  and  C_2
REMARK    2  A    between atoms: C_2  and  C_3
REMARK    3  A    between atoms: C_3  and  C_4
REMARK    4  A    between atoms: C_4  and  C_5
REMARK    5  A    between atoms: C_5  and  C_6
REMARK    6  A    between atoms: C_6  and  C_7
REMARK    7  A    between atoms: C_7  and  N_8
REMARK    8  A    between atoms: N_8  and  C_9
REMARK    9  A    between atoms: N_8  and  C_16
REMARK   10  A    between atoms: C_9  and  C_10
REMARK   11  A    between atoms: C_10  and  C_11
REMARK   12  A    between atoms: C_11  and  C_12
REMARK   13  A    between atoms: C_12  and  C_13
REMARK   14  A    between atoms: C_13  and  C_14
REMARK   15  A    between atoms: C_14  and  C_15
REMARK   16  A    between atoms: C_16  and  C_17
REMARK   17  A    between atoms: C_17  and  O_18
REMARK   18  A    between atoms: C_17  and  C_19
REMARK                            x       y       z     vdW  Elec       q    Type
REMARK                         _______ _______ _______ _____ _____    ______ ____
ROOT
ATOM      1  C   UNL     1       3.876   5.547  17.948  0.00  0.00    +0.000 C 
ENDROOT
BRANCH   1   2
ATOM      2  C   UNL     1       3.077   6.776  18.326  0.00  0.00    +0.000 A 
ATOM      3  C   UNL     1       2.919   7.842  17.427  0.00  0.00    +0.000 A 
ATOM      4  C   UNL     1       2.156   8.956  17.771  0.00  0.00    +0.000 A 
ATOM      5  C   UNL     1       1.551   9.041  19.030  0.00  0.00    +0.000 A 
ATOM      6  C   UNL     1       0.806  10.171  19.396  0.00  0.00    +0.000 A 
ATOM      7  C   UNL     1       0.220  10.270  20.662  0.00  0.00    +0.000 A 
ATOM      8  C   UNL     1      -0.506  11.407  21.036  0.00  0.00    +0.000 A 
ATOM      9  C   UNL     1      -1.082  11.499  22.302  0.00  0.00    +0.000 A 
ATOM     10  C   UNL     1      -0.947  10.449  23.206  0.00  0.00    +0.000 A 
ATOM     11  C   UNL     1      -0.231   9.307  22.847  0.00  0.00    +0.000 A 
ATOM     12  C   UNL     1       0.362   9.202  21.581  0.00  0.00    +0.000 A 
ATOM     13  C   UNL     1       1.097   8.066  21.212  0.00  0.00    +0.000 A 
ATOM     14  C   UNL     1       1.703   7.977  19.947  0.00  0.00    +0.000 A 
ATOM     15  C   UNL     1       2.460   6.855  19.582  0.00  0.00    +0.000 A 
ENDBRANCH   1   2
BRANCH   1  16
ATOM     16  O   UNL     1       4.055   4.772  19.132  0.00  0.00    +0.000 OA
ATOM     17  H   UNL     1       3.551   5.209  19.838  0.00  0.00    +0.000 HD
ENDBRANCH   1  16
BRANCH   1  18
ATOM     18  C   UNL     1       5.224   5.965  17.298  0.00  0.00    +0.000 C 
BRANCH  18  19
ATOM     19  N   UNL     1       6.417   5.120  17.576  0.00  0.00    +0.000 NA
BRANCH  19  20
ATOM     20  C   UNL     1       7.443   5.945  18.259  0.00  0.00    +0.000 C 
BRANCH  20  21
ATOM     21  C   UNL     1       7.659   7.350  17.658  0.00  0.00    +0.000 C 
BRANCH  21  22
ATOM     22  C   UNL     1       8.442   8.313  18.559  0.00  0.00    +0.000 C 
BRANCH  22  23
ATOM     23  C   UNL     1       8.537   9.743  18.015  0.00  0.00    +0.000 C 
BRANCH  23  24
ATOM     24  C   UNL     1       9.456  10.622  18.861  0.00  0.00    +0.000 C 
BRANCH  24  25
ATOM     25  C   UNL     1      10.006  11.808  18.080  0.00  0.00    +0.000 C 
ATOM     26  C   UNL     1      11.525  11.800  18.118  0.00  0.00    +0.000 C 
ENDBRANCH  24  25
ENDBRANCH  23  24
ENDBRANCH  22  23
ENDBRANCH  21  22
ENDBRANCH  20  21
ENDBRANCH  19  20
BRANCH  19  27
ATOM     27  C   UNL     1       6.947   4.573  16.305  0.00  0.00    +0.000 C 
BRANCH  27  28
ATOM     28  C   UNL     1       5.959   3.796  15.419  0.00  0.00    +0.000 C 
BRANCH  28  29
ATOM     29  C   UNL     1       5.616   4.461  14.084  0.00  0.00    +0.000 C 
BRANCH  29  30
ATOM     30  C   UNL     1       5.800   3.522  12.892  0.00  0.00    +0.000 C 
BRANCH  30  31
ATOM     31  C   UNL     1       7.084   3.827  12.124  0.00  0.00    +0.000 C 
BRANCH  31  33
ATOM     32  C   UNL     1       7.934   6.143  11.634  0.00  0.00    +0.000 C 
ATOM     33  C   UNL     1       7.770   5.067  12.693  0.00  0.00    +0.000 C 
ENDBRANCH  31  33
ENDBRANCH  30  31
ENDBRANCH  29  30
ENDBRANCH  28  29
ENDBRANCH  27  28
ENDBRANCH  19  27
ENDBRANCH  18  19
ENDBRANCH   1  18
TORSDOF 16
ENDMDL
MODEL 4
REMARK VINA RESULT:      -7.6      2.364      4.463
REMARK  Name = 
REMARK  18 active torsions:
REMARK  status: ('A' for Active; 'I' for Inactive)
REMARK    1  A    between atoms: C_1  and  C_2
REMARK    2  A    between atoms: C_2  and  C_3
REMARK    3  A    between atoms: C_3  and  C_4
REMARK    4  A    between atoms: C_4  and  C_5
REMARK    5  A    between atoms: C_5  and  C_6
REMARK    6  A    between atoms: C_6  and  C_7
REMARK    7  A    between atoms: C_7  and  N_8
REMARK    8  A    between atoms: N_8  and  C_9
REMARK    9  A    between atoms: N_8  and  C_16
REMARK   10  A    between atoms: C_9  and  C_10
REMARK   11  A    between atoms: C_10  and  C_11
REMARK   12  A    between atoms: C_11  and  C_12
REMARK   13  A    between atoms: C_12  and  C_13
REMARK   14  A    between atoms: C_13  and  C_14
REMARK   15  A    between atoms: C_14  and  C_15
REMARK   16  A    between atoms: C_16  and  C_17
REMARK   17  A    between atoms: C_17  and  O_18
REMARK   18  A    between atoms: C_17  and  C_19
REMARK                            x       y       z     vdW  Elec       q    Type
REMARK                         _______ _______ _______ _____ _____    ______ ____
ROOT
ATOM      1  C   UNL     1       3.303   3.811  17.626  0.00  0.00    +0.000 C 
ENDROOT
BRANCH   1   2
ATOM      2  C   UNL     1       2.750   4.906  18.513  0.00  0.00    +0.000 A 
ATOM      3  C   UNL     1       2.408   4.651  19.850  0.00  0.00    +0.000 A 
ATOM      4  C   UNL     1       1.929   5.671  20.669  0.00  0.00    +0.000 A 
ATOM      5  C   UNL     1       1.760   6.966  20.165  0.00  0.00    +0.000 A 
ATOM      6  C   UNL     1       1.251   7.992  20.974  0.00  0.00    +0.000 A 
ATOM      7  C   UNL     1       1.057   9.281  20.467  0.00  0.00    +0.000 A 
ATOM      8  C   UNL     1       0.529  10.301  21.268  0.00  0.00    +0.000 A 
ATOM      9  C   UNL     1       0.336  11.582  20.752  0.00  0.00    +0.000 A 
ATOM     10  C   UNL     1       0.678  11.860  19.432  0.00  0.00    +0.000 A 
ATOM     11  C   UNL     1       1.210  10.856  18.623  0.00  0.00    +0.000 A 
ATOM     12  C   UNL     1       1.403   9.561  19.123  0.00  0.00    +0.000 A 
ATOM     13  C   UNL     1       1.923   8.538  18.316  0.00  0.00    +0.000 A 
ATOM     14  C   UNL     1       2.098   7.238  18.821  0.00  0.00    +0.000 A 
ATOM     15  C   UNL     1       2.593   6.205  18.012  0.00  0.00    +0.000 A 
ENDBRANCH   1   2
BRANCH   1  16
ATOM     16  O   UNL     1       3.763   2.763  18.478  0.00  0.00    +0.000 OA
ATOM     17  H   UNL     1       3.075   2.077  18.485  0.00  0.00    +0.000 HD
ENDBRANCH   1  16
BRANCH   1  18
ATOM     18  C   UNL     1       4.426   4.377  16.714  0.00  0.00    +0.000 C 
BRANCH  18  19
ATOM     19  N   UNL     1       5.824   4.315  17.221  0.00  0.00    +0.000 NA
BRANCH  19  20
ATOM     20  C   UNL     1       6.202   5.648  17.753  0.00  0.00    +0.000 C 
BRANCH  20  21
ATOM     21  C   UNL     1       7.530   5.685  18.537  0.00  0.00    +0.000 C 
BRANCH  21  22
ATOM     22  C   UNL     1       8.196   7.066  18.595  0.00  0.00    +0.000 C 
BRANCH  22  23
ATOM     23  C   UNL     1       7.587   8.097  17.639  0.00  0.00    +0.000 C 
BRANCH  23  24
ATOM     24  C   UNL     1       8.256   9.464  17.762  0.00  0.00    +0.000 C 
BRANCH  24  25
ATOM     25  C   UNL     1       9.012   9.623  19.075  0.00  0.00    +0.000 C 
ATOM     26  C   UNL     1       9.742  10.957  19.099  0.00  0.00    +0.000 C 
ENDBRANCH  24  25
ENDBRANCH  23  24
ENDBRANCH  22  23
ENDBRANCH  21  22
ENDBRANCH  20  21
ENDBRANCH  19  20
BRANCH  19  27
ATOM     27  C   UNL     1       6.734   3.913  16.124  0.00  0.00    +0.000 C 
BRANCH  27  28
ATOM     28  C   UNL     1       7.257   5.036  15.210  0.00  0.00    +0.000 C 
BRANCH  28  29
ATOM     29  C   UNL     1       6.814   4.947  13.747  0.00  0.00    +0.000 C 
BRANCH  29  30
ATOM     30  C   UNL     1       5.995   3.690  13.454  0.00  0.00    +0.000 C 
BRANCH  30  31
ATOM     31  C   UNL     1       5.824   3.464  11.953  0.00  0.00    +0.000 C 
BRANCH  31  33
ATOM     32  C   UNL     1       6.904   1.397  11.009  0.00  0.00    +0.000 C 
ATOM     33  C   UNL     1       5.654   1.976  11.650  0.00  0.00    +0.000 C 
ENDBRANCH  31  33
ENDBRANCH  30  31
ENDBRANCH  29  30
ENDBRANCH  28  29
ENDBRANCH  27  28
ENDBRANCH  19  27
ENDBRANCH  18  19
ENDBRANCH   1  18
TORSDOF 16
ENDMDL
MODEL 5
REMARK VINA RESULT:      -7.6      1.349      4.967
REMARK  Name = 
REMARK  18 active torsions:
REMARK  status: ('A' for Active; 'I' for Inactive)
REMARK    1  A    between atoms: C_1  and  C_2
REMARK    2  A    between atoms: C_2  and  C_3
REMARK    3  A    between atoms: C_3  and  C_4
REMARK    4  A    between atoms: C_4  and  C_5
REMARK    5  A    between atoms: C_5  and  C_6
REMARK    6  A    between atoms: C_6  and  C_7
REMARK    7  A    between atoms: C_7  and  N_8
REMARK    8  A    between atoms: N_8  and  C_9
REMARK    9  A    between atoms: N_8  and  C_16
REMARK   10  A    between atoms: C_9  and  C_10
REMARK   11  A    between atoms: C_10  and  C_11
REMARK   12  A    between atoms: C_11  and  C_12
REMARK   13  A    between atoms: C_12  and  C_13
REMARK   14  A    between atoms: C_13  and  C_14
REMARK   15  A    between atoms: C_14  and  C_15
REMARK   16  A    between atoms: C_16  and  C_17
REMARK   17  A    between atoms: C_17  and  O_18
REMARK   18  A    between atoms: C_17  and  C_19
REMARK                            x       y       z     vdW  Elec       q    Type
REMARK                         _______ _______ _______ _____ _____    ______ ____
ROOT
ATOM      1  C   UNL     1       2.806   6.141  19.222  0.00  0.00    +0.000 C 
ENDROOT
BRANCH   1   2
ATOM      2  C   UNL     1       2.126   7.491  19.318  0.00  0.00    +0.000 A 
ATOM      3  C   UNL     1       2.157   8.395  18.246  0.00  0.00    +0.000 A 
ATOM      4  C   UNL     1       1.502   9.622  18.331  0.00  0.00    +0.000 A 
ATOM      5  C   UNL     1       0.818   9.983  19.497  0.00  0.00    +0.000 A 
ATOM      6  C   UNL     1       0.181  11.228  19.603  0.00  0.00    +0.000 A 
ATOM      7  C   UNL     1      -0.482  11.601  20.775  0.00  0.00    +0.000 A 
ATOM      8  C   UNL     1      -1.100  12.853  20.889  0.00  0.00    +0.000 A 
ATOM      9  C   UNL     1      -1.755  13.218  22.064  0.00  0.00    +0.000 A 
ATOM     10  C   UNL     1      -1.808  12.332  23.137  0.00  0.00    +0.000 A 
ATOM     11  C   UNL     1      -1.202  11.080  23.037  0.00  0.00    +0.000 A 
ATOM     12  C   UNL     1      -0.532  10.700  21.866  0.00  0.00    +0.000 A 
ATOM     13  C   UNL     1       0.096   9.450  21.758  0.00  0.00    +0.000 A 
ATOM     14  C   UNL     1       0.779   9.083  20.586  0.00  0.00    +0.000 A 
ATOM     15  C   UNL     1       1.430   7.846  20.482  0.00  0.00    +0.000 A 
ENDBRANCH   1   2
BRANCH   1  16
ATOM     16  O   UNL     1       3.232   5.782  20.535  0.00  0.00    +0.000 OA
ATOM     17  H   UNL     1       4.064   5.291  20.442  0.00  0.00    +0.000 HD
ENDBRANCH   1  16
BRANCH   1  18
ATOM     18  C   UNL     1       3.983   6.207  18.210  0.00  0.00    +0.000 C 
BRANCH  18  19
ATOM     19  N   UNL     1       5.158   5.328  18.457  0.00  0.00    +0.000 NA
BRANCH  19  20
ATOM     20  C   UNL     1       6.284   5.776  17.602  0.00  0.00    +0.000 C 
BRANCH  20  21
ATOM     21  C   UNL     1       7.197   4.648  17.079  0.00  0.00    +0.000 C 
BRANCH  21  22
ATOM     22  C   UNL     1       7.123   4.419  15.564  0.00  0.00    +0.000 C 
BRANCH  22  23
ATOM     23  C   UNL     1       6.010   5.208  14.865  0.00  0.00    +0.000 C 
BRANCH  23  24
ATOM     24  C   UNL     1       5.354   4.406  13.743  0.00  0.00    +0.000 C 
BRANCH  24  25
ATOM     25  C   UNL     1       6.311   3.408  13.105  0.00  0.00    +0.000 C 
ATOM     26  C   UNL     1       7.019   4.047  11.921  0.00  0.00    +0.000 C 
ENDBRANCH  24  25
ENDBRANCH  23  24
ENDBRANCH  22  23
ENDBRANCH  21  22
ENDBRANCH  20  21
ENDBRANCH  19  20
BRANCH  19  27
ATOM     27  C   UNL     1       4.800   3.922  18.156  0.00  0.00    +0.000 C 
BRANCH  27  28
ATOM     28  C   UNL     1       3.707   3.697  17.098  0.00  0.00    +0.000 C 
BRANCH  28  29
ATOM     29  C   UNL     1       2.612   2.702  17.491  0.00  0.00    +0.000 C 
BRANCH  29  30
ATOM     30  C   UNL     1       1.411   3.378  18.153  0.00  0.00    +0.000 C 
BRANCH  30  31
ATOM     31  C   UNL     1       0.839   2.530  19.287  0.00  0.00    +0.000 C 
BRANCH  31  33
ATOM     32  C   UNL     1       1.854   2.798  21.574  0.00  0.00    +0.000 C 
ATOM     33  C   UNL     1       0.819   3.322  20.593  0.00  0.00    +0.000 C 
ENDBRANCH  31  33
ENDBRANCH  30  31
ENDBRANCH  29  30
ENDBRANCH  28  29
ENDBRANCH  27  28
ENDBRANCH  19  27
ENDBRANCH  18  19
ENDBRANCH   1  18
TORSDOF 16
ENDMDL
MODEL 6
REMARK VINA RESULT:      -7.5      0.928      1.168
REMARK  Name = 
REMARK  18 active torsions:
REMARK  status: ('A' for Active; 'I' for Inactive)
REMARK    1  A    between atoms: C_1  and  C_2
REMARK    2  A    between atoms: C_2  and  C_3
REMARK    3  A    between atoms: C_3  and  C_4
REMARK    4  A    between atoms: C_4  and  C_5
REMARK    5  A    between atoms: C_5  and  C_6
REMARK    6  A    between atoms: C_6  and  C_7
REMARK    7  A    between atoms: C_7  and  N_8
REMARK    8  A    between atoms: N_8  and  C_9
REMARK    9  A    between atoms: N_8  and  C_16
REMARK   10  A    between atoms: C_9  and  C_10
REMARK   11  A    between atoms: C_10  and  C_11
REMARK   12  A    between atoms: C_11  and  C_12
REMARK   13  A    between atoms: C_12  and  C_13
REMARK   14  A    between atoms: C_13  and  C_14
REMARK   15  A    between atoms: C_14  and  C_15
REMARK   16  A    between atoms: C_16  and  C_17
REMARK   17  A    between atoms: C_17  and  O_18
REMARK   18  A    between atoms: C_17  and  C_19
REMARK                            x       y       z     vdW  Elec       q    Type
REMARK                         _______ _______ _______ _____ _____    ______ ____
ROOT
ATOM      1  C   UNL     1       3.384   6.172  18.665  0.00  0.00    +0.000 C 
ENDROOT
BRANCH   1   2
ATOM      2  C   UNL     1       2.486   7.376  18.858  0.00  0.00    +0.000 A 
ATOM      3  C   UNL     1       2.179   8.228  17.786  0.00  0.00    +0.000 A 
ATOM      4  C   UNL     1       1.328   9.316  17.963  0.00  0.00    +0.000 A 
ATOM      5  C   UNL     1       0.780   9.591  19.221  0.00  0.00    +0.000 A 
ATOM      6  C   UNL     1      -0.055  10.701  19.416  0.00  0.00    +0.000 A 
ATOM      7  C   UNL     1      -0.584  10.993  20.677  0.00  0.00    +0.000 A 
ATOM      8  C   UNL     1      -1.400  12.113  20.877  0.00  0.00    +0.000 A 
ATOM      9  C   UNL     1      -1.920  12.399  22.139  0.00  0.00    +0.000 A 
ATOM     10  C   UNL     1      -1.637  11.561  23.214  0.00  0.00    +0.000 A 
ATOM     11  C   UNL     1      -0.829  10.439  23.030  0.00  0.00    +0.000 A 
ATOM     12  C   UNL     1      -0.292  10.142  21.769  0.00  0.00    +0.000 A 
ATOM     13  C   UNL     1       0.534   9.025  21.574  0.00  0.00    +0.000 A 
ATOM     14  C   UNL     1       1.081   8.744  20.310  0.00  0.00    +0.000 A 
ATOM     15  C   UNL     1       1.928   7.643  20.115  0.00  0.00    +0.000 A 
ENDBRANCH   1   2
BRANCH   1  16
ATOM     16  O   UNL     1       4.086   5.963  19.890  0.00  0.00    +0.000 OA
ATOM     17  H   UNL     1       4.096   6.811  20.362  0.00  0.00    +0.000 HD
ENDBRANCH   1  16
BRANCH   1  18
ATOM     18  C   UNL     1       4.339   6.403  17.461  0.00  0.00    +0.000 C 
BRANCH  18  19
ATOM     19  N   UNL     1       4.607   5.249  16.561  0.00  0.00    +0.000 NA
BRANCH  19  20
ATOM     20  C   UNL     1       3.555   4.222  16.768  0.00  0.00    +0.000 C 
BRANCH  20  21
ATOM     21  C   UNL     1       3.841   3.212  17.898  0.00  0.00    +0.000 C 
BRANCH  21  22
ATOM     22  C   UNL     1       3.017   1.921  17.821  0.00  0.00    +0.000 C 
BRANCH  22  23
ATOM     23  C   UNL     1       1.746   1.935  18.677  0.00  0.00    +0.000 C 
BRANCH  23  24
ATOM     24  C   UNL     1       1.372   3.345  19.130  0.00  0.00    +0.000 C 
BRANCH  24  25
ATOM     25  C   UNL     1       0.935   3.389  20.588  0.00  0.00    +0.000 C 
ATOM     26  C   UNL     1       2.106   3.790  21.472  0.00  0.00    +0.000 C 
ENDBRANCH  24  25
ENDBRANCH  23  24
ENDBRANCH  22  23
ENDBRANCH  21  22
ENDBRANCH  20  21
ENDBRANCH  19  20
BRANCH  19  27
ATOM     27  C   UNL     1       5.947   4.690  16.853  0.00  0.00    +0.000 C 
BRANCH  27  28
ATOM     28  C   UNL     1       6.638   3.917  15.717  0.00  0.00    +0.000 C 
BRANCH  28  29
ATOM     29  C   UNL     1       7.022   4.756  14.495  0.00  0.00    +0.000 C 
BRANCH  29  30
ATOM     30  C   UNL     1       6.063   4.561  13.321  0.00  0.00    +0.000 C 
BRANCH  30  31
ATOM     31  C   UNL     1       6.607   3.556  12.307  0.00  0.00    +0.000 C 
BRANCH  31  33
ATOM     32  C   UNL     1       6.086   1.333  11.249  0.00  0.00    +0.000 C 
ATOM     33  C   UNL     1       5.505   2.601  11.851  0.00  0.00    +0.000 C 
ENDBRANCH  31  33
ENDBRANCH  30  31
ENDBRANCH  29  30
ENDBRANCH  28  29
ENDBRANCH  27  28
ENDBRANCH  19  27
ENDBRANCH  18  19
ENDBRANCH   1  18
TORSDOF 16
ENDMDL
MODEL 7
REMARK VINA RESULT:      -7.5      0.907      1.532
REMARK  Name = 
REMARK  18 active torsions:
REMARK  status: ('A' for Active; 'I' for Inactive)
REMARK    1  A    between atoms: C_1  and  C_2
REMARK    2  A    between atoms: C_2  and  C_3
REMARK    3  A    between atoms: C_3  and  C_4
REMARK    4  A    between atoms: C_4  and  C_5
REMARK    5  A    between atoms: C_5  and  C_6
REMARK    6  A    between atoms: C_6  and  C_7
REMARK    7  A    between atoms: C_7  and  N_8
REMARK    8  A    between atoms: N_8  and  C_9
REMARK    9  A    between atoms: N_8  and  C_16
REMARK   10  A    between atoms: C_9  and  C_10
REMARK   11  A    between atoms: C_10  and  C_11
REMARK   12  A    between atoms: C_11  and  C_12
REMARK   13  A    between atoms: C_12  and  C_13
REMARK   14  A    between atoms: C_13  and  C_14
REMARK   15  A    between atoms: C_14  and  C_15
REMARK   16  A    between atoms: C_16  and  C_17
REMARK   17  A    between atoms: C_17  and  O_18
REMARK   18  A    between atoms: C_17  and  C_19
REMARK                            x       y       z     vdW  Elec       q    Type
REMARK                         _______ _______ _______ _____ _____    ______ ____
ROOT
ATOM      1  C   UNL     1       3.880   5.799  18.889  0.00  0.00    +0.000 C 
ENDROOT
BRANCH   1   2
ATOM      2  C   UNL     1       2.942   6.980  19.032  0.00  0.00    +0.000 A 
ATOM      3  C   UNL     1       2.668   7.823  17.944  0.00  0.00    +0.000 A 
ATOM      4  C   UNL     1       1.780   8.888  18.076  0.00  0.00    +0.000 A 
ATOM      5  C   UNL     1       1.163   9.151  19.304  0.00  0.00    +0.000 A 
ATOM      6  C   UNL     1       0.291  10.239  19.454  0.00  0.00    +0.000 A 
ATOM      7  C   UNL     1      -0.309  10.518  20.686  0.00  0.00    +0.000 A 
ATOM      8  C   UNL     1      -1.163  11.617  20.842  0.00  0.00    +0.000 A 
ATOM      9  C   UNL     1      -1.753  11.890  22.075  0.00  0.00    +0.000 A 
ATOM     10  C   UNL     1      -1.503  11.061  23.165  0.00  0.00    +0.000 A 
ATOM     11  C   UNL     1      -0.659   9.960  23.025  0.00  0.00    +0.000 A 
ATOM     12  C   UNL     1      -0.051   9.675  21.794  0.00  0.00    +0.000 A 
ATOM     13  C   UNL     1       0.812   8.580  21.643  0.00  0.00    +0.000 A 
ATOM     14  C   UNL     1       1.430   8.312  20.409  0.00  0.00    +0.000 A 
ATOM     15  C   UNL     1       2.314   7.234  20.259  0.00  0.00    +0.000 A 
ENDBRANCH   1   2
BRANCH   1  16
ATOM     16  O   UNL     1       5.195   6.319  18.698  0.00  0.00    +0.000 OA
ATOM     17  H   UNL     1       5.211   6.743  17.825  0.00  0.00    +0.000 HD
ENDBRANCH   1  16
BRANCH   1  18
ATOM     18  C   UNL     1       3.420   4.892  17.714  0.00  0.00    +0.000 C 
BRANCH  18  19
ATOM     19  N   UNL     1       4.195   3.647  17.459  0.00  0.00    +0.000 NA
BRANCH  19  20
ATOM     20  C   UNL     1       4.648   3.087  18.757  0.00  0.00    +0.000 C 
BRANCH  20  21
ATOM     21  C   UNL     1       3.625   2.178  19.469  0.00  0.00    +0.000 C 
BRANCH  21  22
ATOM     22  C   UNL     1       3.577   2.348  20.993  0.00  0.00    +0.000 C 
BRANCH  22  23
ATOM     23  C   UNL     1       2.544   3.370  21.478  0.00  0.00    +0.000 C 
BRANCH  23  24
ATOM     24  C   UNL     1       1.115   2.949  21.143  0.00  0.00    +0.000 C 
BRANCH  24  25
ATOM     25  C   UNL     1       0.574   3.660  19.909  0.00  0.00    +0.000 C 
ATOM     26  C   UNL     1       0.511   2.695  18.736  0.00  0.00    +0.000 C 
ENDBRANCH  24  25
ENDBRANCH  23  24
ENDBRANCH  22  23
ENDBRANCH  21  22
ENDBRANCH  20  21
ENDBRANCH  19  20
BRANCH  19  27
ATOM     27  C   UNL     1       5.354   3.951  16.589  0.00  0.00    +0.000 C 
BRANCH  27  28
ATOM     28  C   UNL     1       5.171   5.082  15.561  0.00  0.00    +0.000 C 
BRANCH  28  29
ATOM     29  C   UNL     1       6.086   5.005  14.336  0.00  0.00    +0.000 C 
BRANCH  29  30
ATOM     30  C   UNL     1       6.205   3.588  13.777  0.00  0.00    +0.000 C 
BRANCH  30  31
ATOM     31  C   UNL     1       6.373   3.591  12.258  0.00  0.00    +0.000 C 
BRANCH  31  33
ATOM     32  C   UNL     1       4.053   3.228  11.354  0.00  0.00    +0.000 C 
ATOM     33  C   UNL     1       5.411   2.597  11.610  0.00  0.00    +0.000 C 
ENDBRANCH  31  33
ENDBRANCH  30  31
ENDBRANCH  29  30
ENDBRANCH  28  29
ENDBRANCH  27  28
ENDBRANCH  19  27
ENDBRANCH  18  19
ENDBRANCH   1  18
TORSDOF 16
ENDMDL
MODEL 8
REMARK VINA RESULT:      -7.5      2.563      5.636
REMARK  Name = 
REMARK  18 active torsions:
REMARK  status: ('A' for Active; 'I' for Inactive)
REMARK    1  A    between atoms: C_1  and  C_2
REMARK    2  A    between atoms: C_2  and  C_3
REMARK    3  A    between atoms: C_3  and  C_4
REMARK    4  A    between atoms: C_4  and  C_5
REMARK    5  A    between atoms: C_5  and  C_6
REMARK    6  A    between atoms: C_6  and  C_7
REMARK    7  A    between atoms: C_7  and  N_8
REMARK    8  A    between atoms: N_8  and  C_9
REMARK    9  A    between atoms: N_8  and  C_16
REMARK   10  A    between atoms: C_9  and  C_10
REMARK   11  A    between atoms: C_10  and  C_11
REMARK   12  A    between atoms: C_11  and  C_12
REMARK   13  A    between atoms: C_12  and  C_13
REMARK   14  A    between atoms: C_13  and  C_14
REMARK   15  A    between atoms: C_14  and  C_15
REMARK   16  A    between atoms: C_16  and  C_17
REMARK   17  A    between atoms: C_17  and  O_18
REMARK   18  A    between atoms: C_17  and  C_19
REMARK                            x       y       z     vdW  Elec       q    Type
REMARK                         _______ _______ _______ _____ _____    ______ ____
ROOT
ATOM      1  C   UNL     1       3.674   5.075  18.407  0.00  0.00    +0.000 C 
ENDROOT
BRANCH   1   2
ATOM      2  C   UNL     1       2.967   6.388  18.673  0.00  0.00    +0.000 A 
ATOM      3  C   UNL     1       2.943   7.405  17.706  0.00  0.00    +0.000 A 
ATOM      4  C   UNL     1       2.265   8.598  17.946  0.00  0.00    +0.000 A 
ATOM      5  C   UNL     1       1.613   8.812  19.166  0.00  0.00    +0.000 A 
ATOM      6  C   UNL     1       0.952  10.021  19.427  0.00  0.00    +0.000 A 
ATOM      7  C   UNL     1       0.320  10.248  20.653  0.00  0.00    +0.000 A 
ATOM      8  C   UNL     1      -0.321  11.463  20.924  0.00  0.00    +0.000 A 
ATOM      9  C   UNL     1      -0.944  11.681  22.151  0.00  0.00    +0.000 A 
ATOM     10  C   UNL     1      -0.942  10.682  23.121  0.00  0.00    +0.000 A 
ATOM     11  C   UNL     1      -0.312   9.464  22.865  0.00  0.00    +0.000 A 
ATOM     12  C   UNL     1       0.327   9.231  21.639  0.00  0.00    +0.000 A 
ATOM     13  C   UNL     1       0.977   8.017  21.375  0.00  0.00    +0.000 A 
ATOM     14  C   UNL     1       1.630   7.798  20.149  0.00  0.00    +0.000 A 
ATOM     15  C   UNL     1       2.303   6.596  19.889  0.00  0.00    +0.000 A 
ENDBRANCH   1   2
BRANCH   1  16
ATOM     16  O   UNL     1       3.501   4.256  19.563  0.00  0.00    +0.000 OA
ATOM     17  H   UNL     1       3.399   4.852  20.323  0.00  0.00    +0.000 HD
ENDBRANCH   1  16
BRANCH   1  18
ATOM     18  C   UNL     1       5.169   5.331  18.074  0.00  0.00    +0.000 C 
BRANCH  18  19
ATOM     19  N   UNL     1       5.543   5.470  16.640  0.00  0.00    +0.000 NA
BRANCH  19  20
ATOM     20  C   UNL     1       6.479   4.377  16.278  0.00  0.00    +0.000 C 
BRANCH  20  21
ATOM     21  C   UNL     1       6.936   4.370  14.805  0.00  0.00    +0.000 C 
BRANCH  21  22
ATOM     22  C   UNL     1       5.840   3.994  13.800  0.00  0.00    +0.000 C 
BRANCH  22  23
ATOM     23  C   UNL     1       6.298   3.025  12.705  0.00  0.00    +0.000 C 
BRANCH  23  24
ATOM     24  C   UNL     1       5.594   3.283  11.375  0.00  0.00    +0.000 C 
BRANCH  24  25
ATOM     25  C   UNL     1       4.131   3.668  11.558  0.00  0.00    +0.000 C 
ATOM     26  C   UNL     1       3.286   3.046  10.458  0.00  0.00    +0.000 C 
ENDBRANCH  24  25
ENDBRANCH  23  24
ENDBRANCH  22  23
ENDBRANCH  21  22
ENDBRANCH  20  21
ENDBRANCH  19  20
BRANCH  19  27
ATOM     27  C   UNL     1       6.173   6.792  16.416  0.00  0.00    +0.000 C 
BRANCH  27  28
ATOM     28  C   UNL     1       6.590   7.583  17.668  0.00  0.00    +0.000 C 
BRANCH  28  29
ATOM     29  C   UNL     1       8.068   7.978  17.730  0.00  0.00    +0.000 C 
BRANCH  29  30
ATOM     30  C   UNL     1       8.270   9.483  17.902  0.00  0.00    +0.000 C 
BRANCH  30  31
ATOM     31  C   UNL     1       9.162   9.801  19.100  0.00  0.00    +0.000 C 
BRANCH  31  33
ATOM     32  C   UNL     1      11.011  11.495  19.297  0.00  0.00    +0.000 C 
ATOM     33  C   UNL     1       9.516  11.286  19.128  0.00  0.00    +0.000 C 
ENDBRANCH  31  33
ENDBRANCH  30  31
ENDBRANCH  29  30
ENDBRANCH  28  29
ENDBRANCH  27  28
ENDBRANCH  19  27
ENDBRANCH  18  19
ENDBRANCH   1  18
TORSDOF 16
ENDMDL
MODEL 9
REMARK VINA RESULT:      -7.4      2.910      4.647
REMARK  Name = 
REMARK  18 active torsions:
REMARK  status: ('A' for Active; 'I' for Inactive)
REMARK    1  A    between atoms: C_1  and  C_2
REMARK    2  A    between atoms: C_2  and  C_3
REMARK    3  A    between atoms: C_3  and  C_4
REMARK    4  A    between atoms: C_4  and  C_5
REMARK    5  A    between atoms: C_5  and  C_6
REMARK    6  A    between atoms: C_6  and  C_7
REMARK    7  A    between atoms: C_7  and  N_8
REMARK    8  A    between atoms: N_8  and  C_9
REMARK    9  A    between atoms: N_8  and  C_16
REMARK   10  A    between atoms: C_9  and  C_10
REMARK   11  A    between atoms: C_10  and  C_11
REMARK   12  A    between atoms: C_11  and  C_12
REMARK   13  A    between atoms: C_12  and  C_13
REMARK   14  A    between atoms: C_13  and  C_14
REMARK   15  A    between atoms: C_14  and  C_15
REMARK   16  A    between atoms: C_16  and  C_17
REMARK   17  A    between atoms: C_17  and  O_18
REMARK   18  A    between atoms: C_17  and  C_19
REMARK                            x       y       z     vdW  Elec       q    Type
REMARK                         _______ _______ _______ _____ _____    ______ ____
ROOT
ATOM      1  C   UNL     1       3.659   5.749  17.885  0.00  0.00    +0.000 C 
ENDROOT
BRANCH   1   2
ATOM      2  C   UNL     1       2.883   6.986  18.289  0.00  0.00    +0.000 A 
ATOM      3  C   UNL     1       2.721   8.061  17.402  0.00  0.00    +0.000 A 
ATOM      4  C   UNL     1       1.980   9.181  17.770  0.00  0.00    +0.000 A 
ATOM      5  C   UNL     1       1.401   9.264  19.041  0.00  0.00    +0.000 A 
ATOM      6  C   UNL     1       0.678  10.401  19.431  0.00  0.00    +0.000 A 
ATOM      7  C   UNL     1       0.120  10.497  20.709  0.00  0.00    +0.000 A 
ATOM      8  C   UNL     1      -0.584  11.640  21.107  0.00  0.00    +0.000 A 
ATOM      9  C   UNL     1      -1.133  11.729  22.385  0.00  0.00    +0.000 A 
ATOM     10  C   UNL     1      -0.994  10.670  23.278  0.00  0.00    +0.000 A 
ATOM     11  C   UNL     1      -0.300   9.522  22.895  0.00  0.00    +0.000 A 
ATOM     12  C   UNL     1       0.266   9.420  21.617  0.00  0.00    +0.000 A 
ATOM     13  C   UNL     1       0.979   8.277  21.225  0.00  0.00    +0.000 A 
ATOM     14  C   UNL     1       1.557   8.190  19.946  0.00  0.00    +0.000 A 
ATOM     15  C   UNL     1       2.293   7.062  19.558  0.00  0.00    +0.000 A 
ENDBRANCH   1   2
BRANCH   1  16
ATOM     16  O   UNL     1       4.108   5.116  19.081  0.00  0.00    +0.000 OA
ATOM     17  H   UNL     1       4.799   5.683  19.462  0.00  0.00    +0.000 HD
ENDBRANCH   1  16
BRANCH   1  18
ATOM     18  C   UNL     1       4.829   6.138  16.938  0.00  0.00    +0.000 C 
BRANCH  18  19
ATOM     19  N   UNL     1       6.194   6.219  17.525  0.00  0.00    +0.000 NA
BRANCH  19  20
ATOM     20  C   UNL     1       6.681   7.617  17.420  0.00  0.00    +0.000 C 
BRANCH  20  21
ATOM     21  C   UNL     1       8.181   7.810  17.721  0.00  0.00    +0.000 C 
BRANCH  21  22
ATOM     22  C   UNL     1       8.503   9.035  18.588  0.00  0.00    +0.000 C 
BRANCH  22  23
ATOM     23  C   UNL     1       8.630  10.344  17.802  0.00  0.00    +0.000 C 
BRANCH  23  24
ATOM     24  C   UNL     1       9.232  11.466  18.645  0.00  0.00    +0.000 C 
BRANCH  24  25
ATOM     25  C   UNL     1      10.138  10.940  19.750  0.00  0.00    +0.000 C 
ATOM     26  C   UNL     1      10.615  12.088  20.625  0.00  0.00    +0.000 C 
ENDBRANCH  24  25
ENDBRANCH  23  24
ENDBRANCH  22  23
ENDBRANCH  21  22
ENDBRANCH  20  21
ENDBRANCH  19  20
BRANCH  19  27
ATOM     27  C   UNL     1       7.101   5.294  16.806  0.00  0.00    +0.000 C 
BRANCH  27  28
ATOM     28  C   UNL     1       6.924   5.196  15.281  0.00  0.00    +0.000 C 
BRANCH  28  29
ATOM     29  C   UNL     1       6.278   3.902  14.780  0.00  0.00    +0.000 C 
BRANCH  29  30
ATOM     30  C   UNL     1       6.348   3.758  13.260  0.00  0.00    +0.000 C 
BRANCH  30  31
ATOM     31  C   UNL     1       4.984   3.975  12.607  0.00  0.00    +0.000 C 
BRANCH  31  33
ATOM     32  C   UNL     1       5.760   1.832  11.542  0.00  0.00    +0.000 C 
ATOM     33  C   UNL     1       4.769   2.980  11.468  0.00  0.00    +0.000 C 
ENDBRANCH  31  33
ENDBRANCH  30  31
ENDBRANCH  29  30
ENDBRANCH  28  29
ENDBRANCH  27  28
ENDBRANCH  19  27
ENDBRANCH  18  19
ENDBRANCH   1  18
TORSDOF 16
ENDMDL
