MODEL 1
REMARK VINA RESULT:      -7.2      0.000      0.000
REMARK  Name = 
REMARK  7 active torsions:
REMARK  status: ('A' for Active; 'I' for Inactive)
REMARK    1  A    between atoms: C_1  and  C_2
REMARK    2  A    between atoms: C_2  and  C_3
REMARK    3  A    between atoms: C_3  and  C_4
REMARK    4  A    between atoms: C_12  and  C_13
REMARK    5  A    between atoms: C_13  and  C_15
REMARK    6  A    between atoms: C_18  and  O_19
REMARK    7  A    between atoms: O_19  and  C_20
REMARK                            x       y       z     vdW  Elec       q    Type
REMARK                         _______ _______ _______ _____ _____    ______ ____
ROOT
ATOM      1  C   UNL     1       3.030   4.237  17.824  0.00  0.00    +0.000 A 
ATOM      2  S   UNL     1       4.136   3.622  16.678  0.00  0.00    +0.000 S 
ATOM      3  C   UNL     1       5.476   4.378  17.425  0.00  0.00    +0.000 A 
ATOM      4  C   UNL     1       6.818   4.300  17.001  0.00  0.00    +0.000 A 
ATOM      5  C   UNL     1       7.805   4.961  17.728  0.00  0.00    +0.000 A 
ATOM      6  C   UNL     1       7.473   5.658  18.876  0.00  0.00    +0.000 A 
ATOM      7  C   UNL     1       6.143   5.713  19.305  0.00  0.00    +0.000 A 
ATOM      8  C   UNL     1       5.093   5.104  18.558  0.00  0.00    +0.000 A 
ATOM      9  C   UNL     1       3.641   5.082  18.749  0.00  0.00    +0.000 A 
ENDROOT
BRANCH   9  10
ATOM     10  C   UNL     1       2.869   5.775  19.797  0.00  0.00    +0.000 C 
ATOM     11  O   UNL     1       2.661   5.268  20.898  0.00  0.00    +0.000 OA
BRANCH  10  12
ATOM     12  C   UNL     1       2.300   7.134  19.559  0.00  0.00    +0.000 A 
ATOM     13  C   UNL     1       2.447   7.693  18.283  0.00  0.00    +0.000 A 
ATOM     14  C   UNL     1       1.882   8.935  17.988  0.00  0.00    +0.000 A 
ATOM     15  C   UNL     1       1.150   9.624  18.955  0.00  0.00    +0.000 A 
ATOM     16  C   UNL     1       1.053   9.103  20.245  0.00  0.00    +0.000 A 
ATOM     17  C   UNL     1       1.646   7.871  20.555  0.00  0.00    +0.000 A 
BRANCH  15  18
ATOM     18  O   UNL     1       0.614  10.813  18.548  0.00  0.00    +0.000 OA
ATOM     19  C   UNL     1       1.108  11.965  19.225  0.00  0.00    +0.000 C 
ENDBRANCH  15  18
ENDBRANCH  10  12
ENDBRANCH   9  10
BRANCH   1  20
ATOM     20  C   UNL     1       1.584   3.818  17.698  0.00  0.00    +0.000 C 
BRANCH  20  22
ATOM     21  C   UNL     1       0.622   2.862  19.814  0.00  0.00    +0.000 C 
ATOM     22  C   UNL     1       1.280   2.541  18.483  0.00  0.00    +0.000 C 
ENDBRANCH  20  22
ENDBRANCH   1  20
TORSDOF 5
ENDMDL
MODEL 2
REMARK VINA RESULT:      -7.2      0.324      1.079
REMARK  Name = 
REMARK  7 active torsions:
REMARK  status: ('A' for Active; 'I' for Inactive)
REMARK    1  A    between atoms: C_1  and  C_2
REMARK    2  A    between atoms: C_2  and  C_3
REMARK    3  A    between atoms: C_3  and  C_4
REMARK    4  A    between atoms: C_12  and  C_13
REMARK    5  A    between atoms: C_13  and  C_15
REMARK    6  A    between atoms: C_18  and  O_19
REMARK    7  A    between atoms: O_19  and  C_20
REMARK                            x       y       z     vdW  Elec       q    Type
REMARK                         _______ _______ _______ _____ _____    ______ ____
ROOT
ATOM      1  C   UNL     1       2.944   4.283  17.854  0.00  0.00    +0.000 A 
ATOM      2  S   UNL     1       4.030   3.582  16.738  0.00  0.00    +0.000 S 
ATOM      3  C   UNL     1       5.392   4.330  17.451  0.00  0.00    +0.000 A 
ATOM      4  C   UNL     1       6.731   4.191  17.032  0.00  0.00    +0.000 A 
ATOM      5  C   UNL     1       7.739   4.854  17.729  0.00  0.00    +0.000 A 
ATOM      6  C   UNL     1       7.429   5.611  18.845  0.00  0.00    +0.000 A 
ATOM      7  C   UNL     1       6.102   5.726  19.270  0.00  0.00    +0.000 A 
ATOM      8  C   UNL     1       5.033   5.118  18.550  0.00  0.00    +0.000 A 
ATOM      9  C   UNL     1       3.581   5.149  18.741  0.00  0.00    +0.000 A 
ENDROOT
BRANCH   9  10
ATOM     10  C   UNL     1       2.831   5.912  19.756  0.00  0.00    +0.000 C 
ATOM     11  O   UNL     1       2.659   5.487  20.897  0.00  0.00    +0.000 OA
BRANCH  10  12
ATOM     12  C   UNL     1       2.243   7.246  19.434  0.00  0.00    +0.000 A 
ATOM     13  C   UNL     1       1.566   7.928  20.454  0.00  0.00    +0.000 A 
ATOM     14  C   UNL     1       1.050   9.204  20.226  0.00  0.00    +0.000 A 
ATOM     15  C   UNL     1       1.218   9.821  18.987  0.00  0.00    +0.000 A 
ATOM     16  C   UNL     1       1.836   9.124  17.949  0.00  0.00    +0.000 A 
ATOM     17  C   UNL     1       2.328   7.830  18.163  0.00  0.00    +0.000 A 
BRANCH  15  18
ATOM     18  O   UNL     1       0.702  11.083  18.884  0.00  0.00    +0.000 OA
ATOM     19  C   UNL     1       0.198  11.634  20.098  0.00  0.00    +0.000 C 
ENDBRANCH  15  18
ENDBRANCH  10  12
ENDBRANCH   9  10
BRANCH   1  20
ATOM     20  C   UNL     1       1.485   3.903  17.746  0.00  0.00    +0.000 C 
BRANCH  20  22
ATOM     21  C   UNL     1       0.687   2.939  19.926  0.00  0.00    +0.000 C 
ATOM     22  C   UNL     1       1.160   2.623  18.517  0.00  0.00    +0.000 C 
ENDBRANCH  20  22
ENDBRANCH   1  20
TORSDOF 5
ENDMDL
MODEL 3
REMARK VINA RESULT:      -7.2      1.535      4.137
REMARK  Name = 
REMARK  7 active torsions:
REMARK  status: ('A' for Active; 'I' for Inactive)
REMARK    1  A    between atoms: C_1  and  C_2
REMARK    2  A    between atoms: C_2  and  C_3
REMARK    3  A    between atoms: C_3  and  C_4
REMARK    4  A    between atoms: C_12  and  C_13
REMARK    5  A    between atoms: C_13  and  C_15
REMARK    6  A    between atoms: C_18  and  O_19
REMARK    7  A    between atoms: O_19  and  C_20
REMARK                            x       y       z     vdW  Elec       q    Type
REMARK                         _______ _______ _______ _____ _____    ______ ____
ROOT
ATOM      1  C   UNL     1       5.100   4.898  18.776  0.00  0.00    +0.000 A 
ATOM      2  S   UNL     1       5.022   3.333  19.453  0.00  0.00    +0.000 S 
ATOM      3  C   UNL     1       3.359   3.159  19.095  0.00  0.00    +0.000 A 
ATOM      4  C   UNL     1       2.561   2.031  19.378  0.00  0.00    +0.000 A 
ATOM      5  C   UNL     1       1.218   2.032  19.008  0.00  0.00    +0.000 A 
ATOM      6  C   UNL     1       0.685   3.117  18.335  0.00  0.00    +0.000 A 
ATOM      7  C   UNL     1       1.487   4.223  18.036  0.00  0.00    +0.000 A 
ATOM      8  C   UNL     1       2.848   4.291  18.451  0.00  0.00    +0.000 A 
ATOM      9  C   UNL     1       3.857   5.346  18.331  0.00  0.00    +0.000 A 
ENDROOT
BRANCH   9  10
ATOM     10  C   UNL     1       3.674   6.694  17.763  0.00  0.00    +0.000 C 
ATOM     11  O   UNL     1       4.312   7.084  16.787  0.00  0.00    +0.000 OA
BRANCH  10  12
ATOM     12  C   UNL     1       2.696   7.652  18.359  0.00  0.00    +0.000 A 
ATOM     13  C   UNL     1       2.302   7.446  19.688  0.00  0.00    +0.000 A 
ATOM     14  C   UNL     1       1.437   8.345  20.313  0.00  0.00    +0.000 A 
ATOM     15  C   UNL     1       0.971   9.467  19.629  0.00  0.00    +0.000 A 
ATOM     16  C   UNL     1       1.309   9.645  18.287  0.00  0.00    +0.000 A 
ATOM     17  C   UNL     1       2.151   8.727  17.645  0.00  0.00    +0.000 A 
BRANCH  15  18
ATOM     18  O   UNL     1       0.157  10.297  20.348  0.00  0.00    +0.000 OA
ATOM     19  C   UNL     1       0.796  11.444  20.901  0.00  0.00    +0.000 C 
ENDBRANCH  15  18
ENDBRANCH  10  12
ENDBRANCH   9  10
BRANCH   1  20
ATOM     20  C   UNL     1       6.446   5.585  18.748  0.00  0.00    +0.000 C 
BRANCH  20  22
ATOM     21  C   UNL     1       7.046   4.662  16.489  0.00  0.00    +0.000 C 
ATOM     22  C   UNL     1       7.480   4.802  17.938  0.00  0.00    +0.000 C 
ENDBRANCH  20  22
ENDBRANCH   1  20
TORSDOF 5
ENDMDL
MODEL 4
REMARK VINA RESULT:      -7.0      2.730      5.715
REMARK  Name = 
REMARK  7 active torsions:
REMARK  status: ('A' for Active; 'I' for Inactive)
REMARK    1  A    between atoms: C_1  and  C_2
REMARK    2  A    between atoms: C_2  and  C_3
REMARK    3  A    between atoms: C_3  and  C_4
REMARK    4  A    between atoms: C_12  and  C_13
REMARK    5  A    between atoms: C_13  and  C_15
REMARK    6  A    between atoms: C_18  and  O_19
REMARK    7  A    between atoms: O_19  and  C_20
REMARK                            x       y       z     vdW  Elec       q    Type
REMARK                         _______ _______ _______ _____ _____    ______ ____
ROOT
ATOM      1  C   UNL     1       2.677   4.654  20.517  0.00  0.00    +0.000 A 
ATOM      2  S   UNL     1       1.601   5.940  20.837  0.00  0.00    +0.000 S 
ATOM      3  C   UNL     1       2.213   6.894  19.556  0.00  0.00    +0.000 A 
ATOM      4  C   UNL     1       1.762   8.179  19.188  0.00  0.00    +0.000 A 
ATOM      5  C   UNL     1       2.352   8.826  18.104  0.00  0.00    +0.000 A 
ATOM      6  C   UNL     1       3.344   8.196  17.375  0.00  0.00    +0.000 A 
ATOM      7  C   UNL     1       3.771   6.912  17.730  0.00  0.00    +0.000 A 
ATOM      8  C   UNL     1       3.240   6.239  18.869  0.00  0.00    +0.000 A 
ATOM      9  C   UNL     1       3.565   4.950  19.484  0.00  0.00    +0.000 A 
ENDROOT
BRANCH   9  10
ATOM     10  C   UNL     1       4.623   4.008  19.074  0.00  0.00    +0.000 C 
ATOM     11  O   UNL     1       4.851   2.971  19.694  0.00  0.00    +0.000 OA
BRANCH  10  12
ATOM     12  C   UNL     1       5.471   4.280  17.877  0.00  0.00    +0.000 A 
ATOM     13  C   UNL     1       4.991   3.873  16.625  0.00  0.00    +0.000 A 
ATOM     14  C   UNL     1       5.715   4.156  15.466  0.00  0.00    +0.000 A 
ATOM     15  C   UNL     1       6.914   4.863  15.539  0.00  0.00    +0.000 A 
ATOM     16  C   UNL     1       7.429   5.217  16.787  0.00  0.00    +0.000 A 
ATOM     17  C   UNL     1       6.722   4.907  17.956  0.00  0.00    +0.000 A 
BRANCH  15  18
ATOM     18  O   UNL     1       7.522   5.114  14.342  0.00  0.00    +0.000 OA
ATOM     19  C   UNL     1       6.941   4.462  13.217  0.00  0.00    +0.000 C 
ENDBRANCH  15  18
ENDBRANCH  10  12
ENDBRANCH   9  10
BRANCH   1  20
ATOM     20  C   UNL     1       2.551   3.407  21.362  0.00  0.00    +0.000 C 
BRANCH  20  22
ATOM     21  C   UNL     1       1.134   2.391  19.551  0.00  0.00    +0.000 C 
ATOM     22  C   UNL     1       1.278   2.620  21.047  0.00  0.00    +0.000 C 
ENDBRANCH  20  22
ENDBRANCH   1  20
TORSDOF 5
ENDMDL
MODEL 5
REMARK VINA RESULT:      -6.9      1.908      4.174
REMARK  Name = 
REMARK  7 active torsions:
REMARK  status: ('A' for Active; 'I' for Inactive)
REMARK    1  A    between atoms: C_1  and  C_2
REMARK    2  A    between atoms: C_2  and  C_3
REMARK    3  A    between atoms: C_3  and  C_4
REMARK    4  A    between atoms: C_12  and  C_13
REMARK    5  A    between atoms: C_13  and  C_15
REMARK    6  A    between atoms: C_18  and  O_19
REMARK    7  A    between atoms: O_19  and  C_20
REMARK                            x       y       z     vdW  Elec       q    Type
REMARK                         _______ _______ _______ _____ _____    ______ ____
ROOT
ATOM      1  C   UNL     1       4.911   6.024  17.708  0.00  0.00    +0.000 A 
ATOM      2  S   UNL     1       5.444   4.415  17.912  0.00  0.00    +0.000 S 
ATOM      3  C   UNL     1       3.856   3.815  18.118  0.00  0.00    +0.000 A 
ATOM      4  C   UNL     1       3.498   2.469  18.336  0.00  0.00    +0.000 A 
ATOM      5  C   UNL     1       2.153   2.132  18.468  0.00  0.00    +0.000 A 
ATOM      6  C   UNL     1       1.178   3.106  18.348  0.00  0.00    +0.000 A 
ATOM      7  C   UNL     1       1.538   4.436  18.108  0.00  0.00    +0.000 A 
ATOM      8  C   UNL     1       2.903   4.835  18.029  0.00  0.00    +0.000 A 
ATOM      9  C   UNL     1       3.531   6.148  17.863  0.00  0.00    +0.000 A 
ENDROOT
BRANCH   9  10
ATOM     10  C   UNL     1       2.855   7.457  17.788  0.00  0.00    +0.000 C 
ATOM     11  O   UNL     1       2.892   8.154  16.776  0.00  0.00    +0.000 OA
BRANCH  10  12
ATOM     12  C   UNL     1       2.093   7.995  18.953  0.00  0.00    +0.000 A 
ATOM     13  C   UNL     1       1.384   9.190  18.778  0.00  0.00    +0.000 A 
ATOM     14  C   UNL     1       0.606   9.707  19.815  0.00  0.00    +0.000 A 
ATOM     15  C   UNL     1       0.511   9.029  21.030  0.00  0.00    +0.000 A 
ATOM     16  C   UNL     1       1.264   7.871  21.233  0.00  0.00    +0.000 A 
ATOM     17  C   UNL     1       2.072   7.367  20.205  0.00  0.00    +0.000 A 
BRANCH  15  18
ATOM     18  O   UNL     1      -0.304   9.606  21.963  0.00  0.00    +0.000 OA
ATOM     19  C   UNL     1      -0.324  11.030  21.954  0.00  0.00    +0.000 C 
ENDBRANCH  15  18
ENDBRANCH  10  12
ENDBRANCH   9  10
BRANCH   1  20
ATOM     20  C   UNL     1       5.954   7.076  17.408  0.00  0.00    +0.000 C 
BRANCH  20  22
ATOM     21  C   UNL     1       8.162   7.055  18.607  0.00  0.00    +0.000 C 
ATOM     22  C   UNL     1       7.373   6.508  17.430  0.00  0.00    +0.000 C 
ENDBRANCH  20  22
ENDBRANCH   1  20
TORSDOF 5
ENDMDL
MODEL 6
REMARK VINA RESULT:      -6.9      3.081      6.147
REMARK  Name = 
REMARK  7 active torsions:
REMARK  status: ('A' for Active; 'I' for Inactive)
REMARK    1  A    between atoms: C_1  and  C_2
REMARK    2  A    between atoms: C_2  and  C_3
REMARK    3  A    between atoms: C_3  and  C_4
REMARK    4  A    between atoms: C_12  and  C_13
REMARK    5  A    between atoms: C_13  and  C_15
REMARK    6  A    between atoms: C_18  and  O_19
REMARK    7  A    between atoms: O_19  and  C_20
REMARK                            x       y       z     vdW  Elec       q    Type
REMARK                         _______ _______ _______ _____ _____    ______ ____
ROOT
ATOM      1  C   UNL     1       3.808   4.019  19.646  0.00  0.00    +0.000 A 
ATOM      2  S   UNL     1       2.362   4.664  20.282  0.00  0.00    +0.000 S 
ATOM      3  C   UNL     1       2.525   6.130  19.416  0.00  0.00    +0.000 A 
ATOM      4  C   UNL     1       1.627   7.217  19.444  0.00  0.00    +0.000 A 
ATOM      5  C   UNL     1       1.890   8.342  18.666  0.00  0.00    +0.000 A 
ATOM      6  C   UNL     1       3.003   8.375  17.846  0.00  0.00    +0.000 A 
ATOM      7  C   UNL     1       3.878   7.285  17.804  0.00  0.00    +0.000 A 
ATOM      8  C   UNL     1       3.682   6.140  18.630  0.00  0.00    +0.000 A 
ATOM      9  C   UNL     1       4.477   4.925  18.825  0.00  0.00    +0.000 A 
ENDROOT
BRANCH   9  10
ATOM     10  C   UNL     1       5.780   4.605  18.212  0.00  0.00    +0.000 C 
ATOM     11  O   UNL     1       6.796   4.441  18.885  0.00  0.00    +0.000 OA
BRANCH  10  12
ATOM     12  C   UNL     1       5.919   4.467  16.732  0.00  0.00    +0.000 A 
ATOM     13  C   UNL     1       7.077   4.977  16.132  0.00  0.00    +0.000 A 
ATOM     14  C   UNL     1       7.287   4.822  14.760  0.00  0.00    +0.000 A 
ATOM     15  C   UNL     1       6.355   4.141  13.978  0.00  0.00    +0.000 A 
ATOM     16  C   UNL     1       5.171   3.685  14.558  0.00  0.00    +0.000 A 
ATOM     17  C   UNL     1       4.941   3.867  15.928  0.00  0.00    +0.000 A 
BRANCH  15  18
ATOM     18  O   UNL     1       6.677   4.019  12.655  0.00  0.00    +0.000 OA
ATOM     19  C   UNL     1       5.915   3.058  11.931  0.00  0.00    +0.000 C 
ENDBRANCH  15  18
ENDBRANCH  10  12
ENDBRANCH   9  10
BRANCH   1  20
ATOM     20  C   UNL     1       4.180   2.608  20.040  0.00  0.00    +0.000 C 
BRANCH  20  22
ATOM     21  C   UNL     1       2.619   1.973  18.174  0.00  0.00    +0.000 C 
ATOM     22  C   UNL     1       3.884   1.599  18.929  0.00  0.00    +0.000 C 
ENDBRANCH  20  22
ENDBRANCH   1  20
TORSDOF 5
ENDMDL
MODEL 7
REMARK VINA RESULT:      -6.9      1.602      4.142
REMARK  Name = 
REMARK  7 active torsions:
REMARK  status: ('A' for Active; 'I' for Inactive)
REMARK    1  A    between atoms: C_1  and  C_2
REMARK    2  A    between atoms: C_2  and  C_3
REMARK    3  A    between atoms: C_3  and  C_4
REMARK    4  A    between atoms: C_12  and  C_13
REMARK    5  A    between atoms: C_13  and  C_15
REMARK    6  A    between atoms: C_18  and  O_19
REMARK    7  A    between atoms: O_19  and  C_20
REMARK                            x       y       z     vdW  Elec       q    Type
REMARK                         _______ _______ _______ _____ _____    ______ ____
ROOT
ATOM      1  C   UNL     1       4.968   4.992  18.976  0.00  0.00    +0.000 A 
ATOM      2  S   UNL     1       4.906   3.414  19.626  0.00  0.00    +0.000 S 
ATOM      3  C   UNL     1       3.276   3.185  19.160  0.00  0.00    +0.000 A 
ATOM      4  C   UNL     1       2.505   2.024  19.377  0.00  0.00    +0.000 A 
ATOM      5  C   UNL     1       1.190   1.982  18.921  0.00  0.00    +0.000 A 
ATOM      6  C   UNL     1       0.659   3.057  18.230  0.00  0.00    +0.000 A 
ATOM      7  C   UNL     1       1.437   4.196  17.997  0.00  0.00    +0.000 A 
ATOM      8  C   UNL     1       2.765   4.308  18.500  0.00  0.00    +0.000 A 
ATOM      9  C   UNL     1       3.740   5.401  18.459  0.00  0.00    +0.000 A 
ENDROOT
BRANCH   9  10
ATOM     10  C   UNL     1       3.542   6.750  17.899  0.00  0.00    +0.000 C 
ATOM     11  O   UNL     1       4.122   7.126  16.881  0.00  0.00    +0.000 OA
BRANCH  10  12
ATOM     12  C   UNL     1       2.622   7.726  18.553  0.00  0.00    +0.000 A 
ATOM     13  C   UNL     1       2.204   8.836  17.807  0.00  0.00    +0.000 A 
ATOM     14  C   UNL     1       1.297   9.748  18.348  0.00  0.00    +0.000 A 
ATOM     15  C   UNL     1       0.782   9.554  19.629  0.00  0.00    +0.000 A 
ATOM     16  C   UNL     1       1.241   8.486  20.401  0.00  0.00    +0.000 A 
ATOM     17  C   UNL     1       2.176   7.586  19.874  0.00  0.00    +0.000 A 
BRANCH  15  18
ATOM     18  O   UNL     1      -0.124  10.488  20.046  0.00  0.00    +0.000 OA
ATOM     19  C   UNL     1       0.290  11.285  21.152  0.00  0.00    +0.000 C 
ENDBRANCH  15  18
ENDBRANCH  10  12
ENDBRANCH   9  10
BRANCH   1  20
ATOM     20  C   UNL     1       6.286   5.727  19.045  0.00  0.00    +0.000 C 
BRANCH  20  22
ATOM     21  C   UNL     1       7.569   7.051  17.336  0.00  0.00    +0.000 C 
ATOM     22  C   UNL     1       7.048   5.676  17.720  0.00  0.00    +0.000 C 
ENDBRANCH  20  22
ENDBRANCH   1  20
TORSDOF 5
ENDMDL
MODEL 8
REMARK VINA RESULT:      -6.8      1.742      4.082
REMARK  Name = 
REMARK  7 active torsions:
REMARK  status: ('A' for Active; 'I' for Inactive)
REMARK    1  A    between atoms: C_1  and  C_2
REMARK    2  A    between atoms: C_2  and  C_3
REMARK    3  A    between atoms: C_3  and  C_4
REMARK    4  A    between atoms: C_12  and  C_13
REMARK    5  A    between atoms: C_13  and  C_15
REMARK    6  A    between atoms: C_18  and  O_19
REMARK    7  A    between atoms: O_19  and  C_20
REMARK                            x       y       z     vdW  Elec       q    Type
REMARK                         _______ _______ _______ _____ _____    ______ ____
ROOT
ATOM      1  C   UNL     1       4.946   5.530  18.213  0.00  0.00    +0.000 A 
ATOM      2  S   UNL     1       5.295   3.920  18.658  0.00  0.00    +0.000 S 
ATOM      3  C   UNL     1       3.643   3.478  18.716  0.00  0.00    +0.000 A 
ATOM      4  C   UNL     1       3.135   2.201  19.030  0.00  0.00    +0.000 A 
ATOM      5  C   UNL     1       1.758   1.991  19.018  0.00  0.00    +0.000 A 
ATOM      6  C   UNL     1       0.902   3.019  18.666  0.00  0.00    +0.000 A 
ATOM      7  C   UNL     1       1.413   4.277  18.332  0.00  0.00    +0.000 A 
ATOM      8  C   UNL     1       2.810   4.554  18.391  0.00  0.00    +0.000 A 
ATOM      9  C   UNL     1       3.575   5.783  18.169  0.00  0.00    +0.000 A 
ENDROOT
BRANCH   9  10
ATOM     10  C   UNL     1       3.041   7.123  17.864  0.00  0.00    +0.000 C 
ATOM     11  O   UNL     1       3.238   7.674  16.782  0.00  0.00    +0.000 OA
BRANCH  10  12
ATOM     12  C   UNL     1       2.231   7.874  18.869  0.00  0.00    +0.000 A 
ATOM     13  C   UNL     1       1.640   9.079  18.467  0.00  0.00    +0.000 A 
ATOM     14  C   UNL     1       0.824   9.791  19.347  0.00  0.00    +0.000 A 
ATOM     15  C   UNL     1       0.573   9.301  20.628  0.00  0.00    +0.000 A 
ATOM     16  C   UNL     1       1.208   8.134  21.056  0.00  0.00    +0.000 A 
ATOM     17  C   UNL     1       2.054   7.433  20.187  0.00  0.00    +0.000 A 
BRANCH  15  18
ATOM     18  O   UNL     1      -0.266  10.061  21.394  0.00  0.00    +0.000 OA
ATOM     19  C   UNL     1      -0.292   9.729  22.779  0.00  0.00    +0.000 C 
ENDBRANCH  15  18
ENDBRANCH  10  12
ENDBRANCH   9  10
BRANCH   1  20
ATOM     20  C   UNL     1       6.112   6.452  17.940  0.00  0.00    +0.000 C 
BRANCH  20  22
ATOM     21  C   UNL     1       5.922   5.651  15.565  0.00  0.00    +0.000 C 
ATOM     22  C   UNL     1       6.876   6.062  16.675  0.00  0.00    +0.000 C 
ENDBRANCH  20  22
ENDBRANCH   1  20
TORSDOF 5
ENDMDL
MODEL 9
REMARK VINA RESULT:      -6.8      1.963      4.294
REMARK  Name = 
REMARK  7 active torsions:
REMARK  status: ('A' for Active; 'I' for Inactive)
REMARK    1  A    between atoms: C_1  and  C_2
REMARK    2  A    between atoms: C_2  and  C_3
REMARK    3  A    between atoms: C_3  and  C_4
REMARK    4  A    between atoms: C_12  and  C_13
REMARK    5  A    between atoms: C_13  and  C_15
REMARK    6  A    between atoms: C_18  and  O_19
REMARK    7  A    between atoms: O_19  and  C_20
REMARK                            x       y       z     vdW  Elec       q    Type
REMARK                         _______ _______ _______ _____ _____    ______ ____
ROOT
ATOM      1  C   UNL     1       4.625   5.968  18.188  0.00  0.00    +0.000 A 
ATOM      2  S   UNL     1       5.194   4.476  18.789  0.00  0.00    +0.000 S 
ATOM      3  C   UNL     1       3.686   4.074  19.487  0.00  0.00    +0.000 A 
ATOM      4  C   UNL     1       3.386   2.891  20.194  0.00  0.00    +0.000 A 
ATOM      5  C   UNL     1       2.098   2.699  20.691  0.00  0.00    +0.000 A 
ATOM      6  C   UNL     1       1.116   3.645  20.458  0.00  0.00    +0.000 A 
ATOM      7  C   UNL     1       1.413   4.805  19.736  0.00  0.00    +0.000 A 
ATOM      8  C   UNL     1       2.731   5.072  19.264  0.00  0.00    +0.000 A 
ATOM      9  C   UNL     1       3.306   6.223  18.563  0.00  0.00    +0.000 A 
ENDROOT
BRANCH   9  10
ATOM     10  C   UNL     1       2.625   7.480  18.206  0.00  0.00    +0.000 C 
ATOM     11  O   UNL     1       2.629   7.923  17.058  0.00  0.00    +0.000 OA
BRANCH  10  12
ATOM     12  C   UNL     1       1.896   8.278  19.236  0.00  0.00    +0.000 A 
ATOM     13  C   UNL     1       1.254   9.453  18.823  0.00  0.00    +0.000 A 
ATOM     14  C   UNL     1       0.507  10.205  19.731  0.00  0.00    +0.000 A 
ATOM     15  C   UNL     1       0.377   9.785  21.054  0.00  0.00    +0.000 A 
ATOM     16  C   UNL     1       1.065   8.650  21.487  0.00  0.00    +0.000 A 
ATOM     17  C   UNL     1       1.841   7.910  20.587  0.00  0.00    +0.000 A 
BRANCH  15  18
ATOM     18  O   UNL     1      -0.403  10.578  21.848  0.00  0.00    +0.000 OA
ATOM     19  C   UNL     1      -0.676  10.057  23.146  0.00  0.00    +0.000 C 
ENDBRANCH  15  18
ENDBRANCH  10  12
ENDBRANCH   9  10
BRANCH   1  20
ATOM     20  C   UNL     1       5.578   6.803  17.365  0.00  0.00    +0.000 C 
BRANCH  20  22
ATOM     21  C   UNL     1       7.821   7.886  17.702  0.00  0.00    +0.000 C 
ATOM     22  C   UNL     1       7.037   6.587  17.770  0.00  0.00    +0.000 C 
ENDBRANCH  20  22
ENDBRANCH   1  20
TORSDOF 5
ENDMDL
