MODEL 1
REMARK VINA RESULT:      -9.0      0.000      0.000
REMARK  Name = 
REMARK  8 active torsions:
REMARK  status: ('A' for Active; 'I' for Inactive)
REMARK    1  A    between atoms: C_2  and  C_3
REMARK    2  A    between atoms: C_3  and  N_4
REMARK    3  A    between atoms: N_4  and  C_5
REMARK    4  A    between atoms: N_4  and  S_11
REMARK    5  A    between atoms: S_11  and  C_14
REMARK    6  A    between atoms: C_18  and  C_19
REMARK    7  A    between atoms: C_23  and  C_24
REMARK    8  A    between atoms: C_26  and  C_27
REMARK                            x       y       z     vdW  Elec       q    Type
REMARK                         _______ _______ _______ _____ _____    ______ ____
ROOT
ATOM      1  C   UNL     1       3.653   4.757  19.860  0.00  0.00    +0.000 A 
ATOM      2  C   UNL     1       2.806   4.246  20.849  0.00  0.00    +0.000 A 
ATOM      3  C   UNL     1       1.672   4.961  21.212  0.00  0.00    +0.000 A 
ATOM      4  C   UNL     1       1.396   6.175  20.586  0.00  0.00    +0.000 A 
ATOM      5  C   UNL     1       2.311   6.767  19.706  0.00  0.00    +0.000 A 
ATOM      6  C   UNL     1       3.454   6.042  19.338  0.00  0.00    +0.000 A 
ENDROOT
BRANCH   5   7
ATOM      7  C   UNL     1       2.032   8.078  19.038  0.00  0.00    +0.000 C 
ATOM      8  O   UNL     1       2.315   8.165  17.847  0.00  0.00    +0.000 OA
ATOM      9  N   UNL     1       1.416   9.121  19.741  0.00  0.00    +0.000 N 
ATOM     10  C   UNL     1       0.905  10.273  18.997  0.00  0.00    +0.000 C 
ATOM     11  C   UNL     1      -0.559  10.556  19.384  0.00  0.00    +0.000 C 
ATOM     12  C   UNL     1      -1.072  11.822  18.703  0.00  0.00    +0.000 C 
ATOM     13  C   UNL     1      -0.728  10.662  20.913  0.00  0.00    +0.000 C 
ATOM     14  C   UNL     1      -0.127   9.435  21.616  0.00  0.00    +0.000 C 
ATOM     15  C   UNL     1      -0.259   9.530  23.131  0.00  0.00    +0.000 C 
ATOM     16  C   UNL     1       1.342   9.282  21.194  0.00  0.00    +0.000 C 
ENDBRANCH   5   7
BRANCH   1  17
ATOM     17  S   UNL     1       5.035   3.784  19.317  0.00  0.00    +0.000 S 
ATOM     18  O   UNL     1       5.062   2.608  20.174  0.00  0.00    +0.000 OA
ATOM     19  O   UNL     1       6.183   4.665  19.271  0.00  0.00    +0.000 OA
BRANCH  17  20
ATOM     20  N   UNL     1       4.618   3.301  17.742  0.00  0.00    +0.000 N 
BRANCH  20  21
ATOM     21  C   UNL     1       5.127   4.042  16.625  0.00  0.00    +0.000 A 
ATOM     22  C   UNL     1       5.878   3.353  15.671  0.00  0.00    +0.000 A 
ATOM     23  C   UNL     1       6.390   4.016  14.553  0.00  0.00    +0.000 A 
ATOM     24  C   UNL     1       6.143   5.374  14.375  0.00  0.00    +0.000 A 
ATOM     25  C   UNL     1       5.379   6.069  15.315  0.00  0.00    +0.000 A 
ATOM     26  C   UNL     1       4.874   5.406  16.443  0.00  0.00    +0.000 A 
ENDBRANCH  20  21
BRANCH  20  27
ATOM     27  C   UNL     1       3.463   2.416  17.535  0.00  0.00    +0.000 C 
BRANCH  27  29
ATOM     28  C   UNL     1       1.206   3.543  17.786  0.00  0.00    +0.000 C 
ATOM     29  C   UNL     1       2.296   3.241  17.067  0.00  0.00    +0.000 C 
ENDBRANCH  27  29
ENDBRANCH  20  27
ENDBRANCH  17  20
ENDBRANCH   1  17
TORSDOF 6
ENDMDL
MODEL 2
REMARK VINA RESULT:      -9.0      1.685      2.454
REMARK  Name = 
REMARK  8 active torsions:
REMARK  status: ('A' for Active; 'I' for Inactive)
REMARK    1  A    between atoms: C_2  and  C_3
REMARK    2  A    between atoms: C_3  and  N_4
REMARK    3  A    between atoms: N_4  and  C_5
REMARK    4  A    between atoms: N_4  and  S_11
REMARK    5  A    between atoms: S_11  and  C_14
REMARK    6  A    between atoms: C_18  and  C_19
REMARK    7  A    between atoms: C_23  and  C_24
REMARK    8  A    between atoms: C_26  and  C_27
REMARK                            x       y       z     vdW  Elec       q    Type
REMARK                         _______ _______ _______ _____ _____    ______ ____
ROOT
ATOM      1  C   UNL     1       3.438   4.691  19.208  0.00  0.00    +0.000 A 
ATOM      2  C   UNL     1       2.794   4.302  20.387  0.00  0.00    +0.000 A 
ATOM      3  C   UNL     1       1.878   5.160  20.979  0.00  0.00    +0.000 A 
ATOM      4  C   UNL     1       1.615   6.396  20.390  0.00  0.00    +0.000 A 
ATOM      5  C   UNL     1       2.361   6.857  19.297  0.00  0.00    +0.000 A 
ATOM      6  C   UNL     1       3.283   5.987  18.699  0.00  0.00    +0.000 A 
ENDROOT
BRANCH   5   7
ATOM      7  C   UNL     1       2.097   8.189  18.665  0.00  0.00    +0.000 C 
ATOM      8  O   UNL     1       2.438   8.324  17.494  0.00  0.00    +0.000 OA
ATOM      9  N   UNL     1       1.431   9.197  19.373  0.00  0.00    +0.000 N 
ATOM     10  C   UNL     1       0.942  10.370  18.648  0.00  0.00    +0.000 C 
ATOM     11  C   UNL     1      -0.544  10.620  18.970  0.00  0.00    +0.000 C 
ATOM     12  C   UNL     1      -1.040  11.904  18.312  0.00  0.00    +0.000 C 
ATOM     13  C   UNL     1      -0.791  10.666  20.492  0.00  0.00    +0.000 C 
ATOM     14  C   UNL     1      -0.208   9.421  21.179  0.00  0.00    +0.000 C 
ATOM     15  C   UNL     1      -0.417   9.458  22.688  0.00  0.00    +0.000 C 
ATOM     16  C   UNL     1       1.283   9.302  20.826  0.00  0.00    +0.000 C 
ENDBRANCH   5   7
BRANCH   1  17
ATOM     17  S   UNL     1       4.519   3.541  18.391  0.00  0.00    +0.000 S 
ATOM     18  O   UNL     1       3.654   2.588  17.713  0.00  0.00    +0.000 OA
ATOM     19  O   UNL     1       5.466   3.074  19.381  0.00  0.00    +0.000 OA
BRANCH  17  20
ATOM     20  N   UNL     1       5.322   4.476  17.222  0.00  0.00    +0.000 N 
BRANCH  20  21
ATOM     21  C   UNL     1       6.246   5.486  17.648  0.00  0.00    +0.000 A 
ATOM     22  C   UNL     1       7.147   5.162  18.664  0.00  0.00    +0.000 A 
ATOM     23  C   UNL     1       8.081   6.098  19.113  0.00  0.00    +0.000 A 
ATOM     24  C   UNL     1       8.130   7.365  18.539  0.00  0.00    +0.000 A 
ATOM     25  C   UNL     1       7.244   7.694  17.511  0.00  0.00    +0.000 A 
ATOM     26  C   UNL     1       6.299   6.758  17.066  0.00  0.00    +0.000 A 
ENDBRANCH  20  21
BRANCH  20  27
ATOM     27  C   UNL     1       4.798   4.532  15.850  0.00  0.00    +0.000 C 
BRANCH  27  29
ATOM     28  C   UNL     1       6.619   4.517  14.087  0.00  0.00    +0.000 C 
ATOM     29  C   UNL     1       5.787   3.881  14.924  0.00  0.00    +0.000 C 
ENDBRANCH  27  29
ENDBRANCH  20  27
ENDBRANCH  17  20
ENDBRANCH   1  17
TORSDOF 6
ENDMDL
MODEL 3
REMARK VINA RESULT:      -8.9      1.838      2.699
REMARK  Name = 
REMARK  8 active torsions:
REMARK  status: ('A' for Active; 'I' for Inactive)
REMARK    1  A    between atoms: C_2  and  C_3
REMARK    2  A    between atoms: C_3  and  N_4
REMARK    3  A    between atoms: N_4  and  C_5
REMARK    4  A    between atoms: N_4  and  S_11
REMARK    5  A    between atoms: S_11  and  C_14
REMARK    6  A    between atoms: C_18  and  C_19
REMARK    7  A    between atoms: C_23  and  C_24
REMARK    8  A    between atoms: C_26  and  C_27
REMARK                            x       y       z     vdW  Elec       q    Type
REMARK                         _______ _______ _______ _____ _____    ______ ____
ROOT
ATOM      1  C   UNL     1       3.151   4.925  18.613  0.00  0.00    +0.000 A 
ATOM      2  C   UNL     1       2.927   4.620  19.960  0.00  0.00    +0.000 A 
ATOM      3  C   UNL     1       2.359   5.577  20.791  0.00  0.00    +0.000 A 
ATOM      4  C   UNL     1       2.024   6.826  20.271  0.00  0.00    +0.000 A 
ATOM      5  C   UNL     1       2.380   7.193  18.967  0.00  0.00    +0.000 A 
ATOM      6  C   UNL     1       2.950   6.224  18.128  0.00  0.00    +0.000 A 
ENDROOT
BRANCH   5   7
ATOM      7  C   UNL     1       2.037   8.537  18.402  0.00  0.00    +0.000 C 
ATOM      8  O   UNL     1       2.334   8.738  17.228  0.00  0.00    +0.000 OA
ATOM      9  N   UNL     1       1.349   9.482  19.174  0.00  0.00    +0.000 N 
ATOM     10  C   UNL     1       0.785  10.661  18.516  0.00  0.00    +0.000 C 
ATOM     11  C   UNL     1      -0.699  10.829  18.892  0.00  0.00    +0.000 C 
ATOM     12  C   UNL     1      -1.272  12.116  18.306  0.00  0.00    +0.000 C 
ATOM     13  C   UNL     1      -0.899  10.799  20.421  0.00  0.00    +0.000 C 
ATOM     14  C   UNL     1      -0.240   9.554  21.035  0.00  0.00    +0.000 C 
ATOM     15  C   UNL     1      -0.403   9.516  22.550  0.00  0.00    +0.000 C 
ATOM     16  C   UNL     1       1.243   9.518  20.633  0.00  0.00    +0.000 C 
ENDBRANCH   5   7
BRANCH   1  17
ATOM     17  S   UNL     1       3.766   3.660  17.529  0.00  0.00    +0.000 S 
ATOM     18  O   UNL     1       2.685   3.362  16.603  0.00  0.00    +0.000 OA
ATOM     19  O   UNL     1       4.304   2.608  18.367  0.00  0.00    +0.000 OA
BRANCH  17  20
ATOM     20  N   UNL     1       5.025   4.414  16.673  0.00  0.00    +0.000 N 
BRANCH  20  21
ATOM     21  C   UNL     1       6.005   5.173  17.393  0.00  0.00    +0.000 A 
ATOM     22  C   UNL     1       6.391   6.408  16.870  0.00  0.00    +0.000 A 
ATOM     23  C   UNL     1       7.331   7.201  17.532  0.00  0.00    +0.000 A 
ATOM     24  C   UNL     1       7.885   6.768  18.733  0.00  0.00    +0.000 A 
ATOM     25  C   UNL     1       7.494   5.541  19.274  0.00  0.00    +0.000 A 
ATOM     26  C   UNL     1       6.557   4.741  18.605  0.00  0.00    +0.000 A 
ENDBRANCH  20  21
BRANCH  20  27
ATOM     27  C   UNL     1       4.895   4.624  15.224  0.00  0.00    +0.000 C 
BRANCH  27  29
ATOM     28  C   UNL     1       6.332   3.922  13.257  0.00  0.00    +0.000 C 
ATOM     29  C   UNL     1       5.898   3.758  14.515  0.00  0.00    +0.000 C 
ENDBRANCH  27  29
ENDBRANCH  20  27
ENDBRANCH  17  20
ENDBRANCH   1  17
TORSDOF 6
ENDMDL
MODEL 4
REMARK VINA RESULT:      -8.6      2.964      8.637
REMARK  Name = 
REMARK  8 active torsions:
REMARK  status: ('A' for Active; 'I' for Inactive)
REMARK    1  A    between atoms: C_2  and  C_3
REMARK    2  A    between atoms: C_3  and  N_4
REMARK    3  A    between atoms: N_4  and  C_5
REMARK    4  A    between atoms: N_4  and  S_11
REMARK    5  A    between atoms: S_11  and  C_14
REMARK    6  A    between atoms: C_18  and  C_19
REMARK    7  A    between atoms: C_23  and  C_24
REMARK    8  A    between atoms: C_26  and  C_27
REMARK                            x       y       z     vdW  Elec       q    Type
REMARK                         _______ _______ _______ _____ _____    ______ ____
ROOT
ATOM      1  C   UNL     1       1.137   9.677  19.790  0.00  0.00    +0.000 A 
ATOM      2  C   UNL     1       1.495  10.102  18.506  0.00  0.00    +0.000 A 
ATOM      3  C   UNL     1       2.089   9.202  17.632  0.00  0.00    +0.000 A 
ATOM      4  C   UNL     1       2.320   7.892  18.047  0.00  0.00    +0.000 A 
ATOM      5  C   UNL     1       2.104   7.497  19.373  0.00  0.00    +0.000 A 
ATOM      6  C   UNL     1       1.501   8.406  20.254  0.00  0.00    +0.000 A 
ENDROOT
BRANCH   5   7
ATOM      7  C   UNL     1       2.362   6.096  19.834  0.00  0.00    +0.000 C 
ATOM      8  O   UNL     1       1.656   5.672  20.745  0.00  0.00    +0.000 OA
ATOM      9  N   UNL     1       3.323   5.300  19.198  0.00  0.00    +0.000 N 
ATOM     10  C   UNL     1       3.354   3.864  19.479  0.00  0.00    +0.000 C 
ATOM     11  C   UNL     1       3.347   3.059  18.166  0.00  0.00    +0.000 C 
ATOM     12  C   UNL     1       3.494   1.564  18.437  0.00  0.00    +0.000 C 
ATOM     13  C   UNL     1       4.451   3.541  17.203  0.00  0.00    +0.000 C 
ATOM     14  C   UNL     1       4.372   5.062  16.998  0.00  0.00    +0.000 C 
ATOM     15  C   UNL     1       5.471   5.566  16.070  0.00  0.00    +0.000 C 
ATOM     16  C   UNL     1       4.437   5.759  18.367  0.00  0.00    +0.000 C 
ENDBRANCH   5   7
BRANCH   1  17
ATOM     17  S   UNL     1       0.270  10.797  20.862  0.00  0.00    +0.000 S 
ATOM     18  O   UNL     1       1.291  11.614  21.503  0.00  0.00    +0.000 OA
ATOM     19  O   UNL     1      -0.625  10.000  21.674  0.00  0.00    +0.000 OA
BRANCH  17  20
ATOM     20  N   UNL     1      -0.630  11.779  19.807  0.00  0.00    +0.000 N 
BRANCH  20  21
ATOM     21  C   UNL     1      -0.322  13.177  19.720  0.00  0.00    +0.000 A 
ATOM     22  C   UNL     1       0.733  13.565  18.892  0.00  0.00    +0.000 A 
ATOM     23  C   UNL     1       1.072  14.912  18.754  0.00  0.00    +0.000 A 
ATOM     24  C   UNL     1       0.349  15.887  19.435  0.00  0.00    +0.000 A 
ATOM     25  C   UNL     1      -0.719  15.511  20.253  0.00  0.00    +0.000 A 
ATOM     26  C   UNL     1      -1.054  14.158  20.400  0.00  0.00    +0.000 A 
ENDBRANCH  20  21
BRANCH  20  27
ATOM     27  C   UNL     1      -1.929  11.309  19.308  0.00  0.00    +0.000 C 
BRANCH  27  29
ATOM     28  C   UNL     1      -1.875   9.955  17.166  0.00  0.00    +0.000 C 
ATOM     29  C   UNL     1      -1.840  11.125  17.818  0.00  0.00    +0.000 C 
ENDBRANCH  27  29
ENDBRANCH  20  27
ENDBRANCH  17  20
ENDBRANCH   1  17
TORSDOF 6
ENDMDL
MODEL 5
REMARK VINA RESULT:      -8.5      2.234      3.564
REMARK  Name = 
REMARK  8 active torsions:
REMARK  status: ('A' for Active; 'I' for Inactive)
REMARK    1  A    between atoms: C_2  and  C_3
REMARK    2  A    between atoms: C_3  and  N_4
REMARK    3  A    between atoms: N_4  and  C_5
REMARK    4  A    between atoms: N_4  and  S_11
REMARK    5  A    between atoms: S_11  and  C_14
REMARK    6  A    between atoms: C_18  and  C_19
REMARK    7  A    between atoms: C_23  and  C_24
REMARK    8  A    between atoms: C_26  and  C_27
REMARK                            x       y       z     vdW  Elec       q    Type
REMARK                         _______ _______ _______ _____ _____    ______ ____
ROOT
ATOM      1  C   UNL     1       2.756   6.598  18.751  0.00  0.00    +0.000 A 
ATOM      2  C   UNL     1       2.898   7.347  17.578  0.00  0.00    +0.000 A 
ATOM      3  C   UNL     1       2.458   8.664  17.552  0.00  0.00    +0.000 A 
ATOM      4  C   UNL     1       1.881   9.217  18.694  0.00  0.00    +0.000 A 
ATOM      5  C   UNL     1       1.598   8.435  19.821  0.00  0.00    +0.000 A 
ATOM      6  C   UNL     1       2.047   7.107  19.847  0.00  0.00    +0.000 A 
ENDROOT
BRANCH   5   7
ATOM      7  C   UNL     1       0.966   9.016  21.049  0.00  0.00    +0.000 C 
ATOM      8  O   UNL     1       1.461   8.704  22.128  0.00  0.00    +0.000 OA
ATOM      9  N   UNL     1      -0.096   9.923  20.944  0.00  0.00    +0.000 N 
ATOM     10  C   UNL     1      -0.501  10.681  22.129  0.00  0.00    +0.000 C 
ATOM     11  C   UNL     1      -0.568  12.186  21.807  0.00  0.00    +0.000 C 
ATOM     12  C   UNL     1      -1.098  12.979  22.999  0.00  0.00    +0.000 C 
ATOM     13  C   UNL     1      -1.426  12.458  20.556  0.00  0.00    +0.000 C 
ATOM     14  C   UNL     1      -0.962  11.591  19.375  0.00  0.00    +0.000 C 
ATOM     15  C   UNL     1      -1.815  11.823  18.133  0.00  0.00    +0.000 C 
ATOM     16  C   UNL     1      -0.983  10.113  19.795  0.00  0.00    +0.000 C 
ENDBRANCH   5   7
BRANCH   1  17
ATOM     17  S   UNL     1       3.428   4.955  18.815  0.00  0.00    +0.000 S 
ATOM     18  O   UNL     1       2.376   4.070  18.337  0.00  0.00    +0.000 OA
ATOM     19  O   UNL     1       3.971   4.771  20.145  0.00  0.00    +0.000 OA
BRANCH  17  20
ATOM     20  N   UNL     1       4.688   4.970  17.676  0.00  0.00    +0.000 N 
BRANCH  20  21
ATOM     21  C   UNL     1       5.853   5.765  17.932  0.00  0.00    +0.000 A 
ATOM     22  C   UNL     1       6.744   5.325  18.913  0.00  0.00    +0.000 A 
ATOM     23  C   UNL     1       7.904   6.048  19.199  0.00  0.00    +0.000 A 
ATOM     24  C   UNL     1       8.189   7.215  18.496  0.00  0.00    +0.000 A 
ATOM     25  C   UNL     1       7.312   7.656  17.502  0.00  0.00    +0.000 A 
ATOM     26  C   UNL     1       6.143   6.936  17.221  0.00  0.00    +0.000 A 
ENDBRANCH  20  21
BRANCH  20  27
ATOM     27  C   UNL     1       4.432   4.515  16.302  0.00  0.00    +0.000 C 
BRANCH  27  29
ATOM     28  C   UNL     1       6.328   4.100  14.672  0.00  0.00    +0.000 C 
ATOM     29  C   UNL     1       5.652   3.802  15.790  0.00  0.00    +0.000 C 
ENDBRANCH  27  29
ENDBRANCH  20  27
ENDBRANCH  17  20
ENDBRANCH   1  17
TORSDOF 6
ENDMDL
MODEL 6
REMARK VINA RESULT:      -8.5      1.669      2.856
REMARK  Name = 
REMARK  8 active torsions:
REMARK  status: ('A' for Active; 'I' for Inactive)
REMARK    1  A    between atoms: C_2  and  C_3
REMARK    2  A    between atoms: C_3  and  N_4
REMARK    3  A    between atoms: N_4  and  C_5
REMARK    4  A    between atoms: N_4  and  S_11
REMARK    5  A    between atoms: S_11  and  C_14
REMARK    6  A    between atoms: C_18  and  C_19
REMARK    7  A    between atoms: C_23  and  C_24
REMARK    8  A    between atoms: C_26  and  C_27
REMARK                            x       y       z     vdW  Elec       q    Type
REMARK                         _______ _______ _______ _____ _____    ______ ____
ROOT
ATOM      1  C   UNL     1       2.946   6.597  19.180  0.00  0.00    +0.000 A 
ATOM      2  C   UNL     1       2.976   7.180  17.909  0.00  0.00    +0.000 A 
ATOM      3  C   UNL     1       2.353   8.404  17.705  0.00  0.00    +0.000 A 
ATOM      4  C   UNL     1       1.709   9.032  18.769  0.00  0.00    +0.000 A 
ATOM      5  C   UNL     1       1.544   8.392  20.004  0.00  0.00    +0.000 A 
ATOM      6  C   UNL     1       2.177   7.157  20.209  0.00  0.00    +0.000 A 
ENDROOT
BRANCH   5   7
ATOM      7  C   UNL     1       0.842   9.051  21.150  0.00  0.00    +0.000 C 
ATOM      8  O   UNL     1       1.238   8.773  22.278  0.00  0.00    +0.000 OA
ATOM      9  N   UNL     1      -0.173   9.989  20.921  0.00  0.00    +0.000 N 
ATOM     10  C   UNL     1      -0.640  10.815  22.035  0.00  0.00    +0.000 C 
ATOM     11  C   UNL     1      -0.624  12.305  21.643  0.00  0.00    +0.000 C 
ATOM     12  C   UNL     1      -1.214  13.171  22.752  0.00  0.00    +0.000 C 
ATOM     13  C   UNL     1      -1.372  12.547  20.316  0.00  0.00    +0.000 C 
ATOM     14  C   UNL     1      -0.851  11.610  19.215  0.00  0.00    +0.000 C 
ATOM     15  C   UNL     1      -1.595  11.813  17.901  0.00  0.00    +0.000 C 
ATOM     16  C   UNL     1      -0.961  10.155  19.698  0.00  0.00    +0.000 C 
ENDBRANCH   5   7
BRANCH   1  17
ATOM     17  S   UNL     1       3.844   5.092  19.464  0.00  0.00    +0.000 S 
ATOM     18  O   UNL     1       3.068   4.336  20.436  0.00  0.00    +0.000 OA
ATOM     19  O   UNL     1       5.210   5.463  19.768  0.00  0.00    +0.000 OA
BRANCH  17  20
ATOM     20  N   UNL     1       3.787   4.279  17.972  0.00  0.00    +0.000 N 
BRANCH  20  21
ATOM     21  C   UNL     1       4.862   4.455  17.039  0.00  0.00    +0.000 A 
ATOM     22  C   UNL     1       6.169   4.395  17.526  0.00  0.00    +0.000 A 
ATOM     23  C   UNL     1       7.258   4.544  16.666  0.00  0.00    +0.000 A 
ATOM     24  C   UNL     1       7.048   4.744  15.304  0.00  0.00    +0.000 A 
ATOM     25  C   UNL     1       5.745   4.790  14.803  0.00  0.00    +0.000 A 
ATOM     26  C   UNL     1       4.651   4.650  15.669  0.00  0.00    +0.000 A 
ENDBRANCH  20  21
BRANCH  20  27
ATOM     27  C   UNL     1       2.509   3.743  17.485  0.00  0.00    +0.000 C 
BRANCH  27  29
ATOM     28  C   UNL     1       3.403   1.535  18.352  0.00  0.00    +0.000 C 
ATOM     29  C   UNL     1       2.516   2.248  17.643  0.00  0.00    +0.000 C 
ENDBRANCH  27  29
ENDBRANCH  20  27
ENDBRANCH  17  20
ENDBRANCH   1  17
TORSDOF 6
ENDMDL
MODEL 7
REMARK VINA RESULT:      -8.4      1.409      2.247
REMARK  Name = 
REMARK  8 active torsions:
REMARK  status: ('A' for Active; 'I' for Inactive)
REMARK    1  A    between atoms: C_2  and  C_3
REMARK    2  A    between atoms: C_3  and  N_4
REMARK    3  A    between atoms: N_4  and  C_5
REMARK    4  A    between atoms: N_4  and  S_11
REMARK    5  A    between atoms: S_11  and  C_14
REMARK    6  A    between atoms: C_18  and  C_19
REMARK    7  A    between atoms: C_23  and  C_24
REMARK    8  A    between atoms: C_26  and  C_27
REMARK                            x       y       z     vdW  Elec       q    Type
REMARK                         _______ _______ _______ _____ _____    ______ ____
ROOT
ATOM      1  C   UNL     1       3.383   4.789  19.541  0.00  0.00    +0.000 A 
ATOM      2  C   UNL     1       2.566   4.291  20.561  0.00  0.00    +0.000 A 
ATOM      3  C   UNL     1       1.515   5.066  21.033  0.00  0.00    +0.000 A 
ATOM      4  C   UNL     1       1.291   6.327  20.483  0.00  0.00    +0.000 A 
ATOM      5  C   UNL     1       2.189   6.895  19.570  0.00  0.00    +0.000 A 
ATOM      6  C   UNL     1       3.248   6.109  19.093  0.00  0.00    +0.000 A 
ENDROOT
BRANCH   5   7
ATOM      7  C   UNL     1       1.966   8.255  18.983  0.00  0.00    +0.000 C 
ATOM      8  O   UNL     1       2.264   8.404  17.802  0.00  0.00    +0.000 OA
ATOM      9  N   UNL     1       1.383   9.275  19.745  0.00  0.00    +0.000 N 
ATOM     10  C   UNL     1       0.923  10.490  19.072  0.00  0.00    +0.000 C 
ATOM     11  C   UNL     1      -0.533  10.805  19.465  0.00  0.00    +0.000 C 
ATOM     12  C   UNL     1      -0.990  12.129  18.861  0.00  0.00    +0.000 C 
ATOM     13  C   UNL     1      -0.712  10.822  20.996  0.00  0.00    +0.000 C 
ATOM     14  C   UNL     1      -0.164   9.531  21.626  0.00  0.00    +0.000 C 
ATOM     15  C   UNL     1      -0.307   9.537  23.143  0.00  0.00    +0.000 C 
ATOM     16  C   UNL     1       1.302   9.348  21.205  0.00  0.00    +0.000 C 
ENDBRANCH   5   7
BRANCH   1  17
ATOM     17  S   UNL     1       4.650   3.747  18.861  0.00  0.00    +0.000 S 
ATOM     18  O   UNL     1       4.012   2.970  17.809  0.00  0.00    +0.000 OA
ATOM     19  O   UNL     1       5.283   3.067  19.972  0.00  0.00    +0.000 OA
BRANCH  17  20
ATOM     20  N   UNL     1       5.749   4.830  18.148  0.00  0.00    +0.000 N 
BRANCH  20  21
ATOM     21  C   UNL     1       5.825   4.909  16.718  0.00  0.00    +0.000 A 
ATOM     22  C   UNL     1       6.566   3.935  16.048  0.00  0.00    +0.000 A 
ATOM     23  C   UNL     1       6.667   3.949  14.655  0.00  0.00    +0.000 A 
ATOM     24  C   UNL     1       6.015   4.935  13.919  0.00  0.00    +0.000 A 
ATOM     25  C   UNL     1       5.258   5.905  14.579  0.00  0.00    +0.000 A 
ATOM     26  C   UNL     1       5.164   5.897  15.978  0.00  0.00    +0.000 A 
ENDBRANCH  20  21
BRANCH  20  27
ATOM     27  C   UNL     1       6.859   5.369  18.945  0.00  0.00    +0.000 C 
BRANCH  27  29
ATOM     28  C   UNL     1       8.223   7.478  18.601  0.00  0.00    +0.000 C 
ATOM     29  C   UNL     1       7.593   6.394  18.126  0.00  0.00    +0.000 C 
ENDBRANCH  27  29
ENDBRANCH  20  27
ENDBRANCH  17  20
ENDBRANCH   1  17
TORSDOF 6
ENDMDL
MODEL 8
REMARK VINA RESULT:      -8.4      2.893      8.768
REMARK  Name = 
REMARK  8 active torsions:
REMARK  status: ('A' for Active; 'I' for Inactive)
REMARK    1  A    between atoms: C_2  and  C_3
REMARK    2  A    between atoms: C_3  and  N_4
REMARK    3  A    between atoms: N_4  and  C_5
REMARK    4  A    between atoms: N_4  and  S_11
REMARK    5  A    between atoms: S_11  and  C_14
REMARK    6  A    between atoms: C_18  and  C_19
REMARK    7  A    between atoms: C_23  and  C_24
REMARK    8  A    between atoms: C_26  and  C_27
REMARK                            x       y       z     vdW  Elec       q    Type
REMARK                         _______ _______ _______ _____ _____    ______ ____
ROOT
ATOM      1  C   UNL     1       1.159   9.760  19.576  0.00  0.00    +0.000 A 
ATOM      2  C   UNL     1       1.603  10.154  18.309  0.00  0.00    +0.000 A 
ATOM      3  C   UNL     1       2.254   9.235  17.498  0.00  0.00    +0.000 A 
ATOM      4  C   UNL     1       2.457   7.936  17.958  0.00  0.00    +0.000 A 
ATOM      5  C   UNL     1       2.153   7.572  19.276  0.00  0.00    +0.000 A 
ATOM      6  C   UNL     1       1.492   8.501  20.093  0.00  0.00    +0.000 A 
ENDROOT
BRANCH   5   7
ATOM      7  C   UNL     1       2.380   6.182  19.786  0.00  0.00    +0.000 C 
ATOM      8  O   UNL     1       1.663   5.806  20.708  0.00  0.00    +0.000 OA
ATOM      9  N   UNL     1       3.324   5.344  19.180  0.00  0.00    +0.000 N 
ATOM     10  C   UNL     1       3.325   3.919  19.511  0.00  0.00    +0.000 C 
ATOM     11  C   UNL     1       3.303   3.069  18.226  0.00  0.00    +0.000 C 
ATOM     12  C   UNL     1       3.417   1.582  18.550  0.00  0.00    +0.000 C 
ATOM     13  C   UNL     1       4.418   3.494  17.250  0.00  0.00    +0.000 C 
ATOM     14  C   UNL     1       4.373   5.008  16.993  0.00  0.00    +0.000 C 
ATOM     15  C   UNL     1       5.484   5.455  16.051  0.00  0.00    +0.000 C 
ATOM     16  C   UNL     1       4.450   5.750  18.336  0.00  0.00    +0.000 C 
ENDBRANCH   5   7
BRANCH   1  17
ATOM     17  S   UNL     1       0.222  10.903  20.560  0.00  0.00    +0.000 S 
ATOM     18  O   UNL     1       1.198  11.720  21.266  0.00  0.00    +0.000 OA
ATOM     19  O   UNL     1      -0.741  10.125  21.311  0.00  0.00    +0.000 OA
BRANCH  17  20
ATOM     20  N   UNL     1      -0.584  11.876  19.424  0.00  0.00    +0.000 N 
BRANCH  20  21
ATOM     21  C   UNL     1      -1.826  11.421  18.870  0.00  0.00    +0.000 A 
ATOM     22  C   UNL     1      -2.993  12.089  19.245  0.00  0.00    +0.000 A 
ATOM     23  C   UNL     1      -4.232  11.703  18.729  0.00  0.00    +0.000 A 
ATOM     24  C   UNL     1      -4.312  10.650  17.822  0.00  0.00    +0.000 A 
ATOM     25  C   UNL     1      -3.148   9.985  17.428  0.00  0.00    +0.000 A 
ATOM     26  C   UNL     1      -1.905  10.366  17.953  0.00  0.00    +0.000 A 
ENDBRANCH  20  21
BRANCH  20  27
ATOM     27  C   UNL     1       0.150  12.944  18.731  0.00  0.00    +0.000 C 
BRANCH  27  29
ATOM     28  C   UNL     1       0.591  15.303  19.545  0.00  0.00    +0.000 C 
ATOM     29  C   UNL     1      -0.232  14.267  19.333  0.00  0.00    +0.000 C 
ENDBRANCH  27  29
ENDBRANCH  20  27
ENDBRANCH  17  20
ENDBRANCH   1  17
TORSDOF 6
ENDMDL
MODEL 9
REMARK VINA RESULT:      -8.4      1.682      2.819
REMARK  Name = 
REMARK  8 active torsions:
REMARK  status: ('A' for Active; 'I' for Inactive)
REMARK    1  A    between atoms: C_2  and  C_3
REMARK    2  A    between atoms: C_3  and  N_4
REMARK    3  A    between atoms: N_4  and  C_5
REMARK    4  A    between atoms: N_4  and  S_11
REMARK    5  A    between atoms: S_11  and  C_14
REMARK    6  A    between atoms: C_18  and  C_19
REMARK    7  A    between atoms: C_23  and  C_24
REMARK    8  A    between atoms: C_26  and  C_27
REMARK                            x       y       z     vdW  Elec       q    Type
REMARK                         _______ _______ _______ _____ _____    ______ ____
ROOT
ATOM      1  C   UNL     1       2.967   6.598  19.168  0.00  0.00    +0.000 A 
ATOM      2  C   UNL     1       2.999   7.203  17.907  0.00  0.00    +0.000 A 
ATOM      3  C   UNL     1       2.378   8.431  17.724  0.00  0.00    +0.000 A 
ATOM      4  C   UNL     1       1.734   9.042  18.798  0.00  0.00    +0.000 A 
ATOM      5  C   UNL     1       1.567   8.380  20.022  0.00  0.00    +0.000 A 
ATOM      6  C   UNL     1       2.198   7.141  20.206  0.00  0.00    +0.000 A 
ENDROOT
BRANCH   5   7
ATOM      7  C   UNL     1       0.865   9.021  21.179  0.00  0.00    +0.000 C 
ATOM      8  O   UNL     1       1.269   8.734  22.301  0.00  0.00    +0.000 OA
ATOM      9  N   UNL     1      -0.159   9.952  20.965  0.00  0.00    +0.000 N 
ATOM     10  C   UNL     1      -0.628  10.763  22.090  0.00  0.00    +0.000 C 
ATOM     11  C   UNL     1      -0.626  12.257  21.714  0.00  0.00    +0.000 C 
ATOM     12  C   UNL     1      -1.218  13.105  22.836  0.00  0.00    +0.000 C 
ATOM     13  C   UNL     1      -1.383  12.506  20.394  0.00  0.00    +0.000 C 
ATOM     14  C   UNL     1      -0.859  11.586  19.281  0.00  0.00    +0.000 C 
ATOM     15  C   UNL     1      -1.611  11.797  17.972  0.00  0.00    +0.000 C 
ATOM     16  C   UNL     1      -0.954  10.125  19.748  0.00  0.00    +0.000 C 
ENDBRANCH   5   7
BRANCH   1  17
ATOM     17  S   UNL     1       3.863   5.086  19.427  0.00  0.00    +0.000 S 
ATOM     18  O   UNL     1       3.094   4.324  20.399  0.00  0.00    +0.000 OA
ATOM     19  O   UNL     1       5.233   5.450  19.721  0.00  0.00    +0.000 OA
BRANCH  17  20
ATOM     20  N   UNL     1       3.787   4.290  17.928  0.00  0.00    +0.000 N 
BRANCH  20  21
ATOM     21  C   UNL     1       4.900   4.386  17.028  0.00  0.00    +0.000 A 
ATOM     22  C   UNL     1       4.632   4.447  15.660  0.00  0.00    +0.000 A 
ATOM     23  C   UNL     1       5.672   4.554  14.734  0.00  0.00    +0.000 A 
ATOM     24  C   UNL     1       6.992   4.614  15.172  0.00  0.00    +0.000 A 
ATOM     25  C   UNL     1       7.271   4.569  16.541  0.00  0.00    +0.000 A 
ATOM     26  C   UNL     1       6.227   4.451  17.470  0.00  0.00    +0.000 A 
ENDBRANCH  20  21
BRANCH  20  27
ATOM     27  C   UNL     1       2.486   3.860  17.397  0.00  0.00    +0.000 C 
BRANCH  27  29
ATOM     28  C   UNL     1       1.002   2.247  18.671  0.00  0.00    +0.000 C 
ATOM     29  C   UNL     1       2.129   2.531  18.003  0.00  0.00    +0.000 C 
ENDBRANCH  27  29
ENDBRANCH  20  27
ENDBRANCH  17  20
ENDBRANCH   1  17
TORSDOF 6
ENDMDL
