MODEL 1
REMARK VINA RESULT:      -6.4      0.000      0.000
REMARK  Name = 
REMARK  5 active torsions:
REMARK  status: ('A' for Active; 'I' for Inactive)
REMARK    1  A    between atoms: C_1  and  C_2
REMARK    2  A    between atoms: C_2  and  O_3
REMARK    3  A    between atoms: O_3  and  C_4
REMARK    4  A    between atoms: C_4  and  C_6
REMARK    5  A    between atoms: C_24  and  C_25
REMARK                            x       y       z     vdW  Elec       q    Type
REMARK                         _______ _______ _______ _____ _____    ______ ____
ROOT
ATOM      1  C   UNL     1      -2.632  13.435  22.563  0.00  0.00    +0.000 C 
ATOM      2  C   UNL     1      -3.053  13.126  21.103  0.00  0.00    +0.000 C 
ATOM      3  C   UNL     1      -2.310  12.153  20.219  0.00  0.00    +0.000 C 
ATOM      4  O   UNL     1      -2.890  12.149  18.904  0.00  0.00    +0.000 OA
ATOM      5  C   UNL     1      -4.260  12.059  18.854  0.00  0.00    +0.000 A 
ATOM      6  C   UNL     1      -4.790  11.671  17.626  0.00  0.00    +0.000 A 
ATOM      7  C   UNL     1      -6.162  11.432  17.502  0.00  0.00    +0.000 A 
ATOM      8  C   UNL     1      -6.990  11.560  18.611  0.00  0.00    +0.000 A 
ATOM      9  C   UNL     1      -6.457  11.980  19.830  0.00  0.00    +0.000 A 
ATOM     10  C   UNL     1      -5.099  12.303  19.952  0.00  0.00    +0.000 A 
ATOM     11  C   UNL     1      -4.485  12.667  21.261  0.00  0.00    +0.000 C 
ATOM     12  N   UNL     1      -4.942  13.723  22.157  0.00  0.00    +0.000 N 
ATOM     13  C   UNL     1      -6.263  14.126  22.279  0.00  0.00    +0.000 C 
ATOM     14  O   UNL     1      -6.988  14.439  21.343  0.00  0.00    +0.000 OA
ATOM     15  C   UNL     1      -6.703  14.266  23.727  0.00  0.00    +0.000 C 
ATOM     16  N   UNL     1      -6.074  13.174  24.479  0.00  0.00    +0.000 N 
ATOM     17  C   UNL     1      -4.740  12.797  24.276  0.00  0.00    +0.000 C 
ATOM     18  O   UNL     1      -4.281  11.805  24.823  0.00  0.00    +0.000 OA
ATOM     19  C   UNL     1      -3.973  13.750  23.307  0.00  0.00    +0.000 C 
ATOM     20  C   UNL     1      -3.796  15.099  24.039  0.00  0.00    +0.000 C 
ATOM     21  H   UNL     1      -6.651  12.544  25.022  0.00  0.00    +0.000 HD
ENDROOT
BRANCH   1  22
ATOM     22  C   UNL     1      -1.487  12.578  23.031  0.00  0.00    +0.000 C 
ATOM     23  O   UNL     1      -0.430  13.112  23.349  0.00  0.00    +0.000 OA
BRANCH  22  24
ATOM     24  O   UNL     1      -1.689  11.250  23.093  0.00  0.00    +0.000 OA
BRANCH  24  26
ATOM     25  C   UNL     1      -0.676   9.127  22.442  0.00  0.00    +0.000 C 
ATOM     26  C   UNL     1      -0.468  10.476  23.112  0.00  0.00    +0.000 C 
ENDBRANCH  24  26
ENDBRANCH  22  24
ENDBRANCH   1  22
TORSDOF 3
ENDMDL
MODEL 2
REMARK VINA RESULT:      -6.3      2.305      4.619
REMARK  Name = 
REMARK  5 active torsions:
REMARK  status: ('A' for Active; 'I' for Inactive)
REMARK    1  A    between atoms: C_1  and  C_2
REMARK    2  A    between atoms: C_2  and  O_3
REMARK    3  A    between atoms: O_3  and  C_4
REMARK    4  A    between atoms: C_4  and  C_6
REMARK    5  A    between atoms: C_24  and  C_25
REMARK                            x       y       z     vdW  Elec       q    Type
REMARK                         _______ _______ _______ _____ _____    ______ ____
ROOT
ATOM      1  C   UNL     1      -4.768  13.543  21.196  0.00  0.00    +0.000 C 
ATOM      2  C   UNL     1      -3.442  13.111  20.519  0.00  0.00    +0.000 C 
ATOM      3  C   UNL     1      -2.211  12.712  21.297  0.00  0.00    +0.000 C 
ATOM      4  O   UNL     1      -1.126  12.449  20.391  0.00  0.00    +0.000 OA
ATOM      5  C   UNL     1      -1.425  11.649  19.315  0.00  0.00    +0.000 A 
ATOM      6  C   UNL     1      -0.330  11.084  18.667  0.00  0.00    +0.000 A 
ATOM      7  C   UNL     1      -0.529  10.160  17.637  0.00  0.00    +0.000 A 
ATOM      8  C   UNL     1      -1.820   9.790  17.279  0.00  0.00    +0.000 A 
ATOM      9  C   UNL     1      -2.913  10.384  17.911  0.00  0.00    +0.000 A 
ATOM     10  C   UNL     1      -2.732  11.373  18.888  0.00  0.00    +0.000 A 
ATOM     11  C   UNL     1      -3.877  11.959  19.643  0.00  0.00    +0.000 C 
ATOM     12  N   UNL     1      -5.060  12.580  19.058  0.00  0.00    +0.000 N 
ATOM     13  C   UNL     1      -5.609  12.218  17.838  0.00  0.00    +0.000 C 
ATOM     14  O   UNL     1      -4.986  12.134  16.787  0.00  0.00    +0.000 OA
ATOM     15  C   UNL     1      -7.119  12.051  17.899  0.00  0.00    +0.000 C 
ATOM     16  N   UNL     1      -7.434  11.431  19.192  0.00  0.00    +0.000 N 
ATOM     17  C   UNL     1      -6.811  11.826  20.383  0.00  0.00    +0.000 C 
ATOM     18  O   UNL     1      -6.999  11.208  21.420  0.00  0.00    +0.000 OA
ATOM     19  C   UNL     1      -5.891  13.074  20.210  0.00  0.00    +0.000 C 
ATOM     20  C   UNL     1      -6.810  14.285  19.938  0.00  0.00    +0.000 C 
ATOM     21  H   UNL     1      -7.969  10.573  19.216  0.00  0.00    +0.000 HD
ENDROOT
BRANCH   1  22
ATOM     22  C   UNL     1      -4.728  13.407  22.693  0.00  0.00    +0.000 C 
ATOM     23  O   UNL     1      -4.823  12.292  23.196  0.00  0.00    +0.000 OA
BRANCH  22  24
ATOM     24  O   UNL     1      -4.570  14.529  23.416  0.00  0.00    +0.000 OA
BRANCH  24  26
ATOM     25  C   UNL     1      -6.926  15.038  23.806  0.00  0.00    +0.000 C 
ATOM     26  C   UNL     1      -5.612  15.510  23.204  0.00  0.00    +0.000 C 
ENDBRANCH  24  26
ENDBRANCH  22  24
ENDBRANCH   1  22
TORSDOF 3
ENDMDL
MODEL 3
REMARK VINA RESULT:      -6.3      2.321      4.238
REMARK  Name = 
REMARK  5 active torsions:
REMARK  status: ('A' for Active; 'I' for Inactive)
REMARK    1  A    between atoms: C_1  and  C_2
REMARK    2  A    between atoms: C_2  and  O_3
REMARK    3  A    between atoms: O_3  and  C_4
REMARK    4  A    between atoms: C_4  and  C_6
REMARK    5  A    between atoms: C_24  and  C_25
REMARK                            x       y       z     vdW  Elec       q    Type
REMARK                         _______ _______ _______ _____ _____    ______ ____
ROOT
ATOM      1  C   UNL     1      -4.707  13.563  21.238  0.00  0.00    +0.000 C 
ATOM      2  C   UNL     1      -3.421  13.090  20.512  0.00  0.00    +0.000 C 
ATOM      3  C   UNL     1      -2.180  12.637  21.244  0.00  0.00    +0.000 C 
ATOM      4  O   UNL     1      -1.137  12.344  20.299  0.00  0.00    +0.000 OA
ATOM      5  C   UNL     1      -1.502  11.569  19.226  0.00  0.00    +0.000 A 
ATOM      6  C   UNL     1      -0.451  10.971  18.535  0.00  0.00    +0.000 A 
ATOM      7  C   UNL     1      -0.719  10.067  17.503  0.00  0.00    +0.000 A 
ATOM      8  C   UNL     1      -2.034   9.749  17.185  0.00  0.00    +0.000 A 
ATOM      9  C   UNL     1      -3.082  10.376  17.860  0.00  0.00    +0.000 A 
ATOM     10  C   UNL     1      -2.832  11.346  18.840  0.00  0.00    +0.000 A 
ATOM     11  C   UNL     1      -3.928  11.965  19.640  0.00  0.00    +0.000 C 
ATOM     12  N   UNL     1      -5.106  12.636  19.102  0.00  0.00    +0.000 N 
ATOM     13  C   UNL     1      -5.709  12.309  17.898  0.00  0.00    +0.000 C 
ATOM     14  O   UNL     1      -5.125  12.214  16.826  0.00  0.00    +0.000 OA
ATOM     15  C   UNL     1      -7.221  12.197  18.009  0.00  0.00    +0.000 C 
ATOM     16  N   UNL     1      -7.516  11.575  19.305  0.00  0.00    +0.000 N 
ATOM     17  C   UNL     1      -6.838  11.932  20.478  0.00  0.00    +0.000 C 
ATOM     18  O   UNL     1      -7.014  11.310  21.515  0.00  0.00    +0.000 OA
ATOM     19  C   UNL     1      -5.878  13.148  20.287  0.00  0.00    +0.000 C 
ATOM     20  C   UNL     1      -6.761  14.394  20.059  0.00  0.00    +0.000 C 
ATOM     21  H   UNL     1      -8.082  10.736  19.339  0.00  0.00    +0.000 HD
ENDROOT
BRANCH   1  22
ATOM     22  C   UNL     1      -4.621  13.408  22.732  0.00  0.00    +0.000 C 
ATOM     23  O   UNL     1      -4.807  12.303  23.232  0.00  0.00    +0.000 OA
BRANCH  22  24
ATOM     24  O   UNL     1      -4.324  14.502  23.455  0.00  0.00    +0.000 OA
BRANCH  24  26
ATOM     25  C   UNL     1      -2.067  14.765  24.349  0.00  0.00    +0.000 C 
ATOM     26  C   UNL     1      -3.472  14.236  24.593  0.00  0.00    +0.000 C 
ENDBRANCH  24  26
ENDBRANCH  22  24
ENDBRANCH   1  22
TORSDOF 3
ENDMDL
MODEL 4
REMARK VINA RESULT:      -6.2      2.324      4.588
REMARK  Name = 
REMARK  5 active torsions:
REMARK  status: ('A' for Active; 'I' for Inactive)
REMARK    1  A    between atoms: C_1  and  C_2
REMARK    2  A    between atoms: C_2  and  O_3
REMARK    3  A    between atoms: O_3  and  C_4
REMARK    4  A    between atoms: C_4  and  C_6
REMARK    5  A    between atoms: C_24  and  C_25
REMARK                            x       y       z     vdW  Elec       q    Type
REMARK                         _______ _______ _______ _____ _____    ______ ____
ROOT
ATOM      1  C   UNL     1      -1.778  11.727  20.887  0.00  0.00    +0.000 C 
ATOM      2  C   UNL     1      -3.285  11.974  21.160  0.00  0.00    +0.000 C 
ATOM      3  C   UNL     1      -3.786  12.835  22.295  0.00  0.00    +0.000 C 
ATOM      4  O   UNL     1      -5.223  12.799  22.336  0.00  0.00    +0.000 OA
ATOM      5  C   UNL     1      -5.860  12.982  21.133  0.00  0.00    +0.000 A 
ATOM      6  C   UNL     1      -7.206  13.330  21.216  0.00  0.00    +0.000 A 
ATOM      7  C   UNL     1      -7.916  13.657  20.057  0.00  0.00    +0.000 A 
ATOM      8  C   UNL     1      -7.270  13.657  18.826  0.00  0.00    +0.000 A 
ATOM      9  C   UNL     1      -5.930  13.276  18.747  0.00  0.00    +0.000 A 
ATOM     10  C   UNL     1      -5.226  12.866  19.887  0.00  0.00    +0.000 A 
ATOM     11  C   UNL     1      -3.771  12.541  19.846  0.00  0.00    +0.000 C 
ATOM     12  N   UNL     1      -3.134  11.577  18.957  0.00  0.00    +0.000 N 
ATOM     13  C   UNL     1      -3.583  11.276  17.680  0.00  0.00    +0.000 C 
ATOM     14  O   UNL     1      -4.732  10.958  17.401  0.00  0.00    +0.000 OA
ATOM     15  C   UNL     1      -2.464  11.258  16.652  0.00  0.00    +0.000 C 
ATOM     16  N   UNL     1      -1.542  12.347  16.995  0.00  0.00    +0.000 N 
ATOM     17  C   UNL     1      -1.159  12.615  18.316  0.00  0.00    +0.000 C 
ATOM     18  O   UNL     1      -0.493  13.605  18.584  0.00  0.00    +0.000 OA
ATOM     19  C   UNL     1      -1.678  11.553  19.334  0.00  0.00    +0.000 C 
ATOM     20  C   UNL     1      -0.908  10.243  19.059  0.00  0.00    +0.000 C 
ATOM     21  H   UNL     1      -1.317  13.048  16.301  0.00  0.00    +0.000 HD
ENDROOT
BRANCH   1  22
ATOM     22  C   UNL     1      -0.884  12.527  21.793  0.00  0.00    +0.000 C 
ATOM     23  O   UNL     1      -0.777  13.736  21.615  0.00  0.00    +0.000 OA
BRANCH  22  24
ATOM     24  O   UNL     1      -0.250  11.870  22.780  0.00  0.00    +0.000 OA
BRANCH  24  26
ATOM     25  C   UNL     1       0.140   9.487  23.142  0.00  0.00    +0.000 C 
ATOM     26  C   UNL     1      -0.876  10.618  23.142  0.00  0.00    +0.000 C 
ENDBRANCH  24  26
ENDBRANCH  22  24
ENDBRANCH   1  22
TORSDOF 3
ENDMDL
MODEL 5
REMARK VINA RESULT:      -6.1      2.169      3.812
REMARK  Name = 
REMARK  5 active torsions:
REMARK  status: ('A' for Active; 'I' for Inactive)
REMARK    1  A    between atoms: C_1  and  C_2
REMARK    2  A    between atoms: C_2  and  O_3
REMARK    3  A    between atoms: O_3  and  C_4
REMARK    4  A    between atoms: C_4  and  C_6
REMARK    5  A    between atoms: C_24  and  C_25
REMARK                            x       y       z     vdW  Elec       q    Type
REMARK                         _______ _______ _______ _____ _____    ______ ____
ROOT
ATOM      1  C   UNL     1      -4.237  13.695  21.583  0.00  0.00    +0.000 C 
ATOM      2  C   UNL     1      -3.265  13.079  20.544  0.00  0.00    +0.000 C 
ATOM      3  C   UNL     1      -2.010  12.333  20.931  0.00  0.00    +0.000 C 
ATOM      4  O   UNL     1      -1.281  11.961  19.749  0.00  0.00    +0.000 OA
ATOM      5  C   UNL     1      -2.021  11.385  18.746  0.00  0.00    +0.000 A 
ATOM      6  C   UNL     1      -1.290  10.685  17.789  0.00  0.00    +0.000 A 
ATOM      7  C   UNL     1      -1.954   9.962  16.794  0.00  0.00    +0.000 A 
ATOM      8  C   UNL     1      -3.343   9.923  16.777  0.00  0.00    +0.000 A 
ATOM      9  C   UNL     1      -4.069  10.652  17.720  0.00  0.00    +0.000 A 
ATOM     10  C   UNL     1      -3.420  11.449  18.672  0.00  0.00    +0.000 A 
ATOM     11  C   UNL     1      -4.167  12.165  19.746  0.00  0.00    +0.000 C 
ATOM     12  N   UNL     1      -5.275  13.092  19.547  0.00  0.00    +0.000 N 
ATOM     13  C   UNL     1      -6.181  13.012  18.501  0.00  0.00    +0.000 C 
ATOM     14  O   UNL     1      -5.878  12.929  17.318  0.00  0.00    +0.000 OA
ATOM     15  C   UNL     1      -7.623  13.164  18.960  0.00  0.00    +0.000 C 
ATOM     16  N   UNL     1      -7.744  12.468  20.246  0.00  0.00    +0.000 N 
ATOM     17  C   UNL     1      -6.767  12.568  21.246  0.00  0.00    +0.000 C 
ATOM     18  O   UNL     1      -6.832  11.879  22.253  0.00  0.00    +0.000 OA
ATOM     19  C   UNL     1      -5.649  13.604  20.911  0.00  0.00    +0.000 C 
ATOM     20  C   UNL     1      -6.291  15.006  20.979  0.00  0.00    +0.000 C 
ATOM     21  H   UNL     1      -8.444  11.746  20.360  0.00  0.00    +0.000 HD
ENDROOT
BRANCH   1  22
ATOM     22  C   UNL     1      -3.858  13.366  23.000  0.00  0.00    +0.000 C 
ATOM     23  O   UNL     1      -4.162  12.272  23.464  0.00  0.00    +0.000 OA
BRANCH  22  24
ATOM     24  O   UNL     1      -3.181  14.297  23.695  0.00  0.00    +0.000 OA
BRANCH  24  26
ATOM     25  C   UNL     1      -4.654  16.089  24.457  0.00  0.00    +0.000 C 
ATOM     26  C   UNL     1      -3.617  15.651  23.434  0.00  0.00    +0.000 C 
ENDBRANCH  24  26
ENDBRANCH  22  24
ENDBRANCH   1  22
TORSDOF 3
ENDMDL
MODEL 6
REMARK VINA RESULT:      -6.1      2.985      4.240
REMARK  Name = 
REMARK  5 active torsions:
REMARK  status: ('A' for Active; 'I' for Inactive)
REMARK    1  A    between atoms: C_1  and  C_2
REMARK    2  A    between atoms: C_2  and  O_3
REMARK    3  A    between atoms: O_3  and  C_4
REMARK    4  A    between atoms: C_4  and  C_6
REMARK    5  A    between atoms: C_24  and  C_25
REMARK                            x       y       z     vdW  Elec       q    Type
REMARK                         _______ _______ _______ _____ _____    ______ ____
ROOT
ATOM      1  C   UNL     1       0.255  11.512  19.439  0.00  0.00    +0.000 C 
ATOM      2  C   UNL     1      -1.041  11.572  18.589  0.00  0.00    +0.000 C 
ATOM      3  C   UNL     1      -1.518  10.425  17.731  0.00  0.00    +0.000 C 
ATOM      4  O   UNL     1      -2.695  10.817  17.005  0.00  0.00    +0.000 OA
ATOM      5  C   UNL     1      -3.670  11.446  17.740  0.00  0.00    +0.000 A 
ATOM      6  C   UNL     1      -4.934  11.478  17.155  0.00  0.00    +0.000 A 
ATOM      7  C   UNL     1      -6.022  11.987  17.870  0.00  0.00    +0.000 A 
ATOM      8  C   UNL     1      -5.844  12.438  19.173  0.00  0.00    +0.000 A 
ATOM      9  C   UNL     1      -4.569  12.433  19.741  0.00  0.00    +0.000 A 
ATOM     10  C   UNL     1      -3.454  12.004  19.009  0.00  0.00    +0.000 A 
ATOM     11  C   UNL     1      -2.097  11.903  19.619  0.00  0.00    +0.000 C 
ATOM     12  N   UNL     1      -1.386  12.974  20.308  0.00  0.00    +0.000 N 
ATOM     13  C   UNL     1      -2.004  13.987  21.024  0.00  0.00    +0.000 C 
ATOM     14  O   UNL     1      -2.906  14.696  20.596  0.00  0.00    +0.000 OA
ATOM     15  C   UNL     1      -1.361  14.225  22.381  0.00  0.00    +0.000 C 
ATOM     16  N   UNL     1      -0.982  12.912  22.917  0.00  0.00    +0.000 N 
ATOM     17  C   UNL     1      -0.392  11.920  22.122  0.00  0.00    +0.000 C 
ATOM     18  O   UNL     1      -0.205  10.796  22.563  0.00  0.00    +0.000 OA
ATOM     19  C   UNL     1      -0.041  12.414  20.684  0.00  0.00    +0.000 C 
ATOM     20  C   UNL     1       1.121  13.422  20.818  0.00  0.00    +0.000 C 
ATOM     21  H   UNL     1      -1.319  12.629  23.828  0.00  0.00    +0.000 HD
ENDROOT
BRANCH   1  22
ATOM     22  C   UNL     1       0.909  10.158  19.406  0.00  0.00    +0.000 C 
ATOM     23  O   UNL     1       0.499   9.275  20.153  0.00  0.00    +0.000 OA
BRANCH  22  24
ATOM     24  O   UNL     1       1.916   9.975  18.534  0.00  0.00    +0.000 OA
BRANCH  24  26
ATOM     25  C   UNL     1       2.870   7.795  17.987  0.00  0.00    +0.000 C 
ATOM     26  C   UNL     1       1.763   8.799  17.706  0.00  0.00    +0.000 C 
ENDBRANCH  24  26
ENDBRANCH  22  24
ENDBRANCH   1  22
TORSDOF 3
ENDMDL
MODEL 7
REMARK VINA RESULT:      -6.1      1.524      1.945
REMARK  Name = 
REMARK  5 active torsions:
REMARK  status: ('A' for Active; 'I' for Inactive)
REMARK    1  A    between atoms: C_1  and  C_2
REMARK    2  A    between atoms: C_2  and  O_3
REMARK    3  A    between atoms: O_3  and  C_4
REMARK    4  A    between atoms: C_4  and  C_6
REMARK    5  A    between atoms: C_24  and  C_25
REMARK                            x       y       z     vdW  Elec       q    Type
REMARK                         _______ _______ _______ _____ _____    ______ ____
ROOT
ATOM      1  C   UNL     1      -1.658  13.649  21.576  0.00  0.00    +0.000 C 
ATOM      2  C   UNL     1      -1.720  13.182  20.099  0.00  0.00    +0.000 C 
ATOM      3  C   UNL     1      -0.637  12.352  19.451  0.00  0.00    +0.000 C 
ATOM      4  O   UNL     1      -0.942  12.154  18.060  0.00  0.00    +0.000 OA
ATOM      5  C   UNL     1      -2.228  11.763  17.780  0.00  0.00    +0.000 A 
ATOM      6  C   UNL     1      -2.423  11.206  16.518  0.00  0.00    +0.000 A 
ATOM      7  C   UNL     1      -3.666  10.666  16.177  0.00  0.00    +0.000 A 
ATOM      8  C   UNL     1      -4.699  10.665  17.107  0.00  0.00    +0.000 A 
ATOM      9  C   UNL     1      -4.507  11.253  18.358  0.00  0.00    +0.000 A 
ATOM     10  C   UNL     1      -3.293  11.873  18.686  0.00  0.00    +0.000 A 
ATOM     11  C   UNL     1      -3.029  12.429  20.044  0.00  0.00    +0.000 C 
ATOM     12  N   UNL     1      -3.857  13.403  20.746  0.00  0.00    +0.000 N 
ATOM     13  C   UNL     1      -5.231  13.512  20.597  0.00  0.00    +0.000 C 
ATOM     14  O   UNL     1      -5.812  13.611  19.524  0.00  0.00    +0.000 OA
ATOM     15  C   UNL     1      -5.959  13.626  21.927  0.00  0.00    +0.000 C 
ATOM     16  N   UNL     1      -5.274  12.738  22.873  0.00  0.00    +0.000 N 
ATOM     17  C   UNL     1      -3.877  12.653  22.943  0.00  0.00    +0.000 C 
ATOM     18  O   UNL     1      -3.337  11.815  23.650  0.00  0.00    +0.000 OA
ATOM     19  C   UNL     1      -3.153  13.701  22.041  0.00  0.00    +0.000 C 
ATOM     20  C   UNL     1      -3.400  15.091  22.667  0.00  0.00    +0.000 C 
ATOM     21  H   UNL     1      -5.802  12.025  23.362  0.00  0.00    +0.000 HD
ENDROOT
BRANCH   1  22
ATOM     22  C   UNL     1      -0.473  13.090  22.314  0.00  0.00    +0.000 C 
ATOM     23  O   UNL     1       0.600  13.684  22.264  0.00  0.00    +0.000 OA
BRANCH  22  24
ATOM     24  O   UNL     1      -0.655  11.958  23.015  0.00  0.00    +0.000 OA
BRANCH  24  26
ATOM     25  C   UNL     1      -0.275   9.557  23.250  0.00  0.00    +0.000 C 
ATOM     26  C   UNL     1      -0.182  10.771  22.338  0.00  0.00    +0.000 C 
ENDBRANCH  24  26
ENDBRANCH  22  24
ENDBRANCH   1  22
TORSDOF 3
ENDMDL
MODEL 8
REMARK VINA RESULT:      -6.0      2.469      4.995
REMARK  Name = 
REMARK  5 active torsions:
REMARK  status: ('A' for Active; 'I' for Inactive)
REMARK    1  A    between atoms: C_1  and  C_2
REMARK    2  A    between atoms: C_2  and  O_3
REMARK    3  A    between atoms: O_3  and  C_4
REMARK    4  A    between atoms: C_4  and  C_6
REMARK    5  A    between atoms: C_24  and  C_25
REMARK                            x       y       z     vdW  Elec       q    Type
REMARK                         _______ _______ _______ _____ _____    ______ ____
ROOT
ATOM      1  C   UNL     1      -0.598  11.016  20.774  0.00  0.00    +0.000 C 
ATOM      2  C   UNL     1      -1.835  11.461  21.597  0.00  0.00    +0.000 C 
ATOM      3  C   UNL     1      -1.731  12.126  22.948  0.00  0.00    +0.000 C 
ATOM      4  O   UNL     1      -3.045  12.338  23.490  0.00  0.00    +0.000 OA
ATOM      5  C   UNL     1      -3.964  12.892  22.632  0.00  0.00    +0.000 A 
ATOM      6  C   UNL     1      -5.089  13.446  23.237  0.00  0.00    +0.000 A 
ATOM      7  C   UNL     1      -6.026  14.141  22.466  0.00  0.00    +0.000 A 
ATOM      8  C   UNL     1      -5.819  14.297  21.100  0.00  0.00    +0.000 A 
ATOM      9  C   UNL     1      -4.706  13.711  20.496  0.00  0.00    +0.000 A 
ATOM     10  C   UNL     1      -3.801  12.941  21.240  0.00  0.00    +0.000 A 
ATOM     11  C   UNL     1      -2.557  12.381  20.639  0.00  0.00    +0.000 C 
ATOM     12  N   UNL     1      -2.485  11.538  19.450  0.00  0.00    +0.000 N 
ATOM     13  C   UNL     1      -3.371  11.611  18.387  0.00  0.00    +0.000 C 
ATOM     14  O   UNL     1      -4.590  11.571  18.489  0.00  0.00    +0.000 OA
ATOM     15  C   UNL     1      -2.671  11.620  17.037  0.00  0.00    +0.000 C 
ATOM     16  N   UNL     1      -1.453  12.426  17.187  0.00  0.00    +0.000 N 
ATOM     17  C   UNL     1      -0.621  12.324  18.310  0.00  0.00    +0.000 C 
ATOM     18  O   UNL     1       0.314  13.096  18.466  0.00  0.00    +0.000 OA
ATOM     19  C   UNL     1      -1.036  11.173  19.279  0.00  0.00    +0.000 C 
ATOM     20  C   UNL     1      -0.732   9.841  18.560  0.00  0.00    +0.000 C 
ATOM     21  H   UNL     1      -1.295  13.211  16.568  0.00  0.00    +0.000 HD
ENDROOT
BRANCH   1  22
ATOM     22  C   UNL     1       0.701  11.426  21.411  0.00  0.00    +0.000 C 
ATOM     23  O   UNL     1       1.024  12.609  21.409  0.00  0.00    +0.000 OA
BRANCH  22  24
ATOM     24  O   UNL     1       1.449  10.460  21.974  0.00  0.00    +0.000 OA
BRANCH  24  26
ATOM     25  C   UNL     1       1.472   8.158  21.163  0.00  0.00    +0.000 C 
ATOM     26  C   UNL     1       0.783   9.179  22.054  0.00  0.00    +0.000 C 
ENDBRANCH  24  26
ENDBRANCH  22  24
ENDBRANCH   1  22
TORSDOF 3
ENDMDL
MODEL 9
REMARK VINA RESULT:      -6.0      3.649      6.623
REMARK  Name = 
REMARK  5 active torsions:
REMARK  status: ('A' for Active; 'I' for Inactive)
REMARK    1  A    between atoms: C_1  and  C_2
REMARK    2  A    between atoms: C_2  and  O_3
REMARK    3  A    between atoms: O_3  and  C_4
REMARK    4  A    between atoms: C_4  and  C_6
REMARK    5  A    between atoms: C_24  and  C_25
REMARK                            x       y       z     vdW  Elec       q    Type
REMARK                         _______ _______ _______ _____ _____    ______ ____
ROOT
ATOM      1  C   UNL     1      -0.320  11.761  21.944  0.00  0.00    +0.000 C 
ATOM      2  C   UNL     1       0.527  10.519  21.565  0.00  0.00    +0.000 C 
ATOM      3  C   UNL     1       0.186   9.119  22.018  0.00  0.00    +0.000 C 
ATOM      4  O   UNL     1       1.203   8.203  21.578  0.00  0.00    +0.000 OA
ATOM      5  C   UNL     1       1.584   8.319  20.264  0.00  0.00    +0.000 A 
ATOM      6  C   UNL     1       2.260   7.220  19.738  0.00  0.00    +0.000 A 
ATOM      7  C   UNL     1       2.584   7.185  18.379  0.00  0.00    +0.000 A 
ATOM      8  C   UNL     1       2.211   8.238  17.550  0.00  0.00    +0.000 A 
ATOM      9  C   UNL     1       1.563   9.349  18.090  0.00  0.00    +0.000 A 
ATOM     10  C   UNL     1       1.304   9.437  19.465  0.00  0.00    +0.000 A 
ATOM     11  C   UNL     1       0.534  10.570  20.055  0.00  0.00    +0.000 C 
ATOM     12  N   UNL     1       0.840  11.987  19.897  0.00  0.00    +0.000 N 
ATOM     13  C   UNL     1       1.444  12.536  18.777  0.00  0.00    +0.000 C 
ATOM     14  O   UNL     1       2.484  12.131  18.274  0.00  0.00    +0.000 OA
ATOM     15  C   UNL     1       0.745  13.795  18.290  0.00  0.00    +0.000 C 
ATOM     16  N   UNL     1      -0.698  13.584  18.462  0.00  0.00    +0.000 N 
ATOM     17  C   UNL     1      -1.235  12.988  19.611  0.00  0.00    +0.000 C 
ATOM     18  O   UNL     1      -2.423  12.710  19.673  0.00  0.00    +0.000 OA
ATOM     19  C   UNL     1      -0.171  12.732  20.724  0.00  0.00    +0.000 C 
ATOM     20  C   UNL     1       0.255  14.111  21.273  0.00  0.00    +0.000 C 
ATOM     21  H   UNL     1      -1.316  13.690  17.668  0.00  0.00    +0.000 HD
ENDROOT
BRANCH   1  22
ATOM     22  C   UNL     1      -1.569  11.404  22.702  0.00  0.00    +0.000 C 
ATOM     23  O   UNL     1      -1.539  10.476  23.504  0.00  0.00    +0.000 OA
BRANCH  22  24
ATOM     24  O   UNL     1      -2.669  12.141  22.471  0.00  0.00    +0.000 OA
BRANCH  24  26
ATOM     25  C   UNL     1      -2.607  14.224  23.743  0.00  0.00    +0.000 C 
ATOM     26  C   UNL     1      -3.175  12.817  23.645  0.00  0.00    +0.000 C 
ENDBRANCH  24  26
ENDBRANCH  22  24
ENDBRANCH   1  22
TORSDOF 3
ENDMDL
