MODEL 1
REMARK VINA RESULT:      -9.2      0.000      0.000
REMARK  Name = 
REMARK  6 active torsions:
REMARK  status: ('A' for Active; 'I' for Inactive)
REMARK    1  A    between atoms: C_1  and  C_2
REMARK    2  A    between atoms: C_5  and  N_6
REMARK    3  A    between atoms: C_7  and  C_9
REMARK    4  A    between atoms: C_9  and  N_10
REMARK    5  A    between atoms: C_14  and  C_15
REMARK    6  A    between atoms: C_17  and  C_18
REMARK                            x       y       z     vdW  Elec       q    Type
REMARK                         _______ _______ _______ _____ _____    ______ ____
ROOT
ATOM      1  N   UNL     1       6.914   5.792  17.471  0.00  0.00    +0.000 NA
ATOM      2  C   UNL     1       7.426   4.704  16.668  0.00  0.00    +0.000 C 
ATOM      3  C   UNL     1       7.052   5.066  15.243  0.00  0.00    +0.000 C 
ATOM      4  C   UNL     1       5.754   5.840  15.393  0.00  0.00    +0.000 C 
ATOM      5  C   UNL     1       5.850   6.505  16.778  0.00  0.00    +0.000 C 
ENDROOT
BRANCH   5   6
ATOM      6  C   UNL     1       4.580   6.282  17.539  0.00  0.00    +0.000 A 
ATOM      7  N   UNL     1       4.253   5.184  18.193  0.00  0.00    +0.000 NA
ATOM      8  C   UNL     1       3.047   5.447  18.786  0.00  0.00    +0.000 A 
ATOM      9  C   UNL     1       2.621   6.713  18.461  0.00  0.00    +0.000 A 
ATOM     10  N   UNL     1       3.604   7.239  17.677  0.00  0.00    +0.000 N 
ATOM     11  H   UNL     1       3.624   8.169  17.283  0.00  0.00    +0.000 HD
BRANCH   8  12
ATOM     12  C   UNL     1       2.357   4.497  19.626  0.00  0.00    +0.000 A 
ATOM     13  C   UNL     1       2.710   4.368  20.979  0.00  0.00    +0.000 A 
ATOM     14  C   UNL     1       2.042   3.453  21.796  0.00  0.00    +0.000 A 
ATOM     15  C   UNL     1       1.013   2.669  21.274  0.00  0.00    +0.000 A 
ATOM     16  C   UNL     1       0.652   2.799  19.934  0.00  0.00    +0.000 A 
ATOM     17  C   UNL     1       1.322   3.704  19.122  0.00  0.00    +0.000 A 
ATOM     18  F   UNL     1       0.948   3.797  17.835  0.00  0.00    +0.000 F 
ENDBRANCH   8  12
ENDBRANCH   5   6
BRANCH   1  19
ATOM     19  C   UNL     1       7.746   6.473  18.439  0.00  0.00    +0.000 C 
BRANCH  19  21
ATOM     20  N   UNL     1       8.676   8.727  19.016  0.00  0.00    +0.000 N 
ATOM     21  C   UNL     1       8.125   7.917  18.012  0.00  0.00    +0.000 C 
ATOM     22  O   UNL     1       7.884   8.256  16.864  0.00  0.00    +0.000 OA
ATOM     23  H   UNL     1       8.811   8.299  19.928  0.00  0.00    +0.000 HD
BRANCH  20  28
ATOM     24  C   UNL     1      10.338  14.229  18.479  0.00  0.00    +0.000 C 
ATOM     25  C   UNL     1       9.888  12.804  18.567  0.00  0.00    +0.000 A 
ATOM     26  C   UNL     1       8.876  12.273  17.755  0.00  0.00    +0.000 A 
ATOM     27  C   UNL     1       8.482  10.931  17.895  0.00  0.00    +0.000 A 
ATOM     28  C   UNL     1       9.074  10.085  18.837  0.00  0.00    +0.000 A 
ATOM     29  C   UNL     1      10.092  10.626  19.635  0.00  0.00    +0.000 A 
ATOM     30  C   UNL     1      10.488  11.967  19.498  0.00  0.00    +0.000 A 
ENDBRANCH  20  28
ENDBRANCH  19  21
ENDBRANCH   1  19
TORSDOF 5
ENDMDL
MODEL 2
REMARK VINA RESULT:      -9.0      4.903      7.626
REMARK  Name = 
REMARK  6 active torsions:
REMARK  status: ('A' for Active; 'I' for Inactive)
REMARK    1  A    between atoms: C_1  and  C_2
REMARK    2  A    between atoms: C_5  and  N_6
REMARK    3  A    between atoms: C_7  and  C_9
REMARK    4  A    between atoms: C_9  and  N_10
REMARK    5  A    between atoms: C_14  and  C_15
REMARK    6  A    between atoms: C_17  and  C_18
REMARK                            x       y       z     vdW  Elec       q    Type
REMARK                         _______ _______ _______ _____ _____    ______ ____
ROOT
ATOM      1  N   UNL     1       2.766   4.180  19.182  0.00  0.00    +0.000 NA
ATOM      2  C   UNL     1       1.530   3.448  19.017  0.00  0.00    +0.000 C 
ATOM      3  C   UNL     1       1.951   1.992  18.940  0.00  0.00    +0.000 C 
ATOM      4  C   UNL     1       3.323   2.044  18.292  0.00  0.00    +0.000 C 
ATOM      5  C   UNL     1       3.907   3.406  18.712  0.00  0.00    +0.000 C 
ENDROOT
BRANCH   5   6
ATOM      6  C   UNL     1       4.475   4.107  17.518  0.00  0.00    +0.000 A 
ATOM      7  N   UNL     1       4.997   3.524  16.456  0.00  0.00    +0.000 NA
ATOM      8  C   UNL     1       5.325   4.538  15.596  0.00  0.00    +0.000 A 
ATOM      9  C   UNL     1       5.027   5.756  16.159  0.00  0.00    +0.000 A 
ATOM     10  N   UNL     1       4.479   5.472  17.375  0.00  0.00    +0.000 N 
ATOM     11  H   UNL     1       4.123   6.141  18.043  0.00  0.00    +0.000 HD
BRANCH   8  12
ATOM     12  C   UNL     1       5.902   4.312  14.293  0.00  0.00    +0.000 A 
ATOM     13  C   UNL     1       5.227   3.519  13.352  0.00  0.00    +0.000 A 
ATOM     14  C   UNL     1       5.779   3.301  12.088  0.00  0.00    +0.000 A 
ATOM     15  C   UNL     1       7.003   3.880  11.750  0.00  0.00    +0.000 A 
ATOM     16  C   UNL     1       7.675   4.675  12.676  0.00  0.00    +0.000 A 
ATOM     17  C   UNL     1       7.126   4.885  13.934  0.00  0.00    +0.000 A 
ATOM     18  F   UNL     1       7.805   5.655  14.800  0.00  0.00    +0.000 F 
ENDBRANCH   8  12
ENDBRANCH   5   6
BRANCH   1  19
ATOM     19  C   UNL     1       2.927   5.163  20.230  0.00  0.00    +0.000 C 
BRANCH  19  21
ATOM     20  N   UNL     1       1.741   7.231  21.004  0.00  0.00    +0.000 N 
ATOM     21  C   UNL     1       2.249   6.522  19.906  0.00  0.00    +0.000 C 
ATOM     22  O   UNL     1       2.169   6.856  18.733  0.00  0.00    +0.000 OA
ATOM     23  H   UNL     1       1.882   6.818  21.922  0.00  0.00    +0.000 HD
BRANCH  20  28
ATOM     24  C   UNL     1      -1.119  12.241  20.786  0.00  0.00    +0.000 C 
ATOM     25  C   UNL     1      -0.343  10.960  20.805  0.00  0.00    +0.000 A 
ATOM     26  C   UNL     1       0.442  10.530  19.726  0.00  0.00    +0.000 A 
ATOM     27  C   UNL     1       1.135   9.309  19.793  0.00  0.00    +0.000 A 
ATOM     28  C   UNL     1       1.068   8.486  20.920  0.00  0.00    +0.000 A 
ATOM     29  C   UNL     1       0.287   8.933  21.996  0.00  0.00    +0.000 A 
ATOM     30  C   UNL     1      -0.407  10.153  21.932  0.00  0.00    +0.000 A 
ENDBRANCH  20  28
ENDBRANCH  19  21
ENDBRANCH   1  19
TORSDOF 5
ENDMDL
MODEL 3
REMARK VINA RESULT:      -8.9      0.961      1.323
REMARK  Name = 
REMARK  6 active torsions:
REMARK  status: ('A' for Active; 'I' for Inactive)
REMARK    1  A    between atoms: C_1  and  C_2
REMARK    2  A    between atoms: C_5  and  N_6
REMARK    3  A    between atoms: C_7  and  C_9
REMARK    4  A    between atoms: C_9  and  N_10
REMARK    5  A    between atoms: C_14  and  C_15
REMARK    6  A    between atoms: C_17  and  C_18
REMARK                            x       y       z     vdW  Elec       q    Type
REMARK                         _______ _______ _______ _____ _____    ______ ____
ROOT
ATOM      1  N   UNL     1       6.926   5.750  17.379  0.00  0.00    +0.000 NA
ATOM      2  C   UNL     1       7.453   4.672  16.572  0.00  0.00    +0.000 C 
ATOM      3  C   UNL     1       7.180   5.092  15.140  0.00  0.00    +0.000 C 
ATOM      4  C   UNL     1       5.900   5.903  15.237  0.00  0.00    +0.000 C 
ATOM      5  C   UNL     1       5.929   6.520  16.647  0.00  0.00    +0.000 C 
ENDROOT
BRANCH   5   6
ATOM      6  C   UNL     1       4.608   6.315  17.320  0.00  0.00    +0.000 A 
ATOM      7  N   UNL     1       4.127   5.162  17.743  0.00  0.00    +0.000 NA
ATOM      8  C   UNL     1       2.934   5.454  18.347  0.00  0.00    +0.000 A 
ATOM      9  C   UNL     1       2.672   6.800  18.262  0.00  0.00    +0.000 A 
ATOM     10  N   UNL     1       3.744   7.341  17.617  0.00  0.00    +0.000 N 
ATOM     11  H   UNL     1       3.890   8.318  17.409  0.00  0.00    +0.000 HD
BRANCH   8  12
ATOM     12  C   UNL     1       2.100   4.455  18.972  0.00  0.00    +0.000 A 
ATOM     13  C   UNL     1       1.471   3.474  18.190  0.00  0.00    +0.000 A 
ATOM     14  C   UNL     1       0.667   2.503  18.791  0.00  0.00    +0.000 A 
ATOM     15  C   UNL     1       0.493   2.496  20.175  0.00  0.00    +0.000 A 
ATOM     16  C   UNL     1       1.122   3.462  20.959  0.00  0.00    +0.000 A 
ATOM     17  C   UNL     1       1.915   4.430  20.358  0.00  0.00    +0.000 A 
ATOM     18  F   UNL     1       2.502   5.346  21.147  0.00  0.00    +0.000 F 
ENDBRANCH   8  12
ENDBRANCH   5   6
BRANCH   1  19
ATOM     19  C   UNL     1       7.717   6.372  18.418  0.00  0.00    +0.000 C 
BRANCH  19  21
ATOM     20  N   UNL     1       8.761   8.536  19.130  0.00  0.00    +0.000 N 
ATOM     21  C   UNL     1       8.043   7.862  18.131  0.00  0.00    +0.000 C 
ATOM     22  O   UNL     1       7.624   8.350  17.092  0.00  0.00    +0.000 OA
ATOM     23  H   UNL     1       9.036   7.991  19.943  0.00  0.00    +0.000 HD
BRANCH  20  28
ATOM     24  C   UNL     1      10.225  14.119  19.060  0.00  0.00    +0.000 C 
ATOM     25  C   UNL     1       9.865  12.666  19.028  0.00  0.00    +0.000 A 
ATOM     26  C   UNL     1       9.666  11.957  17.835  0.00  0.00    +0.000 A 
ATOM     27  C   UNL     1       9.312  10.597  17.866  0.00  0.00    +0.000 A 
ATOM     28  C   UNL     1       9.145   9.908  19.070  0.00  0.00    +0.000 A 
ATOM     29  C   UNL     1       9.357  10.626  20.255  0.00  0.00    +0.000 A 
ATOM     30  C   UNL     1       9.711  11.986  20.228  0.00  0.00    +0.000 A 
ENDBRANCH  20  28
ENDBRANCH  19  21
ENDBRANCH   1  19
TORSDOF 5
ENDMDL
MODEL 4
REMARK VINA RESULT:      -8.6      2.000      2.869
REMARK  Name = 
REMARK  6 active torsions:
REMARK  status: ('A' for Active; 'I' for Inactive)
REMARK    1  A    between atoms: C_1  and  C_2
REMARK    2  A    between atoms: C_5  and  N_6
REMARK    3  A    between atoms: C_7  and  C_9
REMARK    4  A    between atoms: C_9  and  N_10
REMARK    5  A    between atoms: C_14  and  C_15
REMARK    6  A    between atoms: C_17  and  C_18
REMARK                            x       y       z     vdW  Elec       q    Type
REMARK                         _______ _______ _______ _____ _____    ______ ____
ROOT
ATOM      1  N   UNL     1       6.823   5.693  17.604  0.00  0.00    +0.000 NA
ATOM      2  C   UNL     1       7.233   4.446  17.000  0.00  0.00    +0.000 C 
ATOM      3  C   UNL     1       6.958   4.626  15.518  0.00  0.00    +0.000 C 
ATOM      4  C   UNL     1       5.757   5.554  15.481  0.00  0.00    +0.000 C 
ATOM      5  C   UNL     1       5.878   6.407  16.757  0.00  0.00    +0.000 C 
ENDROOT
BRANCH   5   6
ATOM      6  C   UNL     1       4.563   6.447  17.471  0.00  0.00    +0.000 A 
ATOM      7  N   UNL     1       4.053   7.491  18.094  0.00  0.00    +0.000 NA
ATOM      8  C   UNL     1       2.820   7.096  18.539  0.00  0.00    +0.000 A 
ATOM      9  C   UNL     1       2.592   5.782  18.208  0.00  0.00    +0.000 A 
ATOM     10  N   UNL     1       3.699   5.380  17.522  0.00  0.00    +0.000 N 
ATOM     11  H   UNL     1       3.853   4.471  17.109  0.00  0.00    +0.000 HD
BRANCH   8  12
ATOM     12  C   UNL     1       1.921   7.971  19.253  0.00  0.00    +0.000 A 
ATOM     13  C   UNL     1       1.584   7.697  20.588  0.00  0.00    +0.000 A 
ATOM     14  C   UNL     1       0.718   8.542  21.283  0.00  0.00    +0.000 A 
ATOM     15  C   UNL     1       0.189   9.672  20.657  0.00  0.00    +0.000 A 
ATOM     16  C   UNL     1       0.526   9.955  19.335  0.00  0.00    +0.000 A 
ATOM     17  C   UNL     1       1.382   9.108  18.643  0.00  0.00    +0.000 A 
ATOM     18  F   UNL     1       1.681   9.413  17.370  0.00  0.00    +0.000 F 
ENDBRANCH   8  12
ENDBRANCH   5   6
BRANCH   1  19
ATOM     19  C   UNL     1       7.693   6.416  18.506  0.00  0.00    +0.000 C 
BRANCH  19  21
ATOM     20  N   UNL     1       8.585   8.718  18.940  0.00  0.00    +0.000 N 
ATOM     21  C   UNL     1       8.086   7.824  17.981  0.00  0.00    +0.000 C 
ATOM     22  O   UNL     1       7.897   8.067  16.799  0.00  0.00    +0.000 OA
ATOM     23  H   UNL     1       8.680   8.367  19.889  0.00  0.00    +0.000 HD
BRANCH  20  28
ATOM     24  C   UNL     1      10.295  14.154  18.016  0.00  0.00    +0.000 C 
ATOM     25  C   UNL     1       9.823  12.746  18.210  0.00  0.00    +0.000 A 
ATOM     26  C   UNL     1       8.641  12.254  17.639  0.00  0.00    +0.000 A 
ATOM     27  C   UNL     1       8.237  10.928  17.870  0.00  0.00    +0.000 A 
ATOM     28  C   UNL     1       8.985  10.060  18.669  0.00  0.00    +0.000 A 
ATOM     29  C   UNL     1      10.170  10.561  19.226  0.00  0.00    +0.000 A 
ATOM     30  C   UNL     1      10.577  11.887  18.997  0.00  0.00    +0.000 A 
ENDBRANCH  20  28
ENDBRANCH  19  21
ENDBRANCH   1  19
TORSDOF 5
ENDMDL
MODEL 5
REMARK VINA RESULT:      -8.5      4.888      7.332
REMARK  Name = 
REMARK  6 active torsions:
REMARK  status: ('A' for Active; 'I' for Inactive)
REMARK    1  A    between atoms: C_1  and  C_2
REMARK    2  A    between atoms: C_5  and  N_6
REMARK    3  A    between atoms: C_7  and  C_9
REMARK    4  A    between atoms: C_9  and  N_10
REMARK    5  A    between atoms: C_14  and  C_15
REMARK    6  A    between atoms: C_17  and  C_18
REMARK                            x       y       z     vdW  Elec       q    Type
REMARK                         _______ _______ _______ _____ _____    ______ ____
ROOT
ATOM      1  N   UNL     1       2.721   4.261  19.058  0.00  0.00    +0.000 NA
ATOM      2  C   UNL     1       1.437   3.942  18.476  0.00  0.00    +0.000 C 
ATOM      3  C   UNL     1       1.381   2.426  18.472  0.00  0.00    +0.000 C 
ATOM      4  C   UNL     1       2.830   2.009  18.298  0.00  0.00    +0.000 C 
ATOM      5  C   UNL     1       3.648   3.143  18.943  0.00  0.00    +0.000 C 
ENDROOT
BRANCH   5   6
ATOM      6  C   UNL     1       4.754   3.559  18.024  0.00  0.00    +0.000 A 
ATOM      7  N   UNL     1       4.739   3.475  16.708  0.00  0.00    +0.000 NA
ATOM      8  C   UNL     1       5.919   4.023  16.284  0.00  0.00    +0.000 A 
ATOM      9  C   UNL     1       6.677   4.417  17.361  0.00  0.00    +0.000 A 
ATOM     10  N   UNL     1       5.925   4.128  18.461  0.00  0.00    +0.000 N 
ATOM     11  H   UNL     1       6.173   4.313  19.423  0.00  0.00    +0.000 HD
BRANCH   8  12
ATOM     12  C   UNL     1       6.277   4.148  14.891  0.00  0.00    +0.000 A 
ATOM     13  C   UNL     1       5.643   3.346  13.928  0.00  0.00    +0.000 A 
ATOM     14  C   UNL     1       5.983   3.467  12.579  0.00  0.00    +0.000 A 
ATOM     15  C   UNL     1       6.947   4.392  12.179  0.00  0.00    +0.000 A 
ATOM     16  C   UNL     1       7.574   5.197  13.129  0.00  0.00    +0.000 A 
ATOM     17  C   UNL     1       7.239   5.071  14.471  0.00  0.00    +0.000 A 
ATOM     18  F   UNL     1       7.867   5.862  15.356  0.00  0.00    +0.000 F 
ENDBRANCH   8  12
ENDBRANCH   5   6
BRANCH   1  19
ATOM     19  C   UNL     1       2.843   5.207  20.146  0.00  0.00    +0.000 C 
BRANCH  19  21
ATOM     20  N   UNL     1       1.700   7.396  20.574  0.00  0.00    +0.000 N 
ATOM     21  C   UNL     1       2.547   6.671  19.722  0.00  0.00    +0.000 C 
ATOM     22  O   UNL     1       3.029   7.071  18.674  0.00  0.00    +0.000 OA
ATOM     23  H   UNL     1       1.375   6.920  21.411  0.00  0.00    +0.000 HD
BRANCH  20  28
ATOM     24  C   UNL     1       0.143  12.854  19.523  0.00  0.00    +0.000 C 
ATOM     25  C   UNL     1       0.523  11.442  19.844  0.00  0.00    +0.000 A 
ATOM     26  C   UNL     1       0.642  10.965  21.157  0.00  0.00    +0.000 A 
ATOM     27  C   UNL     1       1.020   9.634  21.399  0.00  0.00    +0.000 A 
ATOM     28  C   UNL     1       1.291   8.744  20.356  0.00  0.00    +0.000 A 
ATOM     29  C   UNL     1       1.157   9.231  19.048  0.00  0.00    +0.000 A 
ATOM     30  C   UNL     1       0.780  10.562  18.802  0.00  0.00    +0.000 A 
ENDBRANCH  20  28
ENDBRANCH  19  21
ENDBRANCH   1  19
TORSDOF 5
ENDMDL
MODEL 6
REMARK VINA RESULT:      -8.4      3.953      6.759
REMARK  Name = 
REMARK  6 active torsions:
REMARK  status: ('A' for Active; 'I' for Inactive)
REMARK    1  A    between atoms: C_1  and  C_2
REMARK    2  A    between atoms: C_5  and  N_6
REMARK    3  A    between atoms: C_7  and  C_9
REMARK    4  A    between atoms: C_9  and  N_10
REMARK    5  A    between atoms: C_14  and  C_15
REMARK    6  A    between atoms: C_17  and  C_18
REMARK                            x       y       z     vdW  Elec       q    Type
REMARK                         _______ _______ _______ _____ _____    ______ ____
ROOT
ATOM      1  N   UNL     1       5.059   6.135  18.310  0.00  0.00    +0.000 NA
ATOM      2  C   UNL     1       5.367   5.188  19.358  0.00  0.00    +0.000 C 
ATOM      3  C   UNL     1       4.397   4.041  19.139  0.00  0.00    +0.000 C 
ATOM      4  C   UNL     1       3.167   4.712  18.554  0.00  0.00    +0.000 C 
ATOM      5  C   UNL     1       3.708   5.941  17.801  0.00  0.00    +0.000 C 
ENDROOT
BRANCH   5   6
ATOM      6  C   UNL     1       2.906   7.153  18.160  0.00  0.00    +0.000 A 
ATOM      7  N   UNL     1       2.288   7.358  19.306  0.00  0.00    +0.000 NA
ATOM      8  C   UNL     1       1.742   8.611  19.218  0.00  0.00    +0.000 A 
ATOM      9  C   UNL     1       2.007   9.161  17.987  0.00  0.00    +0.000 A 
ATOM     10  N   UNL     1       2.754   8.233  17.325  0.00  0.00    +0.000 N 
ATOM     11  H   UNL     1       3.142   8.325  16.397  0.00  0.00    +0.000 HD
BRANCH   8  12
ATOM     12  C   UNL     1       1.000   9.227  20.292  0.00  0.00    +0.000 A 
ATOM     13  C   UNL     1       0.700  10.597  20.245  0.00  0.00    +0.000 A 
ATOM     14  C   UNL     1      -0.021  11.196  21.280  0.00  0.00    +0.000 A 
ATOM     15  C   UNL     1      -0.456  10.433  22.364  0.00  0.00    +0.000 A 
ATOM     16  C   UNL     1      -0.168   9.070  22.413  0.00  0.00    +0.000 A 
ATOM     17  C   UNL     1       0.555   8.478  21.386  0.00  0.00    +0.000 A 
ATOM     18  F   UNL     1       0.814   7.163  21.471  0.00  0.00    +0.000 F 
ENDBRANCH   8  12
ENDBRANCH   5   6
BRANCH   1  19
ATOM     19  C   UNL     1       6.093   6.683  17.460  0.00  0.00    +0.000 C 
BRANCH  19  21
ATOM     20  N   UNL     1       5.963   5.739  15.141  0.00  0.00    +0.000 N 
ATOM     21  C   UNL     1       6.601   5.679  16.389  0.00  0.00    +0.000 C 
ATOM     22  O   UNL     1       7.477   4.891  16.713  0.00  0.00    +0.000 OA
ATOM     23  H   UNL     1       5.245   6.450  15.027  0.00  0.00    +0.000 HD
BRANCH  20  28
ATOM     24  C   UNL     1       7.104   2.173  10.748  0.00  0.00    +0.000 C 
ATOM     25  C   UNL     1       6.837   3.136  11.862  0.00  0.00    +0.000 A 
ATOM     26  C   UNL     1       7.666   4.234  12.135  0.00  0.00    +0.000 A 
ATOM     27  C   UNL     1       7.375   5.095  13.207  0.00  0.00    +0.000 A 
ATOM     28  C   UNL     1       6.266   4.895  14.033  0.00  0.00    +0.000 A 
ATOM     29  C   UNL     1       5.440   3.800  13.742  0.00  0.00    +0.000 A 
ATOM     30  C   UNL     1       5.727   2.936  12.671  0.00  0.00    +0.000 A 
ENDBRANCH  20  28
ENDBRANCH  19  21
ENDBRANCH   1  19
TORSDOF 5
ENDMDL
MODEL 7
REMARK VINA RESULT:      -8.4      4.950      7.381
REMARK  Name = 
REMARK  6 active torsions:
REMARK  status: ('A' for Active; 'I' for Inactive)
REMARK    1  A    between atoms: C_1  and  C_2
REMARK    2  A    between atoms: C_5  and  N_6
REMARK    3  A    between atoms: C_7  and  C_9
REMARK    4  A    between atoms: C_9  and  N_10
REMARK    5  A    between atoms: C_14  and  C_15
REMARK    6  A    between atoms: C_17  and  C_18
REMARK                            x       y       z     vdW  Elec       q    Type
REMARK                         _______ _______ _______ _____ _____    ______ ____
ROOT
ATOM      1  N   UNL     1       2.554   4.066  19.161  0.00  0.00    +0.000 NA
ATOM      2  C   UNL     1       1.238   3.535  18.887  0.00  0.00    +0.000 C 
ATOM      3  C   UNL     1       1.464   2.058  18.624  0.00  0.00    +0.000 C 
ATOM      4  C   UNL     1       2.849   2.007  18.004  0.00  0.00    +0.000 C 
ATOM      5  C   UNL     1       3.595   3.211  18.606  0.00  0.00    +0.000 C 
ENDROOT
BRANCH   5   6
ATOM      6  C   UNL     1       4.286   3.977  17.521  0.00  0.00    +0.000 A 
ATOM      7  N   UNL     1       4.831   3.460  16.437  0.00  0.00    +0.000 NA
ATOM      8  C   UNL     1       5.283   4.523  15.702  0.00  0.00    +0.000 A 
ATOM      9  C   UNL     1       5.038   5.701  16.366  0.00  0.00    +0.000 A 
ATOM     10  N   UNL     1       4.395   5.346  17.515  0.00  0.00    +0.000 N 
ATOM     11  H   UNL     1       4.046   5.973  18.225  0.00  0.00    +0.000 HD
BRANCH   8  12
ATOM     12  C   UNL     1       5.924   4.378  14.417  0.00  0.00    +0.000 A 
ATOM     13  C   UNL     1       5.326   3.595  13.417  0.00  0.00    +0.000 A 
ATOM     14  C   UNL     1       5.940   3.456  12.170  0.00  0.00    +0.000 A 
ATOM     15  C   UNL     1       7.148   4.103  11.908  0.00  0.00    +0.000 A 
ATOM     16  C   UNL     1       7.743   4.888  12.894  0.00  0.00    +0.000 A 
ATOM     17  C   UNL     1       7.134   5.019  14.135  0.00  0.00    +0.000 A 
ATOM     18  F   UNL     1       7.740   5.782  15.060  0.00  0.00    +0.000 F 
ENDBRANCH   8  12
ENDBRANCH   5   6
BRANCH   1  19
ATOM     19  C   UNL     1       2.814   4.875  20.331  0.00  0.00    +0.000 C 
BRANCH  19  21
ATOM     20  N   UNL     1       2.364   7.169  19.427  0.00  0.00    +0.000 N 
ATOM     21  C   UNL     1       1.991   6.191  20.361  0.00  0.00    +0.000 C 
ATOM     22  O   UNL     1       1.118   6.301  21.209  0.00  0.00    +0.000 OA
ATOM     23  H   UNL     1       3.117   6.928  18.788  0.00  0.00    +0.000 HD
BRANCH  20  28
ATOM     24  C   UNL     1       0.020  12.406  18.797  0.00  0.00    +0.000 C 
ATOM     25  C   UNL     1       0.590  11.037  18.998  0.00  0.00    +0.000 A 
ATOM     26  C   UNL     1       0.421  10.307  20.184  0.00  0.00    +0.000 A 
ATOM     27  C   UNL     1       0.996   9.033  20.323  0.00  0.00    +0.000 A 
ATOM     28  C   UNL     1       1.750   8.449  19.302  0.00  0.00    +0.000 A 
ATOM     29  C   UNL     1       1.903   9.185  18.118  0.00  0.00    +0.000 A 
ATOM     30  C   UNL     1       1.330  10.460  17.975  0.00  0.00    +0.000 A 
ENDBRANCH  20  28
ENDBRANCH  19  21
ENDBRANCH   1  19
TORSDOF 5
ENDMDL
MODEL 8
REMARK VINA RESULT:      -8.4      1.984      3.122
REMARK  Name = 
REMARK  6 active torsions:
REMARK  status: ('A' for Active; 'I' for Inactive)
REMARK    1  A    between atoms: C_1  and  C_2
REMARK    2  A    between atoms: C_5  and  N_6
REMARK    3  A    between atoms: C_7  and  C_9
REMARK    4  A    between atoms: C_9  and  N_10
REMARK    5  A    between atoms: C_14  and  C_15
REMARK    6  A    between atoms: C_17  and  C_18
REMARK                            x       y       z     vdW  Elec       q    Type
REMARK                         _______ _______ _______ _____ _____    ______ ____
ROOT
ATOM      1  N   UNL     1       6.718   5.633  17.448  0.00  0.00    +0.000 NA
ATOM      2  C   UNL     1       7.027   4.380  16.798  0.00  0.00    +0.000 C 
ATOM      3  C   UNL     1       6.787   4.640  15.322  0.00  0.00    +0.000 C 
ATOM      4  C   UNL     1       5.668   5.667  15.312  0.00  0.00    +0.000 C 
ATOM      5  C   UNL     1       5.846   6.457  16.622  0.00  0.00    +0.000 C 
ENDROOT
BRANCH   5   6
ATOM      6  C   UNL     1       4.530   6.579  17.325  0.00  0.00    +0.000 A 
ATOM      7  N   UNL     1       3.978   7.703  17.741  0.00  0.00    +0.000 NA
ATOM      8  C   UNL     1       2.763   7.351  18.264  0.00  0.00    +0.000 A 
ATOM      9  C   UNL     1       2.589   5.989  18.193  0.00  0.00    +0.000 A 
ATOM     10  N   UNL     1       3.711   5.509  17.588  0.00  0.00    +0.000 N 
ATOM     11  H   UNL     1       3.902   4.544  17.356  0.00  0.00    +0.000 HD
BRANCH   8  12
ATOM     12  C   UNL     1       1.828   8.309  18.803  0.00  0.00    +0.000 A 
ATOM     13  C   UNL     1       1.272   9.295  17.972  0.00  0.00    +0.000 A 
ATOM     14  C   UNL     1       0.365  10.222  18.489  0.00  0.00    +0.000 A 
ATOM     15  C   UNL     1      -0.003  10.167  19.833  0.00  0.00    +0.000 A 
ATOM     16  C   UNL     1       0.538   9.186  20.662  0.00  0.00    +0.000 A 
ATOM     17  C   UNL     1       1.446   8.270  20.147  0.00  0.00    +0.000 A 
ATOM     18  F   UNL     1       1.948   7.342  20.978  0.00  0.00    +0.000 F 
ENDBRANCH   8  12
ENDBRANCH   5   6
BRANCH   1  19
ATOM     19  C   UNL     1       7.634   6.244  18.385  0.00  0.00    +0.000 C 
BRANCH  19  21
ATOM     20  N   UNL     1       8.596   8.462  19.046  0.00  0.00    +0.000 N 
ATOM     21  C   UNL     1       7.984   7.715  18.029  0.00  0.00    +0.000 C 
ATOM     22  O   UNL     1       7.671   8.126  16.922  0.00  0.00    +0.000 OA
ATOM     23  H   UNL     1       8.789   7.978  19.919  0.00  0.00    +0.000 HD
BRANCH  20  28
ATOM     24  C   UNL     1      10.150  14.015  18.770  0.00  0.00    +0.000 C 
ATOM     25  C   UNL     1       9.742  12.575  18.788  0.00  0.00    +0.000 A 
ATOM     26  C   UNL     1       8.993  11.983  17.761  0.00  0.00    +0.000 A 
ATOM     27  C   UNL     1       8.623  10.629  17.840  0.00  0.00    +0.000 A 
ATOM     28  C   UNL     1       8.980   9.831  18.930  0.00  0.00    +0.000 A 
ATOM     29  C   UNL     1       9.738  10.432  19.944  0.00  0.00    +0.000 A 
ATOM     30  C   UNL     1      10.110  11.785  19.869  0.00  0.00    +0.000 A 
ENDBRANCH  20  28
ENDBRANCH  19  21
ENDBRANCH   1  19
TORSDOF 5
ENDMDL
MODEL 9
REMARK VINA RESULT:      -8.3      4.108      6.784
REMARK  Name = 
REMARK  6 active torsions:
REMARK  status: ('A' for Active; 'I' for Inactive)
REMARK    1  A    between atoms: C_1  and  C_2
REMARK    2  A    between atoms: C_5  and  N_6
REMARK    3  A    between atoms: C_7  and  C_9
REMARK    4  A    between atoms: C_9  and  N_10
REMARK    5  A    between atoms: C_14  and  C_15
REMARK    6  A    between atoms: C_17  and  C_18
REMARK                            x       y       z     vdW  Elec       q    Type
REMARK                         _______ _______ _______ _____ _____    ______ ____
ROOT
ATOM      1  N   UNL     1       4.841   6.113  18.352  0.00  0.00    +0.000 NA
ATOM      2  C   UNL     1       5.111   5.090  19.337  0.00  0.00    +0.000 C 
ATOM      3  C   UNL     1       4.101   3.996  19.045  0.00  0.00    +0.000 C 
ATOM      4  C   UNL     1       2.898   4.747  18.503  0.00  0.00    +0.000 C 
ATOM      5  C   UNL     1       3.486   6.001  17.830  0.00  0.00    +0.000 C 
ENDROOT
BRANCH   5   6
ATOM      6  C   UNL     1       2.726   7.216  18.265  0.00  0.00    +0.000 A 
ATOM      7  N   UNL     1       2.126   7.376  19.428  0.00  0.00    +0.000 NA
ATOM      8  C   UNL     1       1.621   8.648  19.417  0.00  0.00    +0.000 A 
ATOM      9  C   UNL     1       1.892   9.259  18.215  0.00  0.00    +0.000 A 
ATOM     10  N   UNL     1       2.602   8.345  17.495  0.00  0.00    +0.000 N 
ATOM     11  H   UNL     1       2.985   8.478  16.569  0.00  0.00    +0.000 HD
BRANCH   8  12
ATOM     12  C   UNL     1       0.909   9.226  20.532  0.00  0.00    +0.000 A 
ATOM     13  C   UNL     1       1.210   8.824  21.843  0.00  0.00    +0.000 A 
ATOM     14  C   UNL     1       0.527   9.382  22.925  0.00  0.00    +0.000 A 
ATOM     15  C   UNL     1      -0.453  10.352  22.710  0.00  0.00    +0.000 A 
ATOM     16  C   UNL     1      -0.751  10.762  21.412  0.00  0.00    +0.000 A 
ATOM     17  C   UNL     1      -0.075  10.199  20.337  0.00  0.00    +0.000 A 
ATOM     18  F   UNL     1      -0.393  10.618  19.101  0.00  0.00    +0.000 F 
ENDBRANCH   8  12
ENDBRANCH   5   6
BRANCH   1  19
ATOM     19  C   UNL     1       5.897   6.676  17.539  0.00  0.00    +0.000 C 
BRANCH  19  21
ATOM     20  N   UNL     1       5.783   5.676  15.244  0.00  0.00    +0.000 N 
ATOM     21  C   UNL     1       6.448   5.684  16.479  0.00  0.00    +0.000 C 
ATOM     22  O   UNL     1       7.380   4.962  16.800  0.00  0.00    +0.000 OA
ATOM     23  H   UNL     1       5.019   6.337  15.130  0.00  0.00    +0.000 HD
BRANCH  20  28
ATOM     24  C   UNL     1       7.239   2.403  10.717  0.00  0.00    +0.000 C 
ATOM     25  C   UNL     1       6.831   3.211  11.910  0.00  0.00    +0.000 A 
ATOM     26  C   UNL     1       5.665   2.951  12.643  0.00  0.00    +0.000 A 
ATOM     27  C   UNL     1       5.323   3.755  13.744  0.00  0.00    +0.000 A 
ATOM     28  C   UNL     1       6.119   4.830  14.146  0.00  0.00    +0.000 A 
ATOM     29  C   UNL     1       7.289   5.072  13.411  0.00  0.00    +0.000 A 
ATOM     30  C   UNL     1       7.634   4.271  12.309  0.00  0.00    +0.000 A 
ENDBRANCH  20  28
ENDBRANCH  19  21
ENDBRANCH   1  19
TORSDOF 5
ENDMDL
