MODEL 1
REMARK VINA RESULT:      -6.9      0.000      0.000
REMARK  Name = 
REMARK  7 active torsions:
REMARK  status: ('A' for Active; 'I' for Inactive)
REMARK    1  A    between atoms: C_1  and  C_2
REMARK    2  A    between atoms: C_2  and  C_3
REMARK    3  A    between atoms: C_3  and  C_4
REMARK    4  A    between atoms: C_4  and  C_5
REMARK    5  A    between atoms: C_8  and  C_9
REMARK    6  A    between atoms: C_11  and  C_12
REMARK    7  A    between atoms: C_12  and  N_13
REMARK                            x       y       z     vdW  Elec       q    Type
REMARK                         _______ _______ _______ _____ _____    ______ ____
ROOT
ATOM      1  C   UNL     1       2.917   6.035  18.834  0.00  0.00    +0.000 A 
ATOM      2  N   UNL     1       2.705   7.252  19.313  0.00  0.00    +0.000 NA
ATOM      3  C   UNL     1       1.899   7.054  20.418  0.00  0.00    +0.000 A 
ATOM      4  C   UNL     1       1.657   5.706  20.558  0.00  0.00    +0.000 A 
ATOM      5  O   UNL     1       2.300   5.046  19.556  0.00  0.00    +0.000 OA
ENDROOT
BRANCH   1   9
ATOM      6  C   UNL     1       5.439   4.991  15.514  0.00  0.00    +0.000 A 
ATOM      7  C   UNL     1       5.227   6.325  15.880  0.00  0.00    +0.000 A 
ATOM      8  C   UNL     1       4.398   6.641  16.959  0.00  0.00    +0.000 A 
ATOM      9  C   UNL     1       3.746   5.642  17.696  0.00  0.00    +0.000 A 
ATOM     10  C   UNL     1       3.942   4.306  17.313  0.00  0.00    +0.000 A 
ATOM     11  C   UNL     1       4.779   3.986  16.234  0.00  0.00    +0.000 A 
BRANCH   6  12
ATOM     12  C   UNL     1       6.371   4.648  14.373  0.00  0.00    +0.000 C 
BRANCH  12  13
ATOM     13  C   UNL     1       5.719   3.676  13.385  0.00  0.00    +0.000 C 
BRANCH  13  15
ATOM     14  C   UNL     1       6.371   2.132  11.519  0.00  0.00    +0.000 C 
ATOM     15  C   UNL     1       6.525   3.531  12.096  0.00  0.00    +0.000 C 
ENDBRANCH  13  15
ENDBRANCH  12  13
ENDBRANCH   6  12
ENDBRANCH   1   9
BRANCH   3  16
ATOM     16  C   UNL     1       1.508   8.209  21.297  0.00  0.00    +0.000 C 
BRANCH  16  17
ATOM     17  N   UNL     1       0.158   8.720  20.995  0.00  0.00    +0.000 NA
ATOM     18  C   UNL     1       0.153  10.023  20.294  0.00  0.00    +0.000 C 
ATOM     19  C   UNL     1       0.532  11.235  21.164  0.00  0.00    +0.000 C 
ATOM     20  O   UNL     1      -0.275  11.325  22.343  0.00  0.00    +0.000 OA
ATOM     21  C   UNL     1      -0.287  10.109  23.094  0.00  0.00    +0.000 C 
ATOM     22  C   UNL     1      -0.647   8.886  22.229  0.00  0.00    +0.000 C 
ENDBRANCH  16  17
ENDBRANCH   3  16
TORSDOF 6
ENDMDL
MODEL 2
REMARK VINA RESULT:      -6.9      0.808      1.326
REMARK  Name = 
REMARK  7 active torsions:
REMARK  status: ('A' for Active; 'I' for Inactive)
REMARK    1  A    between atoms: C_1  and  C_2
REMARK    2  A    between atoms: C_2  and  C_3
REMARK    3  A    between atoms: C_3  and  C_4
REMARK    4  A    between atoms: C_4  and  C_5
REMARK    5  A    between atoms: C_8  and  C_9
REMARK    6  A    between atoms: C_11  and  C_12
REMARK    7  A    between atoms: C_12  and  N_13
REMARK                            x       y       z     vdW  Elec       q    Type
REMARK                         _______ _______ _______ _____ _____    ______ ____
ROOT
ATOM      1  C   UNL     1       2.867   6.476  18.865  0.00  0.00    +0.000 A 
ATOM      2  N   UNL     1       2.563   7.762  18.969  0.00  0.00    +0.000 NA
ATOM      3  C   UNL     1       1.808   7.846  20.122  0.00  0.00    +0.000 A 
ATOM      4  C   UNL     1       1.687   6.590  20.670  0.00  0.00    +0.000 A 
ATOM      5  O   UNL     1       2.358   5.708  19.879  0.00  0.00    +0.000 OA
ENDROOT
BRANCH   1   9
ATOM      6  C   UNL     1       5.210   4.447  15.886  0.00  0.00    +0.000 A 
ATOM      7  C   UNL     1       4.425   3.741  16.806  0.00  0.00    +0.000 A 
ATOM      8  C   UNL     1       3.677   4.421  17.769  0.00  0.00    +0.000 A 
ATOM      9  C   UNL     1       3.697   5.820  17.855  0.00  0.00    +0.000 A 
ATOM     10  C   UNL     1       4.502   6.526  16.947  0.00  0.00    +0.000 A 
ATOM     11  C   UNL     1       5.248   5.845  15.974  0.00  0.00    +0.000 A 
BRANCH   6  12
ATOM     12  C   UNL     1       5.985   3.711  14.816  0.00  0.00    +0.000 C 
BRANCH  12  13
ATOM     13  C   UNL     1       6.775   4.677  13.928  0.00  0.00    +0.000 C 
BRANCH  13  15
ATOM     14  C   UNL     1       5.763   3.200  12.173  0.00  0.00    +0.000 C 
ATOM     15  C   UNL     1       6.878   4.187  12.485  0.00  0.00    +0.000 C 
ENDBRANCH  13  15
ENDBRANCH  12  13
ENDBRANCH   6  12
ENDBRANCH   1   9
BRANCH   3  16
ATOM     16  C   UNL     1       1.341   9.181  20.634  0.00  0.00    +0.000 C 
BRANCH  16  17
ATOM     17  N   UNL     1      -0.117   9.229  20.847  0.00  0.00    +0.000 NA
ATOM     18  C   UNL     1      -0.697  10.585  20.721  0.00  0.00    +0.000 C 
ATOM     19  C   UNL     1      -0.390  11.538  21.889  0.00  0.00    +0.000 C 
ATOM     20  O   UNL     1      -0.758  10.978  23.154  0.00  0.00    +0.000 OA
ATOM     21  C   UNL     1      -0.200   9.678  23.362  0.00  0.00    +0.000 C 
ATOM     22  C   UNL     1      -0.487   8.720  22.190  0.00  0.00    +0.000 C 
ENDBRANCH  16  17
ENDBRANCH   3  16
TORSDOF 6
ENDMDL
MODEL 3
REMARK VINA RESULT:      -6.9      1.709      2.340
REMARK  Name = 
REMARK  7 active torsions:
REMARK  status: ('A' for Active; 'I' for Inactive)
REMARK    1  A    between atoms: C_1  and  C_2
REMARK    2  A    between atoms: C_2  and  C_3
REMARK    3  A    between atoms: C_3  and  C_4
REMARK    4  A    between atoms: C_4  and  C_5
REMARK    5  A    between atoms: C_8  and  C_9
REMARK    6  A    between atoms: C_11  and  C_12
REMARK    7  A    between atoms: C_12  and  N_13
REMARK                            x       y       z     vdW  Elec       q    Type
REMARK                         _______ _______ _______ _____ _____    ______ ____
ROOT
ATOM      1  C   UNL     1       2.722   7.335  18.519  0.00  0.00    +0.000 A 
ATOM      2  N   UNL     1       2.212   8.506  18.163  0.00  0.00    +0.000 NA
ATOM      3  C   UNL     1       1.530   8.940  19.283  0.00  0.00    +0.000 A 
ATOM      4  C   UNL     1       1.660   7.999  20.278  0.00  0.00    +0.000 A 
ATOM      5  O   UNL     1       2.417   6.972  19.804  0.00  0.00    +0.000 OA
ENDROOT
BRANCH   1   9
ATOM      6  C   UNL     1       5.143   4.643  16.202  0.00  0.00    +0.000 A 
ATOM      7  C   UNL     1       4.094   4.178  17.004  0.00  0.00    +0.000 A 
ATOM      8  C   UNL     1       3.324   5.071  17.753  0.00  0.00    +0.000 A 
ATOM      9  C   UNL     1       3.583   6.448  17.738  0.00  0.00    +0.000 A 
ATOM     10  C   UNL     1       4.649   6.911  16.951  0.00  0.00    +0.000 A 
ATOM     11  C   UNL     1       5.419   6.017  16.192  0.00  0.00    +0.000 A 
BRANCH   6  12
ATOM     12  C   UNL     1       5.947   3.680  15.358  0.00  0.00    +0.000 C 
BRANCH  12  13
ATOM     13  C   UNL     1       6.340   4.302  14.014  0.00  0.00    +0.000 C 
BRANCH  13  15
ATOM     14  C   UNL     1       6.810   3.222  11.799  0.00  0.00    +0.000 C 
ATOM     15  C   UNL     1       5.739   3.549  12.829  0.00  0.00    +0.000 C 
ENDBRANCH  13  15
ENDBRANCH  12  13
ENDBRANCH   6  12
ENDBRANCH   1   9
BRANCH   3  16
ATOM     16  C   UNL     1       0.878  10.295  19.304  0.00  0.00    +0.000 C 
BRANCH  16  17
ATOM     17  N   UNL     1      -0.542  10.236  19.695  0.00  0.00    +0.000 NA
ATOM     18  C   UNL     1      -1.482  10.483  18.578  0.00  0.00    +0.000 C 
ATOM     19  C   UNL     1      -1.564  11.944  18.105  0.00  0.00    +0.000 C 
ATOM     20  O   UNL     1      -1.855  12.844  19.180  0.00  0.00    +0.000 OA
ATOM     21  C   UNL     1      -0.960  12.688  20.284  0.00  0.00    +0.000 C 
ATOM     22  C   UNL     1      -0.856  11.224  20.754  0.00  0.00    +0.000 C 
ENDBRANCH  16  17
ENDBRANCH   3  16
TORSDOF 6
ENDMDL
MODEL 4
REMARK VINA RESULT:      -6.8      1.642      2.483
REMARK  Name = 
REMARK  7 active torsions:
REMARK  status: ('A' for Active; 'I' for Inactive)
REMARK    1  A    between atoms: C_1  and  C_2
REMARK    2  A    between atoms: C_2  and  C_3
REMARK    3  A    between atoms: C_3  and  C_4
REMARK    4  A    between atoms: C_4  and  C_5
REMARK    5  A    between atoms: C_8  and  C_9
REMARK    6  A    between atoms: C_11  and  C_12
REMARK    7  A    between atoms: C_12  and  N_13
REMARK                            x       y       z     vdW  Elec       q    Type
REMARK                         _______ _______ _______ _____ _____    ______ ____
ROOT
ATOM      1  C   UNL     1       2.561   8.009  18.171  0.00  0.00    +0.000 A 
ATOM      2  N   UNL     1       1.918   7.993  19.330  0.00  0.00    +0.000 NA
ATOM      3  C   UNL     1       1.198   9.172  19.342  0.00  0.00    +0.000 A 
ATOM      4  C   UNL     1       1.443   9.857  18.173  0.00  0.00    +0.000 A 
ATOM      5  O   UNL     1       2.309   9.127  17.419  0.00  0.00    +0.000 OA
ENDROOT
BRANCH   1   9
ATOM      6  C   UNL     1       5.022   4.899  16.513  0.00  0.00    +0.000 A 
ATOM      7  C   UNL     1       3.985   4.612  17.408  0.00  0.00    +0.000 A 
ATOM      8  C   UNL     1       3.202   5.640  17.939  0.00  0.00    +0.000 A 
ATOM      9  C   UNL     1       3.436   6.982  17.606  0.00  0.00    +0.000 A 
ATOM     10  C   UNL     1       4.489   7.269  16.725  0.00  0.00    +0.000 A 
ATOM     11  C   UNL     1       5.272   6.238  16.185  0.00  0.00    +0.000 A 
BRANCH   6  12
ATOM     12  C   UNL     1       5.840   3.782  15.905  0.00  0.00    +0.000 C 
BRANCH  12  13
ATOM     13  C   UNL     1       6.621   4.259  14.676  0.00  0.00    +0.000 C 
BRANCH  13  15
ATOM     14  C   UNL     1       6.931   4.101  12.193  0.00  0.00    +0.000 C 
ATOM     15  C   UNL     1       6.104   3.636  13.382  0.00  0.00    +0.000 C 
ENDBRANCH  13  15
ENDBRANCH  12  13
ENDBRANCH   6  12
ENDBRANCH   1   9
BRANCH   3  16
ATOM     16  C   UNL     1       0.257   9.482  20.473  0.00  0.00    +0.000 C 
BRANCH  16  17
ATOM     17  N   UNL     1       0.933  10.119  21.617  0.00  0.00    +0.000 NA
ATOM     18  C   UNL     1       0.365   9.747  22.932  0.00  0.00    +0.000 C 
ATOM     19  C   UNL     1      -1.001  10.377  23.255  0.00  0.00    +0.000 C 
ATOM     20  O   UNL     1      -0.981  11.804  23.130  0.00  0.00    +0.000 OA
ATOM     21  C   UNL     1      -0.477  12.236  21.863  0.00  0.00    +0.000 C 
ATOM     22  C   UNL     1       0.883  11.598  21.522  0.00  0.00    +0.000 C 
ENDBRANCH  16  17
ENDBRANCH   3  16
TORSDOF 6
ENDMDL
MODEL 5
REMARK VINA RESULT:      -6.8      2.307      9.286
REMARK  Name = 
REMARK  7 active torsions:
REMARK  status: ('A' for Active; 'I' for Inactive)
REMARK    1  A    between atoms: C_1  and  C_2
REMARK    2  A    between atoms: C_2  and  C_3
REMARK    3  A    between atoms: C_3  and  C_4
REMARK    4  A    between atoms: C_4  and  C_5
REMARK    5  A    between atoms: C_8  and  C_9
REMARK    6  A    between atoms: C_11  and  C_12
REMARK    7  A    between atoms: C_12  and  N_13
REMARK                            x       y       z     vdW  Elec       q    Type
REMARK                         _______ _______ _______ _____ _____    ______ ____
ROOT
ATOM      1  C   UNL     1       2.380   6.957  19.560  0.00  0.00    +0.000 A 
ATOM      2  N   UNL     1       3.060   6.828  18.429  0.00  0.00    +0.000 NA
ATOM      3  C   UNL     1       3.483   5.513  18.429  0.00  0.00    +0.000 A 
ATOM      4  C   UNL     1       3.035   4.899  19.575  0.00  0.00    +0.000 A 
ATOM      5  O   UNL     1       2.330   5.807  20.304  0.00  0.00    +0.000 OA
ENDROOT
BRANCH   1   9
ATOM      6  C   UNL     1       0.206  10.418  20.891  0.00  0.00    +0.000 A 
ATOM      7  C   UNL     1       0.615  10.278  19.560  0.00  0.00    +0.000 A 
ATOM      8  C   UNL     1       1.326   9.148  19.151  0.00  0.00    +0.000 A 
ATOM      9  C   UNL     1       1.662   8.131  20.056  0.00  0.00    +0.000 A 
ATOM     10  C   UNL     1       1.271   8.283  21.395  0.00  0.00    +0.000 A 
ATOM     11  C   UNL     1       0.551   9.414  21.806  0.00  0.00    +0.000 A 
BRANCH   6  12
ATOM     12  C   UNL     1      -0.601  11.621  21.322  0.00  0.00    +0.000 C 
BRANCH  12  13
ATOM     13  C   UNL     1      -1.044  11.509  22.785  0.00  0.00    +0.000 C 
BRANCH  13  15
ATOM     14  C   UNL     1      -3.302  12.468  23.302  0.00  0.00    +0.000 C 
ATOM     15  C   UNL     1      -1.807  12.745  23.257  0.00  0.00    +0.000 C 
ENDBRANCH  13  15
ENDBRANCH  12  13
ENDBRANCH   6  12
ENDBRANCH   1   9
BRANCH   3  16
ATOM     16  C   UNL     1       4.224   4.948  17.248  0.00  0.00    +0.000 C 
BRANCH  16  17
ATOM     17  N   UNL     1       5.241   5.875  16.720  0.00  0.00    +0.000 NA
ATOM     18  C   UNL     1       5.730   5.521  15.368  0.00  0.00    +0.000 C 
ATOM     19  C   UNL     1       6.663   4.299  15.311  0.00  0.00    +0.000 C 
ATOM     20  O   UNL     1       7.776   4.426  16.202  0.00  0.00    +0.000 OA
ATOM     21  C   UNL     1       7.375   4.732  17.540  0.00  0.00    +0.000 C 
ATOM     22  C   UNL     1       6.426   5.944  17.607  0.00  0.00    +0.000 C 
ENDBRANCH  16  17
ENDBRANCH   3  16
TORSDOF 6
ENDMDL
MODEL 6
REMARK VINA RESULT:      -6.7      0.846      1.644
REMARK  Name = 
REMARK  7 active torsions:
REMARK  status: ('A' for Active; 'I' for Inactive)
REMARK    1  A    between atoms: C_1  and  C_2
REMARK    2  A    between atoms: C_2  and  C_3
REMARK    3  A    between atoms: C_3  and  C_4
REMARK    4  A    between atoms: C_4  and  C_5
REMARK    5  A    between atoms: C_8  and  C_9
REMARK    6  A    between atoms: C_11  and  C_12
REMARK    7  A    between atoms: C_12  and  N_13
REMARK                            x       y       z     vdW  Elec       q    Type
REMARK                         _______ _______ _______ _____ _____    ______ ____
ROOT
ATOM      1  C   UNL     1       3.166   5.577  18.845  0.00  0.00    +0.000 A 
ATOM      2  N   UNL     1       2.424   6.620  19.191  0.00  0.00    +0.000 NA
ATOM      3  C   UNL     1       1.832   6.243  20.381  0.00  0.00    +0.000 A 
ATOM      4  C   UNL     1       2.250   4.972  20.704  0.00  0.00    +0.000 A 
ATOM      5  O   UNL     1       3.100   4.537  19.734  0.00  0.00    +0.000 OA
ENDROOT
BRANCH   1   9
ATOM      6  C   UNL     1       5.716   5.052  15.424  0.00  0.00    +0.000 A 
ATOM      7  C   UNL     1       5.313   3.966  16.210  0.00  0.00    +0.000 A 
ATOM      8  C   UNL     1       4.489   4.161  17.320  0.00  0.00    +0.000 A 
ATOM      9  C   UNL     1       4.053   5.442  17.690  0.00  0.00    +0.000 A 
ATOM     10  C   UNL     1       4.476   6.532  16.914  0.00  0.00    +0.000 A 
ATOM     11  C   UNL     1       5.298   6.337  15.794  0.00  0.00    +0.000 A 
BRANCH   6  12
ATOM     12  C   UNL     1       6.572   4.834  14.197  0.00  0.00    +0.000 C 
BRANCH  12  13
ATOM     13  C   UNL     1       6.300   3.469  13.555  0.00  0.00    +0.000 C 
BRANCH  13  15
ATOM     14  C   UNL     1       5.467   2.247  11.530  0.00  0.00    +0.000 C 
ATOM     15  C   UNL     1       5.525   3.589  12.244  0.00  0.00    +0.000 C 
ENDBRANCH  13  15
ENDBRANCH  12  13
ENDBRANCH   6  12
ENDBRANCH   1   9
BRANCH   3  16
ATOM     16  C   UNL     1       0.970   7.208  21.146  0.00  0.00    +0.000 C 
BRANCH  16  17
ATOM     17  N   UNL     1       1.528   8.573  21.169  0.00  0.00    +0.000 NA
ATOM     18  C   UNL     1       1.392   9.254  22.477  0.00  0.00    +0.000 C 
ATOM     19  C   UNL     1      -0.033   9.718  22.825  0.00  0.00    +0.000 C 
ATOM     20  O   UNL     1      -0.600  10.539  21.798  0.00  0.00    +0.000 OA
ATOM     21  C   UNL     1      -0.537   9.925  20.509  0.00  0.00    +0.000 C 
ATOM     22  C   UNL     1       0.883   9.441  20.156  0.00  0.00    +0.000 C 
ENDBRANCH  16  17
ENDBRANCH   3  16
TORSDOF 6
ENDMDL
MODEL 7
REMARK VINA RESULT:      -6.7      3.118      9.555
REMARK  Name = 
REMARK  7 active torsions:
REMARK  status: ('A' for Active; 'I' for Inactive)
REMARK    1  A    between atoms: C_1  and  C_2
REMARK    2  A    between atoms: C_2  and  C_3
REMARK    3  A    between atoms: C_3  and  C_4
REMARK    4  A    between atoms: C_4  and  C_5
REMARK    5  A    between atoms: C_8  and  C_9
REMARK    6  A    between atoms: C_11  and  C_12
REMARK    7  A    between atoms: C_12  and  N_13
REMARK                            x       y       z     vdW  Elec       q    Type
REMARK                         _______ _______ _______ _____ _____    ______ ____
ROOT
ATOM      1  C   UNL     1       1.726   8.144  19.745  0.00  0.00    +0.000 A 
ATOM      2  N   UNL     1       2.176   6.912  19.938  0.00  0.00    +0.000 NA
ATOM      3  C   UNL     1       2.885   6.618  18.790  0.00  0.00    +0.000 A 
ATOM      4  C   UNL     1       2.831   7.701  17.943  0.00  0.00    +0.000 A 
ATOM      5  O   UNL     1       2.096   8.679  18.539  0.00  0.00    +0.000 OA
ENDROOT
BRANCH   1   9
ATOM      6  C   UNL     1      -0.643  10.619  22.340  0.00  0.00    +0.000 A 
ATOM      7  C   UNL     1      -0.596  10.842  20.959  0.00  0.00    +0.000 A 
ATOM      8  C   UNL     1       0.186  10.028  20.136  0.00  0.00    +0.000 A 
ATOM      9  C   UNL     1       0.953   8.980  20.662  0.00  0.00    +0.000 A 
ATOM     10  C   UNL     1       0.922   8.772  22.050  0.00  0.00    +0.000 A 
ATOM     11  C   UNL     1       0.132   9.583  22.877  0.00  0.00    +0.000 A 
BRANCH   6  12
ATOM     12  C   UNL     1      -1.524  11.472  23.224  0.00  0.00    +0.000 C 
BRANCH  12  13
ATOM     13  C   UNL     1      -2.404  12.418  22.400  0.00  0.00    +0.000 C 
BRANCH  13  15
ATOM     14  C   UNL     1      -3.712  13.619  24.170  0.00  0.00    +0.000 C 
ATOM     15  C   UNL     1      -3.782  12.620  23.025  0.00  0.00    +0.000 C 
ENDBRANCH  13  15
ENDBRANCH  12  13
ENDBRANCH   6  12
ENDBRANCH   1   9
BRANCH   3  16
ATOM     16  C   UNL     1       3.633   5.320  18.664  0.00  0.00    +0.000 C 
BRANCH  16  17
ATOM     17  N   UNL     1       3.086   4.449  17.609  0.00  0.00    +0.000 NA
ATOM     18  C   UNL     1       1.639   4.173  17.750  0.00  0.00    +0.000 C 
ATOM     19  C   UNL     1       1.267   3.205  18.887  0.00  0.00    +0.000 C 
ATOM     20  O   UNL     1       1.982   1.968  18.798  0.00  0.00    +0.000 OA
ATOM     21  C   UNL     1       3.395   2.157  18.698  0.00  0.00    +0.000 C 
ATOM     22  C   UNL     1       3.778   3.138  17.573  0.00  0.00    +0.000 C 
ENDBRANCH  16  17
ENDBRANCH   3  16
TORSDOF 6
ENDMDL
MODEL 8
REMARK VINA RESULT:      -6.7      2.531      8.498
REMARK  Name = 
REMARK  7 active torsions:
REMARK  status: ('A' for Active; 'I' for Inactive)
REMARK    1  A    between atoms: C_1  and  C_2
REMARK    2  A    between atoms: C_2  and  C_3
REMARK    3  A    between atoms: C_3  and  C_4
REMARK    4  A    between atoms: C_4  and  C_5
REMARK    5  A    between atoms: C_8  and  C_9
REMARK    6  A    between atoms: C_11  and  C_12
REMARK    7  A    between atoms: C_12  and  N_13
REMARK                            x       y       z     vdW  Elec       q    Type
REMARK                         _______ _______ _______ _____ _____    ______ ____
ROOT
ATOM      1  C   UNL     1       2.253   6.984  19.836  0.00  0.00    +0.000 A 
ATOM      2  N   UNL     1       3.277   6.769  19.021  0.00  0.00    +0.000 NA
ATOM      3  C   UNL     1       3.651   5.463  19.273  0.00  0.00    +0.000 A 
ATOM      4  C   UNL     1       2.825   4.941  20.242  0.00  0.00    +0.000 A 
ATOM      5  O   UNL     1       1.931   5.900  20.609  0.00  0.00    +0.000 OA
ENDROOT
BRANCH   1   9
ATOM      6  C   UNL     1      -0.188  10.515  20.055  0.00  0.00    +0.000 A 
ATOM      7  C   UNL     1       0.591  10.233  18.927  0.00  0.00    +0.000 A 
ATOM      8  C   UNL     1       1.382   9.083  18.880  0.00  0.00    +0.000 A 
ATOM      9  C   UNL     1       1.431   8.187  19.958  0.00  0.00    +0.000 A 
ATOM     10  C   UNL     1       0.667   8.482  21.097  0.00  0.00    +0.000 A 
ATOM     11  C   UNL     1      -0.134   9.633  21.143  0.00  0.00    +0.000 A 
BRANCH   6  12
ATOM     12  C   UNL     1      -1.077  11.738  20.087  0.00  0.00    +0.000 C 
BRANCH  12  13
ATOM     13  C   UNL     1      -1.627  12.071  18.696  0.00  0.00    +0.000 C 
BRANCH  13  15
ATOM     14  C   UNL     1      -2.923  10.169  17.700  0.00  0.00    +0.000 C 
ATOM     15  C   UNL     1      -3.016  11.482  18.465  0.00  0.00    +0.000 C 
ENDBRANCH  13  15
ENDBRANCH  12  13
ENDBRANCH   6  12
ENDBRANCH   1   9
BRANCH   3  16
ATOM     16  C   UNL     1       4.741   4.811  18.468  0.00  0.00    +0.000 C 
BRANCH  16  17
ATOM     17  N   UNL     1       5.596   5.788  17.773  0.00  0.00    +0.000 NA
ATOM     18  C   UNL     1       5.654   5.598  16.306  0.00  0.00    +0.000 C 
ATOM     19  C   UNL     1       6.479   4.386  15.838  0.00  0.00    +0.000 C 
ATOM     20  O   UNL     1       7.808   4.399  16.370  0.00  0.00    +0.000 OA
ATOM     21  C   UNL     1       7.828   4.542  17.792  0.00  0.00    +0.000 C 
ATOM     22  C   UNL     1       6.991   5.743  18.274  0.00  0.00    +0.000 C 
ENDBRANCH  16  17
ENDBRANCH   3  16
TORSDOF 6
ENDMDL
MODEL 9
REMARK VINA RESULT:      -6.7      3.126      9.456
REMARK  Name = 
REMARK  7 active torsions:
REMARK  status: ('A' for Active; 'I' for Inactive)
REMARK    1  A    between atoms: C_1  and  C_2
REMARK    2  A    between atoms: C_2  and  C_3
REMARK    3  A    between atoms: C_3  and  C_4
REMARK    4  A    between atoms: C_4  and  C_5
REMARK    5  A    between atoms: C_8  and  C_9
REMARK    6  A    between atoms: C_11  and  C_12
REMARK    7  A    between atoms: C_12  and  N_13
REMARK                            x       y       z     vdW  Elec       q    Type
REMARK                         _______ _______ _______ _____ _____    ______ ____
ROOT
ATOM      1  C   UNL     1       1.842   8.071  19.551  0.00  0.00    +0.000 A 
ATOM      2  N   UNL     1       2.274   6.836  19.765  0.00  0.00    +0.000 NA
ATOM      3  C   UNL     1       3.067   6.552  18.671  0.00  0.00    +0.000 A 
ATOM      4  C   UNL     1       3.078   7.643  17.832  0.00  0.00    +0.000 A 
ATOM      5  O   UNL     1       2.302   8.617  18.381  0.00  0.00    +0.000 OA
ENDROOT
BRANCH   1   9
ATOM      6  C   UNL     1      -0.534  10.478  22.203  0.00  0.00    +0.000 A 
ATOM      7  C   UNL     1       0.128   9.330  22.653  0.00  0.00    +0.000 A 
ATOM      8  C   UNL     1       0.890   8.560  21.772  0.00  0.00    +0.000 A 
ATOM      9  C   UNL     1       1.004   8.900  20.417  0.00  0.00    +0.000 A 
ATOM     10  C   UNL     1       0.322  10.038  19.962  0.00  0.00    +0.000 A 
ATOM     11  C   UNL     1      -0.438  10.818  20.847  0.00  0.00    +0.000 A 
BRANCH   6  12
ATOM     12  C   UNL     1      -1.323  11.335  23.167  0.00  0.00    +0.000 C 
BRANCH  12  13
ATOM     13  C   UNL     1      -1.185  12.826  22.839  0.00  0.00    +0.000 C 
BRANCH  13  15
ATOM     14  C   UNL     1      -3.504  12.711  23.787  0.00  0.00    +0.000 C 
ATOM     15  C   UNL     1      -2.402  13.633  23.287  0.00  0.00    +0.000 C 
ENDBRANCH  13  15
ENDBRANCH  12  13
ENDBRANCH   6  12
ENDBRANCH   1   9
BRANCH   3  16
ATOM     16  C   UNL     1       3.821   5.253  18.588  0.00  0.00    +0.000 C 
BRANCH  16  17
ATOM     17  N   UNL     1       3.279   4.347  17.559  0.00  0.00    +0.000 NA
ATOM     18  C   UNL     1       1.819   4.127  17.663  0.00  0.00    +0.000 C 
ATOM     19  C   UNL     1       1.375   3.233  18.834  0.00  0.00    +0.000 C 
ATOM     20  O   UNL     1       2.050   1.969  18.834  0.00  0.00    +0.000 OA
ATOM     21  C   UNL     1       3.471   2.106  18.775  0.00  0.00    +0.000 C 
ATOM     22  C   UNL     1       3.926   3.014  17.615  0.00  0.00    +0.000 C 
ENDBRANCH  16  17
ENDBRANCH   3  16
TORSDOF 6
ENDMDL
