MODEL 1
REMARK VINA RESULT:      -8.7      0.000      0.000
REMARK  Name = 
REMARK  4 active torsions:
REMARK  status: ('A' for Active; 'I' for Inactive)
REMARK    1  A    between atoms: C_2  and  C_14
REMARK    2  A    between atoms: C_7  and  C_8
REMARK    3  A    between atoms: CA_21  and  C_22
REMARK    4  A    between atoms: C_22  and  O_23
REMARK                            x       y       z     vdW  Elec       q    Type
REMARK                         _______ _______ _______ _____ _____    ______ ____
ROOT
ATOM      1  O   UNL     1       7.629   6.721  17.194  0.00  0.00    +0.000 OA
ATOM      2  C   UNL     1       6.770   6.029  16.590  0.00  0.00    +0.000 C 
ATOM      3  N   UNL     1       7.251   5.779  15.353  0.00  0.00    +0.000 N 
ATOM      4  C   UNL     1       6.845   4.970  14.333  0.00  0.00    +0.000 A 
ATOM      5  C   UNL     1       7.658   4.877  13.215  0.00  0.00    +0.000 A 
ATOM      6  C   UNL     1       7.296   3.990  12.209  0.00  0.00    +0.000 A 
ATOM      7  C   UNL     1       6.143   3.224  12.370  0.00  0.00    +0.000 A 
ATOM      8  C   UNL     1       5.401   3.414  13.526  0.00  0.00    +0.000 A 
ATOM      9  N   UNL     1       5.717   4.271  14.501  0.00  0.00    +0.000 NA
ATOM     10  H   UNL     1       8.141   6.252  15.231  0.00  0.00    +0.000 HD
ENDROOT
BRANCH   2  11
ATOM     11  C   UNL     1       5.456   5.729  17.326  0.00  0.00    +0.000 A 
ATOM     12  C   UNL     1       4.669   6.870  17.023  0.00  0.00    +0.000 A 
ATOM     13  C   UNL     1       3.610   7.232  17.792  0.00  0.00    +0.000 A 
ATOM     14  C   UNL     1       2.784   6.150  17.901  0.00  0.00    +0.000 A 
ATOM     15  C   UNL     1       3.367   4.931  18.186  0.00  0.00    +0.000 A 
ATOM     16  C   UNL     1       2.441   3.981  18.573  0.00  0.00    +0.000 A 
ATOM     17  C   UNL     1       2.832   2.889  19.284  0.00  0.00    +0.000 A 
ATOM     18  CA  UNL     1       4.170   2.808  19.613  0.00  0.00    +0.000 A 
ATOM     19  N   UNL     1       5.153   3.619  19.004  0.00  0.00    +0.000 NA
ATOM     20  C   UNL     1       4.792   4.709  18.184  0.00  0.00    +0.000 A 
BRANCH  18  21
ATOM     21  C   UNL     1       4.425   1.910  20.824  0.00  0.00    +0.000 C 
BRANCH  21  22
ATOM     22  O   UNL     1       5.509   0.996  20.530  0.00  0.00    +0.000 OA
ATOM     23  H   UNL     1       5.121   0.134  20.312  0.00  0.00    +0.000 HD
ENDBRANCH  21  22
ENDBRANCH  18  21
ENDBRANCH   2  11
BRANCH   7  24
ATOM     24  C   UNL     1       5.657   2.236  11.375  0.00  0.00    +0.000 C 
ATOM     25  F   UNL     1       4.420   2.525  10.889  0.00  0.00    +0.000 F 
ATOM     26  F   UNL     1       6.478   2.153  10.295  0.00  0.00    +0.000 F 
ATOM     27  F   UNL     1       5.579   0.977  11.886  0.00  0.00    +0.000 F 
ENDBRANCH   7  24
TORSDOF 4
ENDMDL
MODEL 2
REMARK VINA RESULT:      -8.3      1.103      1.332
REMARK  Name = 
REMARK  4 active torsions:
REMARK  status: ('A' for Active; 'I' for Inactive)
REMARK    1  A    between atoms: C_2  and  C_14
REMARK    2  A    between atoms: C_7  and  C_8
REMARK    3  A    between atoms: CA_21  and  C_22
REMARK    4  A    between atoms: C_22  and  O_23
REMARK                            x       y       z     vdW  Elec       q    Type
REMARK                         _______ _______ _______ _____ _____    ______ ____
ROOT
ATOM      1  O   UNL     1       7.260   6.708  18.008  0.00  0.00    +0.000 OA
ATOM      2  C   UNL     1       6.435   6.141  17.246  0.00  0.00    +0.000 C 
ATOM      3  N   UNL     1       7.065   5.905  16.075  0.00  0.00    +0.000 N 
ATOM      4  C   UNL     1       6.737   5.196  14.958  0.00  0.00    +0.000 A 
ATOM      5  C   UNL     1       7.692   5.075  13.962  0.00  0.00    +0.000 A 
ATOM      6  C   UNL     1       7.397   4.283  12.859  0.00  0.00    +0.000 A 
ATOM      7  C   UNL     1       6.164   3.635  12.807  0.00  0.00    +0.000 A 
ATOM      8  C   UNL     1       5.283   3.842  13.857  0.00  0.00    +0.000 A 
ATOM      9  N   UNL     1       5.534   4.611  14.920  0.00  0.00    +0.000 NA
ATOM     10  H   UNL     1       8.006   6.288  16.110  0.00  0.00    +0.000 HD
ENDROOT
BRANCH   2  11
ATOM     11  C   UNL     1       5.006   5.943  17.770  0.00  0.00    +0.000 A 
ATOM     12  C   UNL     1       4.344   7.106  17.298  0.00  0.00    +0.000 A 
ATOM     13  C   UNL     1       3.198   7.556  17.869  0.00  0.00    +0.000 A 
ATOM     14  C   UNL     1       2.305   6.524  17.885  0.00  0.00    +0.000 A 
ATOM     15  C   UNL     1       2.764   5.292  18.310  0.00  0.00    +0.000 A 
ATOM     16  C   UNL     1       1.735   4.410  18.579  0.00  0.00    +0.000 A 
ATOM     17  C   UNL     1       1.945   3.336  19.388  0.00  0.00    +0.000 A 
ATOM     18  CA  UNL     1       3.206   3.204  19.933  0.00  0.00    +0.000 A 
ATOM     19  N   UNL     1       4.318   3.936  19.461  0.00  0.00    +0.000 NA
ATOM     20  C   UNL     1       4.156   5.000  18.550  0.00  0.00    +0.000 A 
BRANCH  18  21
ATOM     21  C   UNL     1       3.212   2.356  21.205  0.00  0.00    +0.000 C 
BRANCH  21  22
ATOM     22  O   UNL     1       2.399   2.996  22.218  0.00  0.00    +0.000 OA
ATOM     23  H   UNL     1       1.587   3.313  21.792  0.00  0.00    +0.000 HD
ENDBRANCH  21  22
ENDBRANCH  18  21
ENDBRANCH   2  11
BRANCH   7  24
ATOM     24  C   UNL     1       5.736   2.755  11.691  0.00  0.00    +0.000 C 
ATOM     25  F   UNL     1       5.545   1.462  12.068  0.00  0.00    +0.000 F 
ATOM     26  F   UNL     1       4.564   3.165  11.138  0.00  0.00    +0.000 F 
ATOM     27  F   UNL     1       6.641   2.723  10.675  0.00  0.00    +0.000 F 
ENDBRANCH   7  24
TORSDOF 4
ENDMDL
MODEL 3
REMARK VINA RESULT:      -8.2      4.982      7.854
REMARK  Name = 
REMARK  4 active torsions:
REMARK  status: ('A' for Active; 'I' for Inactive)
REMARK    1  A    between atoms: C_2  and  C_14
REMARK    2  A    between atoms: C_7  and  C_8
REMARK    3  A    between atoms: CA_21  and  C_22
REMARK    4  A    between atoms: C_22  and  O_23
REMARK                            x       y       z     vdW  Elec       q    Type
REMARK                         _______ _______ _______ _____ _____    ______ ____
ROOT
ATOM      1  O   UNL     1       2.294   3.962  21.884  0.00  0.00    +0.000 OA
ATOM      2  C   UNL     1       2.310   4.709  20.871  0.00  0.00    +0.000 C 
ATOM      3  N   UNL     1       1.685   5.858  21.208  0.00  0.00    +0.000 N 
ATOM      4  C   UNL     1       1.539   7.064  20.589  0.00  0.00    +0.000 A 
ATOM      5  C   UNL     1       0.911   8.081  21.288  0.00  0.00    +0.000 A 
ATOM      6  C   UNL     1       0.835   9.336  20.699  0.00  0.00    +0.000 A 
ATOM      7  C   UNL     1       1.403   9.524  19.440  0.00  0.00    +0.000 A 
ATOM      8  C   UNL     1       1.994   8.428  18.830  0.00  0.00    +0.000 A 
ATOM      9  N   UNL     1       2.066   7.207  19.367  0.00  0.00    +0.000 NA
ATOM     10  H   UNL     1       1.334   5.789  22.158  0.00  0.00    +0.000 HD
ENDROOT
BRANCH   2  11
ATOM     11  C   UNL     1       2.920   4.141  19.581  0.00  0.00    +0.000 A 
ATOM     12  C   UNL     1       2.035   3.078  19.267  0.00  0.00    +0.000 A 
ATOM     13  C   UNL     1       2.410   2.050  18.464  0.00  0.00    +0.000 A 
ATOM     14  C   UNL     1       2.883   2.581  17.299  0.00  0.00    +0.000 A 
ATOM     15  C   UNL     1       3.761   3.643  17.394  0.00  0.00    +0.000 A 
ATOM     16  C   UNL     1       4.407   3.902  16.200  0.00  0.00    +0.000 A 
ATOM     17  C   UNL     1       5.579   4.594  16.189  0.00  0.00    +0.000 A 
ATOM     18  CA  UNL     1       6.084   4.983  17.414  0.00  0.00    +0.000 A 
ATOM     19  N   UNL     1       5.312   4.959  18.596  0.00  0.00    +0.000 NA
ATOM     20  C   UNL     1       4.049   4.330  18.629  0.00  0.00    +0.000 A 
BRANCH  18  21
ATOM     21  C   UNL     1       7.591   5.235  17.375  0.00  0.00    +0.000 C 
BRANCH  21  22
ATOM     22  O   UNL     1       8.295   4.011  17.695  0.00  0.00    +0.000 OA
ATOM     23  H   UNL     1       7.780   3.537  18.366  0.00  0.00    +0.000 HD
ENDBRANCH  21  22
ENDBRANCH  18  21
ENDBRANCH   2  11
BRANCH   7  24
ATOM     24  C   UNL     1       1.397  10.817  18.711  0.00  0.00    +0.000 C 
ATOM     25  F   UNL     1       1.727  11.879  19.495  0.00  0.00    +0.000 F 
ATOM     26  F   UNL     1       2.277  10.824  17.675  0.00  0.00    +0.000 F 
ATOM     27  F   UNL     1       0.180  11.107  18.174  0.00  0.00    +0.000 F 
ENDBRANCH   7  24
TORSDOF 4
ENDMDL
MODEL 4
REMARK VINA RESULT:      -8.0      4.961      8.017
REMARK  Name = 
REMARK  4 active torsions:
REMARK  status: ('A' for Active; 'I' for Inactive)
REMARK    1  A    between atoms: C_2  and  C_14
REMARK    2  A    between atoms: C_7  and  C_8
REMARK    3  A    between atoms: CA_21  and  C_22
REMARK    4  A    between atoms: C_22  and  O_23
REMARK                            x       y       z     vdW  Elec       q    Type
REMARK                         _______ _______ _______ _____ _____    ______ ____
ROOT
ATOM      1  O   UNL     1       2.309   3.857  21.813  0.00  0.00    +0.000 OA
ATOM      2  C   UNL     1       2.388   4.646  20.837  0.00  0.00    +0.000 C 
ATOM      3  N   UNL     1       1.658   5.741  21.143  0.00  0.00    +0.000 N 
ATOM      4  C   UNL     1       1.504   6.962  20.557  0.00  0.00    +0.000 A 
ATOM      5  C   UNL     1       0.740   7.909  21.219  0.00  0.00    +0.000 A 
ATOM      6  C   UNL     1       0.649   9.182  20.671  0.00  0.00    +0.000 A 
ATOM      7  C   UNL     1       1.337   9.457  19.491  0.00  0.00    +0.000 A 
ATOM      8  C   UNL     1       2.059   8.426  18.911  0.00  0.00    +0.000 A 
ATOM      9  N   UNL     1       2.150   7.188  19.407  0.00  0.00    +0.000 NA
ATOM     10  H   UNL     1       1.211   5.611  22.046  0.00  0.00    +0.000 HD
ENDROOT
BRANCH   2  11
ATOM     11  C   UNL     1       3.170   4.173  19.603  0.00  0.00    +0.000 A 
ATOM     12  C   UNL     1       2.623   2.884  19.373  0.00  0.00    +0.000 A 
ATOM     13  C   UNL     1       3.293   1.941  18.660  0.00  0.00    +0.000 A 
ATOM     14  C   UNL     1       3.634   2.490  17.458  0.00  0.00    +0.000 A 
ATOM     15  C   UNL     1       4.180   3.759  17.470  0.00  0.00    +0.000 A 
ATOM     16  C   UNL     1       4.764   4.094  16.264  0.00  0.00    +0.000 A 
ATOM     17  C   UNL     1       5.698   5.082  16.203  0.00  0.00    +0.000 A 
ATOM     18  CA  UNL     1       6.039   5.690  17.394  0.00  0.00    +0.000 A 
ATOM     19  N   UNL     1       5.269   5.545  18.569  0.00  0.00    +0.000 NA
ATOM     20  C   UNL     1       4.230   4.594  18.646  0.00  0.00    +0.000 A 
BRANCH  18  21
ATOM     21  C   UNL     1       7.418   6.349  17.345  0.00  0.00    +0.000 C 
BRANCH  21  22
ATOM     22  O   UNL     1       7.278   7.735  16.948  0.00  0.00    +0.000 OA
ATOM     23  H   UNL     1       7.742   8.280  17.602  0.00  0.00    +0.000 HD
ENDBRANCH  21  22
ENDBRANCH  18  21
ENDBRANCH   2  11
BRANCH   7  24
ATOM     24  C   UNL     1       1.328  10.778  18.813  0.00  0.00    +0.000 C 
ATOM     25  F   UNL     1       2.267  10.889  17.836  0.00  0.00    +0.000 F 
ATOM     26  F   UNL     1       0.133  11.041  18.222  0.00  0.00    +0.000 F 
ATOM     27  F   UNL     1       1.556  11.807  19.675  0.00  0.00    +0.000 F 
ENDBRANCH   7  24
TORSDOF 4
ENDMDL
MODEL 5
REMARK VINA RESULT:      -8.0      1.931      3.472
REMARK  Name = 
REMARK  4 active torsions:
REMARK  status: ('A' for Active; 'I' for Inactive)
REMARK    1  A    between atoms: C_2  and  C_14
REMARK    2  A    between atoms: C_7  and  C_8
REMARK    3  A    between atoms: CA_21  and  C_22
REMARK    4  A    between atoms: C_22  and  O_23
REMARK                            x       y       z     vdW  Elec       q    Type
REMARK                         _______ _______ _______ _____ _____    ______ ____
ROOT
ATOM      1  O   UNL     1       7.760   6.688  17.225  0.00  0.00    +0.000 OA
ATOM      2  C   UNL     1       6.865   6.041  16.622  0.00  0.00    +0.000 C 
ATOM      3  N   UNL     1       7.328   5.774  15.382  0.00  0.00    +0.000 N 
ATOM      4  C   UNL     1       6.878   4.990  14.360  0.00  0.00    +0.000 A 
ATOM      5  C   UNL     1       7.681   4.863  13.238  0.00  0.00    +0.000 A 
ATOM      6  C   UNL     1       7.271   4.000  12.230  0.00  0.00    +0.000 A 
ATOM      7  C   UNL     1       6.083   3.290  12.393  0.00  0.00    +0.000 A 
ATOM      8  C   UNL     1       5.356   3.511  13.553  0.00  0.00    +0.000 A 
ATOM      9  N   UNL     1       5.718   4.347  14.530  0.00  0.00    +0.000 NA
ATOM     10  H   UNL     1       8.240   6.203  15.258  0.00  0.00    +0.000 HD
ENDROOT
BRANCH   2  11
ATOM     11  C   UNL     1       5.542   5.802  17.363  0.00  0.00    +0.000 A 
ATOM     12  C   UNL     1       5.615   4.421  17.679  0.00  0.00    +0.000 A 
ATOM     13  C   UNL     1       4.503   3.691  17.953  0.00  0.00    +0.000 A 
ATOM     14  C   UNL     1       3.818   4.329  18.946  0.00  0.00    +0.000 A 
ATOM     15  C   UNL     1       3.647   5.695  18.826  0.00  0.00    +0.000 A 
ATOM     16  C   UNL     1       2.698   6.187  19.701  0.00  0.00    +0.000 A 
ATOM     17  C   UNL     1       2.091   7.380  19.457  0.00  0.00    +0.000 A 
ATOM     18  CA  UNL     1       2.450   8.035  18.296  0.00  0.00    +0.000 A 
ATOM     19  N   UNL     1       3.591   7.679  17.545  0.00  0.00    +0.000 NA
ATOM     20  C   UNL     1       4.306   6.494  17.822  0.00  0.00    +0.000 A 
BRANCH  18  21
ATOM     21  C   UNL     1       1.382   9.022  17.824  0.00  0.00    +0.000 C 
BRANCH  21  22
ATOM     22  O   UNL     1       2.015  10.256  17.406  0.00  0.00    +0.000 OA
ATOM     23  H   UNL     1       1.481  10.993  17.741  0.00  0.00    +0.000 HD
ENDBRANCH  21  22
ENDBRANCH  18  21
ENDBRANCH   2  11
BRANCH   7  24
ATOM     24  C   UNL     1       5.544   2.332  11.396  0.00  0.00    +0.000 C 
ATOM     25  F   UNL     1       6.286   2.265  10.258  0.00  0.00    +0.000 F 
ATOM     26  F   UNL     1       5.486   1.065  11.885  0.00  0.00    +0.000 F 
ATOM     27  F   UNL     1       4.278   2.643  11.005  0.00  0.00    +0.000 F 
ENDBRANCH   7  24
TORSDOF 4
ENDMDL
MODEL 6
REMARK VINA RESULT:      -7.9      2.066      3.538
REMARK  Name = 
REMARK  4 active torsions:
REMARK  status: ('A' for Active; 'I' for Inactive)
REMARK    1  A    between atoms: C_2  and  C_14
REMARK    2  A    between atoms: C_7  and  C_8
REMARK    3  A    between atoms: CA_21  and  C_22
REMARK    4  A    between atoms: C_22  and  O_23
REMARK                            x       y       z     vdW  Elec       q    Type
REMARK                         _______ _______ _______ _____ _____    ______ ____
ROOT
ATOM      1  O   UNL     1       7.735   5.798  18.281  0.00  0.00    +0.000 OA
ATOM      2  C   UNL     1       6.756   5.503  17.548  0.00  0.00    +0.000 C 
ATOM      3  N   UNL     1       7.227   5.349  16.292  0.00  0.00    +0.000 N 
ATOM      4  C   UNL     1       6.678   4.887  15.132  0.00  0.00    +0.000 A 
ATOM      5  C   UNL     1       7.503   4.762  14.027  0.00  0.00    +0.000 A 
ATOM      6  C   UNL     1       6.972   4.212  12.867  0.00  0.00    +0.000 A 
ATOM      7  C   UNL     1       5.641   3.798  12.867  0.00  0.00    +0.000 A 
ATOM      8  C   UNL     1       4.908   3.986  14.029  0.00  0.00    +0.000 A 
ATOM      9  N   UNL     1       5.389   4.527  15.152  0.00  0.00    +0.000 NA
ATOM     10  H   UNL     1       8.221   5.556  16.272  0.00  0.00    +0.000 HD
ENDROOT
BRANCH   2  11
ATOM     11  C   UNL     1       5.366   5.471  18.198  0.00  0.00    +0.000 A 
ATOM     12  C   UNL     1       5.305   4.154  18.721  0.00  0.00    +0.000 A 
ATOM     13  C   UNL     1       4.121   3.551  19.003  0.00  0.00    +0.000 A 
ATOM     14  C   UNL     1       3.416   4.380  19.828  0.00  0.00    +0.000 A 
ATOM     15  C   UNL     1       3.364   5.719  19.491  0.00  0.00    +0.000 A 
ATOM     16  C   UNL     1       2.394   6.404  20.198  0.00  0.00    +0.000 A 
ATOM     17  C   UNL     1       1.904   7.583  19.728  0.00  0.00    +0.000 A 
ATOM     18  CA  UNL     1       2.400   8.024  18.517  0.00  0.00    +0.000 A 
ATOM     19  N   UNL     1       3.563   7.480  17.929  0.00  0.00    +0.000 NA
ATOM     20  C   UNL     1       4.158   6.308  18.441  0.00  0.00    +0.000 A 
BRANCH  18  21
ATOM     21  C   UNL     1       1.453   8.996  17.813  0.00  0.00    +0.000 C 
BRANCH  21  22
ATOM     22  O   UNL     1       2.191  10.167  17.387  0.00  0.00    +0.000 OA
ATOM     23  H   UNL     1       1.589  10.928  17.425  0.00  0.00    +0.000 HD
ENDBRANCH  21  22
ENDBRANCH  18  21
ENDBRANCH   2  11
BRANCH   7  24
ATOM     24  C   UNL     1       4.962   3.186  11.697  0.00  0.00    +0.000 C 
ATOM     25  F   UNL     1       3.642   2.938  11.910  0.00  0.00    +0.000 F 
ATOM     26  F   UNL     1       5.025   3.981  10.597  0.00  0.00    +0.000 F 
ATOM     27  F   UNL     1       5.517   1.997  11.335  0.00  0.00    +0.000 F 
ENDBRANCH   7  24
TORSDOF 4
ENDMDL
MODEL 7
REMARK VINA RESULT:      -7.9      1.407      1.554
REMARK  Name = 
REMARK  4 active torsions:
REMARK  status: ('A' for Active; 'I' for Inactive)
REMARK    1  A    between atoms: C_2  and  C_14
REMARK    2  A    between atoms: C_7  and  C_8
REMARK    3  A    between atoms: CA_21  and  C_22
REMARK    4  A    between atoms: C_22  and  O_23
REMARK                            x       y       z     vdW  Elec       q    Type
REMARK                         _______ _______ _______ _____ _____    ______ ____
ROOT
ATOM      1  O   UNL     1       7.938   4.781  17.517  0.00  0.00    +0.000 OA
ATOM      2  C   UNL     1       6.883   4.783  16.832  0.00  0.00    +0.000 C 
ATOM      3  N   UNL     1       7.231   4.520  15.554  0.00  0.00    +0.000 N 
ATOM      4  C   UNL     1       6.520   4.247  14.423  0.00  0.00    +0.000 A 
ATOM      5  C   UNL     1       7.224   3.911  13.279  0.00  0.00    +0.000 A 
ATOM      6  C   UNL     1       6.506   3.548  12.147  0.00  0.00    +0.000 A 
ATOM      7  C   UNL     1       5.114   3.524  12.212  0.00  0.00    +0.000 A 
ATOM      8  C   UNL     1       4.519   3.894  13.409  0.00  0.00    +0.000 A 
ATOM      9  N   UNL     1       5.185   4.263  14.507  0.00  0.00    +0.000 NA
ATOM     10  H   UNL     1       8.242   4.441  15.486  0.00  0.00    +0.000 HD
ENDROOT
BRANCH   2  11
ATOM     11  C   UNL     1       5.572   5.133  17.551  0.00  0.00    +0.000 A 
ATOM     12  C   UNL     1       5.336   6.466  17.123  0.00  0.00    +0.000 A 
ATOM     13  C   UNL     1       4.535   7.309  17.823  0.00  0.00    +0.000 A 
ATOM     14  C   UNL     1       3.331   6.691  18.002  0.00  0.00    +0.000 A 
ATOM     15  C   UNL     1       3.349   5.371  18.412  0.00  0.00    +0.000 A 
ATOM     16  C   UNL     1       2.112   4.940  18.853  0.00  0.00    +0.000 A 
ATOM     17  C   UNL     1       2.014   3.857  19.671  0.00  0.00    +0.000 A 
ATOM     18  CA  UNL     1       3.196   3.252  20.047  0.00  0.00    +0.000 A 
ATOM     19  N   UNL     1       4.423   3.514  19.400  0.00  0.00    +0.000 NA
ATOM     20  C   UNL     1       4.548   4.573  18.475  0.00  0.00    +0.000 A 
BRANCH  18  21
ATOM     21  C   UNL     1       3.060   2.449  21.341  0.00  0.00    +0.000 C 
BRANCH  21  22
ATOM     22  O   UNL     1       2.166   3.138  22.247  0.00  0.00    +0.000 OA
ATOM     23  H   UNL     1       1.276   3.116  21.862  0.00  0.00    +0.000 HD
ENDBRANCH  21  22
ENDBRANCH  18  21
ENDBRANCH   2  11
BRANCH   7  24
ATOM     24  C   UNL     1       4.236   3.144  11.077  0.00  0.00    +0.000 C 
ATOM     25  F   UNL     1       4.036   4.154  10.189  0.00  0.00    +0.000 F 
ATOM     26  F   UNL     1       4.745   2.106  10.362  0.00  0.00    +0.000 F 
ATOM     27  F   UNL     1       2.999   2.748  11.485  0.00  0.00    +0.000 F 
ENDBRANCH   7  24
TORSDOF 4
ENDMDL
MODEL 8
REMARK VINA RESULT:      -7.6      2.435      3.769
REMARK  Name = 
REMARK  4 active torsions:
REMARK  status: ('A' for Active; 'I' for Inactive)
REMARK    1  A    between atoms: C_2  and  C_14
REMARK    2  A    between atoms: C_7  and  C_8
REMARK    3  A    between atoms: CA_21  and  C_22
REMARK    4  A    between atoms: C_22  and  O_23
REMARK                            x       y       z     vdW  Elec       q    Type
REMARK                         _______ _______ _______ _____ _____    ______ ____
ROOT
ATOM      1  O   UNL     1       7.095   5.310  19.761  0.00  0.00    +0.000 OA
ATOM      2  C   UNL     1       6.274   5.127  18.826  0.00  0.00    +0.000 C 
ATOM      3  N   UNL     1       6.972   5.131  17.671  0.00  0.00    +0.000 N 
ATOM      4  C   UNL     1       6.653   4.832  16.379  0.00  0.00    +0.000 A 
ATOM      5  C   UNL     1       7.671   4.841  15.440  0.00  0.00    +0.000 A 
ATOM      6  C   UNL     1       7.371   4.454  14.140  0.00  0.00    +0.000 A 
ATOM      7  C   UNL     1       6.069   4.061  13.838  0.00  0.00    +0.000 A 
ATOM      8  C   UNL     1       5.131   4.105  14.858  0.00  0.00    +0.000 A 
ATOM      9  N   UNL     1       5.388   4.489  16.112  0.00  0.00    +0.000 NA
ATOM     10  H   UNL     1       7.950   5.327  17.863  0.00  0.00    +0.000 HD
ENDROOT
BRANCH   2  11
ATOM     11  C   UNL     1       4.787   5.028  19.197  0.00  0.00    +0.000 A 
ATOM     12  C   UNL     1       4.581   3.626  19.257  0.00  0.00    +0.000 A 
ATOM     13  C   UNL     1       3.343   3.080  19.135  0.00  0.00    +0.000 A 
ATOM     14  C   UNL     1       2.530   3.679  20.054  0.00  0.00    +0.000 A 
ATOM     15  C   UNL     1       2.592   5.056  20.157  0.00  0.00    +0.000 A 
ATOM     16  C   UNL     1       1.535   5.579  20.877  0.00  0.00    +0.000 A 
ATOM     17  C   UNL     1       1.185   6.886  20.732  0.00  0.00    +0.000 A 
ATOM     18  CA  UNL     1       1.912   7.628  19.823  0.00  0.00    +0.000 A 
ATOM     19  N   UNL     1       3.142   7.183  19.291  0.00  0.00    +0.000 NA
ATOM     20  C   UNL     1       3.588   5.860  19.492  0.00  0.00    +0.000 A 
BRANCH  18  21
ATOM     21  C   UNL     1       1.149   8.853  19.320  0.00  0.00    +0.000 C 
BRANCH  21  22
ATOM     22  O   UNL     1       1.439   9.062  17.917  0.00  0.00    +0.000 OA
ATOM     23  H   UNL     1       0.670   8.763  17.406  0.00  0.00    +0.000 HD
ENDBRANCH  21  22
ENDBRANCH  18  21
ENDBRANCH   2  11
BRANCH   7  24
ATOM     24  C   UNL     1       5.627   3.616  12.493  0.00  0.00    +0.000 C 
ATOM     25  F   UNL     1       5.814   2.287  12.276  0.00  0.00    +0.000 F 
ATOM     26  F   UNL     1       4.304   3.850  12.287  0.00  0.00    +0.000 F 
ATOM     27  F   UNL     1       6.284   4.260  11.489  0.00  0.00    +0.000 F 
ENDBRANCH   7  24
TORSDOF 4
ENDMDL
MODEL 9
REMARK VINA RESULT:      -7.3      6.708      8.917
REMARK  Name = 
REMARK  4 active torsions:
REMARK  status: ('A' for Active; 'I' for Inactive)
REMARK    1  A    between atoms: C_2  and  C_14
REMARK    2  A    between atoms: C_7  and  C_8
REMARK    3  A    between atoms: CA_21  and  C_22
REMARK    4  A    between atoms: C_22  and  O_23
REMARK                            x       y       z     vdW  Elec       q    Type
REMARK                         _______ _______ _______ _____ _____    ______ ____
ROOT
ATOM      1  O   UNL     1       1.461  10.193  21.585  0.00  0.00    +0.000 OA
ATOM      2  C   UNL     1       0.915   9.744  20.544  0.00  0.00    +0.000 C 
ATOM      3  N   UNL     1      -0.223  10.443  20.352  0.00  0.00    +0.000 N 
ATOM      4  C   UNL     1      -1.125  10.510  19.331  0.00  0.00    +0.000 A 
ATOM      5  C   UNL     1      -2.147  11.440  19.426  0.00  0.00    +0.000 A 
ATOM      6  C   UNL     1      -3.018  11.573  18.353  0.00  0.00    +0.000 A 
ATOM      7  C   UNL     1      -2.821  10.780  17.224  0.00  0.00    +0.000 A 
ATOM      8  C   UNL     1      -1.772   9.874  17.249  0.00  0.00    +0.000 A 
ATOM      9  N   UNL     1      -0.930   9.713  18.274  0.00  0.00    +0.000 NA
ATOM     10  H   UNL     1      -0.353  11.100  21.116  0.00  0.00    +0.000 HD
ENDROOT
BRANCH   2  11
ATOM     11  C   UNL     1       1.589   8.552  19.848  0.00  0.00    +0.000 A 
ATOM     12  C   UNL     1       2.087   9.138  18.656  0.00  0.00    +0.000 A 
ATOM     13  C   UNL     1       2.378   8.391  17.560  0.00  0.00    +0.000 A 
ATOM     14  C   UNL     1       3.230   7.397  17.945  0.00  0.00    +0.000 A 
ATOM     15  C   UNL     1       2.920   6.705  19.101  0.00  0.00    +0.000 A 
ATOM     16  C   UNL     1       3.657   5.544  19.234  0.00  0.00    +0.000 A 
ATOM     17  C   UNL     1       3.217   4.541  20.042  0.00  0.00    +0.000 A 
ATOM     18  CA  UNL     1       2.008   4.737  20.677  0.00  0.00    +0.000 A 
ATOM     19  N   UNL     1       1.390   6.004  20.758  0.00  0.00    +0.000 NA
ATOM     20  C   UNL     1       1.868   7.098  20.006  0.00  0.00    +0.000 A 
BRANCH  18  21
ATOM     21  C   UNL     1       1.339   3.425  21.086  0.00  0.00    +0.000 C 
BRANCH  21  22
ATOM     22  O   UNL     1       2.043   2.854  22.215  0.00  0.00    +0.000 OA
ATOM     23  H   UNL     1       2.750   3.469  22.468  0.00  0.00    +0.000 HD
ENDBRANCH  21  22
ENDBRANCH  18  21
ENDBRANCH   2  11
BRANCH   7  24
ATOM     24  C   UNL     1      -3.675  10.836  16.011  0.00  0.00    +0.000 C 
ATOM     25  F   UNL     1      -4.913  11.346  16.247  0.00  0.00    +0.000 F 
ATOM     26  F   UNL     1      -3.127  11.609  15.036  0.00  0.00    +0.000 F 
ATOM     27  F   UNL     1      -3.870   9.610  15.454  0.00  0.00    +0.000 F 
ENDBRANCH   7  24
TORSDOF 4
ENDMDL
