MODEL 1
REMARK VINA RESULT:      -9.2      0.000      0.000
REMARK  Name = 
REMARK  11 active torsions:
REMARK  status: ('A' for Active; 'I' for Inactive)
REMARK    1  A    between atoms: C_1  and  O_2
REMARK    2  A    between atoms: O_2  and  C_3
REMARK    3  A    between atoms: C_7  and  N_8
REMARK    4  A    between atoms: N_11  and  C_12
REMARK    5  A    between atoms: C_12  and  C_13
REMARK    6  A    between atoms: C_16  and  O_17
REMARK    7  A    between atoms: O_17  and  C_18
REMARK    8  A    between atoms: C_24  and  O_25
REMARK    9  A    between atoms: O_25  and  C_26
REMARK   10  A    between atoms: C_27  and  O_28
REMARK   11  A    between atoms: O_28  and  C_29
REMARK                            x       y       z     vdW  Elec       q    Type
REMARK                         _______ _______ _______ _____ _____    ______ ____
ROOT
ATOM      1  C   UNL     1       1.746   7.253  20.667  0.00  0.00    +0.000 A 
ATOM      2  C   UNL     1       1.421   5.911  20.931  0.00  0.00    +0.000 A 
ATOM      3  C   UNL     1       1.486   4.902  19.930  0.00  0.00    +0.000 A 
ATOM      4  C   UNL     1       1.837   5.195  18.604  0.00  0.00    +0.000 A 
ATOM      5  C   UNL     1       2.201   6.520  18.334  0.00  0.00    +0.000 A 
ATOM      6  C   UNL     1       2.139   7.528  19.336  0.00  0.00    +0.000 A 
ENDROOT
BRANCH   1   7
ATOM      7  C   UNL     1       1.458   8.420  21.627  0.00  0.00    +0.000 C 
BRANCH   7  11
ATOM      8  N   UNL     1      -0.792  11.366  21.896  0.00  0.00    +0.000 N 
ATOM      9  C   UNL     1       0.044  10.313  22.306  0.00  0.00    +0.000 C 
ATOM     10  O   UNL     1       0.261  10.000  23.482  0.00  0.00    +0.000 OA
ATOM     11  N   UNL     1       0.668   9.617  21.242  0.00  0.00    +0.000 N 
ATOM     12  H   UNL     1      -0.845  11.546  20.909  0.00  0.00    +0.000 HD
ATOM     13  H   UNL     1       0.155   9.559  20.377  0.00  0.00    +0.000 HD
BRANCH   8  18
ATOM     14  C   UNL     1      -3.607  12.847  23.969  0.00  0.00    +0.000 A 
ATOM     15  C   UNL     1      -3.060  14.065  24.358  0.00  0.00    +0.000 A 
ATOM     16  C   UNL     1      -1.768  14.398  23.970  0.00  0.00    +0.000 A 
ATOM     17  C   UNL     1      -1.009  13.513  23.174  0.00  0.00    +0.000 A 
ATOM     18  C   UNL     1      -1.526  12.286  22.747  0.00  0.00    +0.000 A 
ATOM     19  C   UNL     1      -2.837  11.961  23.166  0.00  0.00    +0.000 A 
BRANCH  14  21
ATOM     20  C   UNL     1      -5.967  12.989  23.580  0.00  0.00    +0.000 C 
ATOM     21  O   UNL     1      -4.881  12.683  24.433  0.00  0.00    +0.000 OA
ENDBRANCH  14  21
ENDBRANCH   8  18
ENDBRANCH   7  11
ENDBRANCH   1   7
BRANCH   4  22
ATOM     22  O   UNL     1       2.139   4.201  17.692  0.00  0.00    +0.000 OA
BRANCH  22  23
ATOM     23  C   UNL     1       3.406   3.622  17.486  0.00  0.00    +0.000 A 
ATOM     24  N   UNL     1       3.424   2.457  18.153  0.00  0.00    +0.000 NA
ATOM     25  C   UNL     1       4.231   2.450  19.211  0.00  0.00    +0.000 A 
ATOM     26  N   UNL     1       5.022   3.468  19.571  0.00  0.00    +0.000 NA
ATOM     27  C   UNL     1       5.259   4.371  18.613  0.00  0.00    +0.000 A 
ATOM     28  C   UNL     1       6.310   5.253  18.773  0.00  0.00    +0.000 A 
ATOM     29  C   UNL     1       6.967   5.833  17.669  0.00  0.00    +0.000 A 
ATOM     30  C   UNL     1       6.577   5.447  16.384  0.00  0.00    +0.000 A 
ATOM     31  C   UNL     1       5.353   4.748  16.257  0.00  0.00    +0.000 A 
ATOM     32  C   UNL     1       4.595   4.352  17.408  0.00  0.00    +0.000 A 
BRANCH  29  33
ATOM     33  O   UNL     1       8.008   6.708  17.821  0.00  0.00    +0.000 OA
ATOM     34  C   UNL     1       7.712   8.098  17.742  0.00  0.00    +0.000 C 
ENDBRANCH  29  33
BRANCH  30  35
ATOM     35  O   UNL     1       7.258   5.619  15.207  0.00  0.00    +0.000 OA
ATOM     36  C   UNL     1       7.058   4.726  14.111  0.00  0.00    +0.000 C 
ENDBRANCH  30  35
ENDBRANCH  22  23
ENDBRANCH   4  22
TORSDOF 8
ENDMDL
MODEL 2
REMARK VINA RESULT:      -8.7      3.011      3.330
REMARK  Name = 
REMARK  11 active torsions:
REMARK  status: ('A' for Active; 'I' for Inactive)
REMARK    1  A    between atoms: C_1  and  O_2
REMARK    2  A    between atoms: O_2  and  C_3
REMARK    3  A    between atoms: C_7  and  N_8
REMARK    4  A    between atoms: N_11  and  C_12
REMARK    5  A    between atoms: C_12  and  C_13
REMARK    6  A    between atoms: C_16  and  O_17
REMARK    7  A    between atoms: O_17  and  C_18
REMARK    8  A    between atoms: C_24  and  O_25
REMARK    9  A    between atoms: O_25  and  C_26
REMARK   10  A    between atoms: C_27  and  O_28
REMARK   11  A    between atoms: O_28  and  C_29
REMARK                            x       y       z     vdW  Elec       q    Type
REMARK                         _______ _______ _______ _____ _____    ______ ____
ROOT
ATOM      1  C   UNL     1       1.978   7.819  19.566  0.00  0.00    +0.000 A 
ATOM      2  C   UNL     1       1.829   6.750  20.467  0.00  0.00    +0.000 A 
ATOM      3  C   UNL     1       1.832   5.392  20.044  0.00  0.00    +0.000 A 
ATOM      4  C   UNL     1       1.939   5.038  18.690  0.00  0.00    +0.000 A 
ATOM      5  C   UNL     1       2.127   6.090  17.784  0.00  0.00    +0.000 A 
ATOM      6  C   UNL     1       2.128   7.447  18.209  0.00  0.00    +0.000 A 
ENDROOT
BRANCH   1   7
ATOM      7  C   UNL     1       1.734   9.295  19.924  0.00  0.00    +0.000 C 
BRANCH   7  11
ATOM      8  N   UNL     1      -0.850  11.072  17.930  0.00  0.00    +0.000 N 
ATOM      9  C   UNL     1      -0.302  10.225  18.908  0.00  0.00    +0.000 C 
ATOM     10  O   UNL     1      -0.960   9.505  19.668  0.00  0.00    +0.000 OA
ATOM     11  N   UNL     1       1.111  10.267  18.991  0.00  0.00    +0.000 N 
ATOM     12  H   UNL     1      -0.206  11.643  17.411  0.00  0.00    +0.000 HD
ATOM     13  H   UNL     1       1.608  10.452  18.135  0.00  0.00    +0.000 HD
BRANCH   8  18
ATOM     14  C   UNL     1      -4.520  11.900  18.441  0.00  0.00    +0.000 A 
ATOM     15  C   UNL     1      -5.043  11.655  17.176  0.00  0.00    +0.000 A 
ATOM     16  C   UNL     1      -4.203  11.246  16.148  0.00  0.00    +0.000 A 
ATOM     17  C   UNL     1      -2.823  11.066  16.380  0.00  0.00    +0.000 A 
ATOM     18  C   UNL     1      -2.257  11.284  17.641  0.00  0.00    +0.000 A 
ATOM     19  C   UNL     1      -3.128  11.715  18.668  0.00  0.00    +0.000 A 
BRANCH  14  21
ATOM     20  C   UNL     1      -5.087  12.750  20.608  0.00  0.00    +0.000 C 
ATOM     21  O   UNL     1      -5.481  12.290  19.330  0.00  0.00    +0.000 OA
ENDBRANCH  14  21
ENDBRANCH   8  18
ENDBRANCH   7  11
ENDBRANCH   1   7
BRANCH   4  22
ATOM     22  O   UNL     1       2.188   3.738  18.293  0.00  0.00    +0.000 OA
BRANCH  22  23
ATOM     23  C   UNL     1       3.445   3.199  17.956  0.00  0.00    +0.000 A 
ATOM     24  N   UNL     1       3.695   2.202  18.820  0.00  0.00    +0.000 NA
ATOM     25  C   UNL     1       4.678   2.461  19.677  0.00  0.00    +0.000 A 
ATOM     26  N   UNL     1       5.422   3.574  19.669  0.00  0.00    +0.000 NA
ATOM     27  C   UNL     1       5.394   4.269  18.526  0.00  0.00    +0.000 A 
ATOM     28  C   UNL     1       6.368   5.221  18.300  0.00  0.00    +0.000 A 
ATOM     29  C   UNL     1       6.754   5.593  16.997  0.00  0.00    +0.000 A 
ATOM     30  C   UNL     1       6.174   4.926  15.914  0.00  0.00    +0.000 A 
ATOM     31  C   UNL     1       5.019   4.150  16.171  0.00  0.00    +0.000 A 
ATOM     32  C   UNL     1       4.525   3.962  17.504  0.00  0.00    +0.000 A 
BRANCH  29  33
ATOM     33  O   UNL     1       7.718   6.537  16.767  0.00  0.00    +0.000 OA
ATOM     34  C   UNL     1       7.656   7.737  17.531  0.00  0.00    +0.000 C 
ENDBRANCH  29  33
BRANCH  30  35
ATOM     35  O   UNL     1       6.610   4.887  14.615  0.00  0.00    +0.000 OA
ATOM     36  C   UNL     1       6.148   3.872  13.722  0.00  0.00    +0.000 C 
ENDBRANCH  30  35
ENDBRANCH  22  23
ENDBRANCH   4  22
TORSDOF 8
ENDMDL
MODEL 3
REMARK VINA RESULT:      -8.6      1.053      1.739
REMARK  Name = 
REMARK  11 active torsions:
REMARK  status: ('A' for Active; 'I' for Inactive)
REMARK    1  A    between atoms: C_1  and  O_2
REMARK    2  A    between atoms: O_2  and  C_3
REMARK    3  A    between atoms: C_7  and  N_8
REMARK    4  A    between atoms: N_11  and  C_12
REMARK    5  A    between atoms: C_12  and  C_13
REMARK    6  A    between atoms: C_16  and  O_17
REMARK    7  A    between atoms: O_17  and  C_18
REMARK    8  A    between atoms: C_24  and  O_25
REMARK    9  A    between atoms: O_25  and  C_26
REMARK   10  A    between atoms: C_27  and  O_28
REMARK   11  A    between atoms: O_28  and  C_29
REMARK                            x       y       z     vdW  Elec       q    Type
REMARK                         _______ _______ _______ _____ _____    ______ ____
ROOT
ATOM      1  C   UNL     1       1.414   7.773  20.614  0.00  0.00    +0.000 A 
ATOM      2  C   UNL     1       1.961   7.860  19.322  0.00  0.00    +0.000 A 
ATOM      3  C   UNL     1       2.313   6.707  18.565  0.00  0.00    +0.000 A 
ATOM      4  C   UNL     1       2.174   5.411  19.083  0.00  0.00    +0.000 A 
ATOM      5  C   UNL     1       1.594   5.305  20.353  0.00  0.00    +0.000 A 
ATOM      6  C   UNL     1       1.239   6.458  21.108  0.00  0.00    +0.000 A 
ENDROOT
BRANCH   1   7
ATOM      7  C   UNL     1       1.250   8.967  21.569  0.00  0.00    +0.000 C 
BRANCH   7  11
ATOM      8  N   UNL     1      -1.118  11.809  21.923  0.00  0.00    +0.000 N 
ATOM      9  C   UNL     1      -0.285  10.742  22.301  0.00  0.00    +0.000 C 
ATOM     10  O   UNL     1      -0.161  10.317  23.454  0.00  0.00    +0.000 OA
ATOM     11  N   UNL     1       0.455  10.176  21.234  0.00  0.00    +0.000 N 
ATOM     12  H   UNL     1      -1.090  12.088  20.958  0.00  0.00    +0.000 HD
ATOM     13  H   UNL     1       0.022  10.193  20.325  0.00  0.00    +0.000 HD
BRANCH   8  18
ATOM     14  C   UNL     1      -2.415  14.803  23.866  0.00  0.00    +0.000 A 
ATOM     15  C   UNL     1      -3.506  14.255  24.532  0.00  0.00    +0.000 A 
ATOM     16  C   UNL     1      -3.839  12.921  24.333  0.00  0.00    +0.000 A 
ATOM     17  C   UNL     1      -3.071  12.113  23.468  0.00  0.00    +0.000 A 
ATOM     18  C   UNL     1      -1.956  12.617  22.791  0.00  0.00    +0.000 A 
ATOM     19  C   UNL     1      -1.645  13.981  22.996  0.00  0.00    +0.000 A 
BRANCH  14  21
ATOM     20  C   UNL     1      -2.547  16.570  25.478  0.00  0.00    +0.000 C 
ATOM     21  O   UNL     1      -2.228  16.120  24.176  0.00  0.00    +0.000 OA
ENDBRANCH  14  21
ENDBRANCH   8  18
ENDBRANCH   7  11
ENDBRANCH   1   7
BRANCH   4  22
ATOM     22  O   UNL     1       2.277   4.290  18.281  0.00  0.00    +0.000 OA
BRANCH  22  23
ATOM     23  C   UNL     1       3.473   3.696  17.834  0.00  0.00    +0.000 A 
ATOM     24  N   UNL     1       3.677   2.600  18.583  0.00  0.00    +0.000 NA
ATOM     25  C   UNL     1       4.711   2.696  19.415  0.00  0.00    +0.000 A 
ATOM     26  N   UNL     1       5.539   3.746  19.481  0.00  0.00    +0.000 NA
ATOM     27  C   UNL     1       5.521   4.553  18.414  0.00  0.00    +0.000 A 
ATOM     28  C   UNL     1       6.558   5.448  18.238  0.00  0.00    +0.000 A 
ATOM     29  C   UNL     1       6.921   5.920  16.960  0.00  0.00    +0.000 A 
ATOM     30  C   UNL     1       6.248   5.412  15.846  0.00  0.00    +0.000 A 
ATOM     31  C   UNL     1       5.046   4.702  16.079  0.00  0.00    +0.000 A 
ATOM     32  C   UNL     1       4.592   4.418  17.409  0.00  0.00    +0.000 A 
BRANCH  29  33
ATOM     33  O   UNL     1       7.946   6.808  16.779  0.00  0.00    +0.000 OA
ATOM     34  C   UNL     1       7.938   7.990  17.573  0.00  0.00    +0.000 C 
ENDBRANCH  29  33
BRANCH  30  35
ATOM     35  O   UNL     1       6.628   5.472  14.530  0.00  0.00    +0.000 OA
ATOM     36  C   UNL     1       6.544   4.317  13.694  0.00  0.00    +0.000 C 
ENDBRANCH  30  35
ENDBRANCH  22  23
ENDBRANCH   4  22
TORSDOF 8
ENDMDL
MODEL 4
REMARK VINA RESULT:      -8.5      1.245      1.489
REMARK  Name = 
REMARK  11 active torsions:
REMARK  status: ('A' for Active; 'I' for Inactive)
REMARK    1  A    between atoms: C_1  and  O_2
REMARK    2  A    between atoms: O_2  and  C_3
REMARK    3  A    between atoms: C_7  and  N_8
REMARK    4  A    between atoms: N_11  and  C_12
REMARK    5  A    between atoms: C_12  and  C_13
REMARK    6  A    between atoms: C_16  and  O_17
REMARK    7  A    between atoms: O_17  and  C_18
REMARK    8  A    between atoms: C_24  and  O_25
REMARK    9  A    between atoms: O_25  and  C_26
REMARK   10  A    between atoms: C_27  and  O_28
REMARK   11  A    between atoms: O_28  and  C_29
REMARK                            x       y       z     vdW  Elec       q    Type
REMARK                         _______ _______ _______ _____ _____    ______ ____
ROOT
ATOM      1  C   UNL     1       1.808   7.199  20.461  0.00  0.00    +0.000 A 
ATOM      2  C   UNL     1       1.438   5.885  20.796  0.00  0.00    +0.000 A 
ATOM      3  C   UNL     1       1.522   4.811  19.867  0.00  0.00    +0.000 A 
ATOM      4  C   UNL     1       1.941   5.008  18.543  0.00  0.00    +0.000 A 
ATOM      5  C   UNL     1       2.352   6.304  18.205  0.00  0.00    +0.000 A 
ATOM      6  C   UNL     1       2.270   7.377  19.135  0.00  0.00    +0.000 A 
ENDROOT
BRANCH   1   7
ATOM      7  C   UNL     1       1.507   8.433  21.329  0.00  0.00    +0.000 C 
BRANCH   7  11
ATOM      8  N   UNL     1      -0.991  11.171  21.612  0.00  0.00    +0.000 N 
ATOM      9  C   UNL     1       0.265  10.546  21.520  0.00  0.00    +0.000 C 
ATOM     10  O   UNL     1       1.352  11.130  21.591  0.00  0.00    +0.000 OA
ATOM     11  N   UNL     1       0.205   9.147  21.306  0.00  0.00    +0.000 N 
ATOM     12  H   UNL     1      -1.799  10.586  21.489  0.00  0.00    +0.000 HD
ATOM     13  H   UNL     1      -0.582   8.662  21.706  0.00  0.00    +0.000 HD
BRANCH   8  18
ATOM     14  C   UNL     1      -1.659  14.509  23.293  0.00  0.00    +0.000 A 
ATOM     15  C   UNL     1      -1.841  15.345  22.197  0.00  0.00    +0.000 A 
ATOM     16  C   UNL     1      -1.722  14.834  20.910  0.00  0.00    +0.000 A 
ATOM     17  C   UNL     1      -1.429  13.469  20.707  0.00  0.00    +0.000 A 
ATOM     18  C   UNL     1      -1.255  12.589  21.780  0.00  0.00    +0.000 A 
ATOM     19  C   UNL     1      -1.365  13.133  23.080  0.00  0.00    +0.000 A 
BRANCH  14  21
ATOM     20  C   UNL     1      -2.934  14.875  25.288  0.00  0.00    +0.000 C 
ATOM     21  O   UNL     1      -1.814  15.171  24.478  0.00  0.00    +0.000 OA
ENDBRANCH  14  21
ENDBRANCH   8  18
ENDBRANCH   7  11
ENDBRANCH   1   7
BRANCH   4  22
ATOM     22  O   UNL     1       2.259   3.949  17.713  0.00  0.00    +0.000 OA
BRANCH  22  23
ATOM     23  C   UNL     1       3.535   3.374  17.554  0.00  0.00    +0.000 A 
ATOM     24  N   UNL     1       3.559   2.250  18.287  0.00  0.00    +0.000 NA
ATOM     25  C   UNL     1       4.353   2.313  19.352  0.00  0.00    +0.000 A 
ATOM     26  N   UNL     1       5.129   3.360  19.661  0.00  0.00    +0.000 NA
ATOM     27  C   UNL     1       5.367   4.209  18.655  0.00  0.00    +0.000 A 
ATOM     28  C   UNL     1       6.406   5.111  18.775  0.00  0.00    +0.000 A 
ATOM     29  C   UNL     1       7.069   5.634  17.646  0.00  0.00    +0.000 A 
ATOM     30  C   UNL     1       6.697   5.170  16.381  0.00  0.00    +0.000 A 
ATOM     31  C   UNL     1       5.482   4.451  16.282  0.00  0.00    +0.000 A 
ATOM     32  C   UNL     1       4.716   4.113  17.446  0.00  0.00    +0.000 A 
BRANCH  29  33
ATOM     33  O   UNL     1       8.097   6.529  17.759  0.00  0.00    +0.000 OA
ATOM     34  C   UNL     1       7.770   7.914  17.710  0.00  0.00    +0.000 C 
ENDBRANCH  29  33
BRANCH  30  35
ATOM     35  O   UNL     1       7.390   5.283  15.204  0.00  0.00    +0.000 OA
ATOM     36  C   UNL     1       6.801   4.871  13.969  0.00  0.00    +0.000 C 
ENDBRANCH  30  35
ENDBRANCH  22  23
ENDBRANCH   4  22
TORSDOF 8
ENDMDL
MODEL 5
REMARK VINA RESULT:      -8.5      2.072      2.400
REMARK  Name = 
REMARK  11 active torsions:
REMARK  status: ('A' for Active; 'I' for Inactive)
REMARK    1  A    between atoms: C_1  and  O_2
REMARK    2  A    between atoms: O_2  and  C_3
REMARK    3  A    between atoms: C_7  and  N_8
REMARK    4  A    between atoms: N_11  and  C_12
REMARK    5  A    between atoms: C_12  and  C_13
REMARK    6  A    between atoms: C_16  and  O_17
REMARK    7  A    between atoms: O_17  and  C_18
REMARK    8  A    between atoms: C_24  and  O_25
REMARK    9  A    between atoms: O_25  and  C_26
REMARK   10  A    between atoms: C_27  and  O_28
REMARK   11  A    between atoms: O_28  and  C_29
REMARK                            x       y       z     vdW  Elec       q    Type
REMARK                         _______ _______ _______ _____ _____    ______ ____
ROOT
ATOM      1  C   UNL     1       1.924   7.470  20.343  0.00  0.00    +0.000 A 
ATOM      2  C   UNL     1       1.629   6.173  20.797  0.00  0.00    +0.000 A 
ATOM      3  C   UNL     1       1.668   5.039  19.939  0.00  0.00    +0.000 A 
ATOM      4  C   UNL     1       1.963   5.155  18.572  0.00  0.00    +0.000 A 
ATOM      5  C   UNL     1       2.299   6.434  18.112  0.00  0.00    +0.000 A 
ATOM      6  C   UNL     1       2.262   7.567  18.972  0.00  0.00    +0.000 A 
ENDROOT
BRANCH   1   7
ATOM      7  C   UNL     1       1.658   8.753  21.149  0.00  0.00    +0.000 C 
BRANCH   7  11
ATOM      8  N   UNL     1      -0.710  11.197  19.656  0.00  0.00    +0.000 N 
ATOM      9  C   UNL     1      -0.265  10.054  20.342  0.00  0.00    +0.000 C 
ATOM     10  O   UNL     1      -0.999   9.157  20.770  0.00  0.00    +0.000 OA
ATOM     11  N   UNL     1       1.136  10.003  20.542  0.00  0.00    +0.000 N 
ATOM     12  H   UNL     1      -0.013  11.876  19.405  0.00  0.00    +0.000 HD
ATOM     13  H   UNL     1       1.709  10.434  19.834  0.00  0.00    +0.000 HD
BRANCH   8  18
ATOM     14  C   UNL     1      -4.173  12.718  19.994  0.00  0.00    +0.000 A 
ATOM     15  C   UNL     1      -4.802  12.246  18.847  0.00  0.00    +0.000 A 
ATOM     16  C   UNL     1      -4.097  11.454  17.949  0.00  0.00    +0.000 A 
ATOM     17  C   UNL     1      -2.749  11.116  18.197  0.00  0.00    +0.000 A 
ATOM     18  C   UNL     1      -2.083  11.555  19.346  0.00  0.00    +0.000 A 
ATOM     19  C   UNL     1      -2.814  12.372  20.238  0.00  0.00    +0.000 A 
BRANCH  14  21
ATOM     20  C   UNL     1      -5.167  13.147  22.132  0.00  0.00    +0.000 C 
ATOM     21  O   UNL     1      -5.008  13.475  20.766  0.00  0.00    +0.000 OA
ENDBRANCH  14  21
ENDBRANCH   8  18
ENDBRANCH   7  11
ENDBRANCH   1   7
BRANCH   4  22
ATOM     22  O   UNL     1       2.244   4.050  17.790  0.00  0.00    +0.000 OA
BRANCH  22  23
ATOM     23  C   UNL     1       3.515   3.480  17.584  0.00  0.00    +0.000 A 
ATOM     24  N   UNL     1       3.547   2.323  18.264  0.00  0.00    +0.000 NA
ATOM     25  C   UNL     1       4.359   2.336  19.317  0.00  0.00    +0.000 A 
ATOM     26  N   UNL     1       5.142   3.365  19.662  0.00  0.00    +0.000 NA
ATOM     27  C   UNL     1       5.366   4.260  18.692  0.00  0.00    +0.000 A 
ATOM     28  C   UNL     1       6.410   5.153  18.837  0.00  0.00    +0.000 A 
ATOM     29  C   UNL     1       7.056   5.727  17.723  0.00  0.00    +0.000 A 
ATOM     30  C   UNL     1       6.662   5.322  16.444  0.00  0.00    +0.000 A 
ATOM     31  C   UNL     1       5.444   4.611  16.332  0.00  0.00    +0.000 A 
ATOM     32  C   UNL     1       4.696   4.221  17.491  0.00  0.00    +0.000 A 
BRANCH  29  33
ATOM     33  O   UNL     1       8.089   6.613  17.860  0.00  0.00    +0.000 OA
ATOM     34  C   UNL     1       7.814   7.985  17.598  0.00  0.00    +0.000 C 
ENDBRANCH  29  33
BRANCH  30  35
ATOM     35  O   UNL     1       7.337   5.488  15.262  0.00  0.00    +0.000 OA
ATOM     36  C   UNL     1       6.925   4.791  14.085  0.00  0.00    +0.000 C 
ENDBRANCH  30  35
ENDBRANCH  22  23
ENDBRANCH   4  22
TORSDOF 8
ENDMDL
MODEL 6
REMARK VINA RESULT:      -8.4      1.301      1.764
REMARK  Name = 
REMARK  11 active torsions:
REMARK  status: ('A' for Active; 'I' for Inactive)
REMARK    1  A    between atoms: C_1  and  O_2
REMARK    2  A    between atoms: O_2  and  C_3
REMARK    3  A    between atoms: C_7  and  N_8
REMARK    4  A    between atoms: N_11  and  C_12
REMARK    5  A    between atoms: C_12  and  C_13
REMARK    6  A    between atoms: C_16  and  O_17
REMARK    7  A    between atoms: O_17  and  C_18
REMARK    8  A    between atoms: C_24  and  O_25
REMARK    9  A    between atoms: O_25  and  C_26
REMARK   10  A    between atoms: C_27  and  O_28
REMARK   11  A    between atoms: O_28  and  C_29
REMARK                            x       y       z     vdW  Elec       q    Type
REMARK                         _______ _______ _______ _____ _____    ______ ____
ROOT
ATOM      1  C   UNL     1       1.915   7.363  20.035  0.00  0.00    +0.000 A 
ATOM      2  C   UNL     1       1.618   6.167  20.712  0.00  0.00    +0.000 A 
ATOM      3  C   UNL     1       1.602   4.905  20.056  0.00  0.00    +0.000 A 
ATOM      4  C   UNL     1       1.841   4.783  18.679  0.00  0.00    +0.000 A 
ATOM      5  C   UNL     1       2.177   5.960  17.998  0.00  0.00    +0.000 A 
ATOM      6  C   UNL     1       2.195   7.221  18.656  0.00  0.00    +0.000 A 
ENDROOT
BRANCH   1   7
ATOM      7  C   UNL     1       1.704   8.768  20.624  0.00  0.00    +0.000 C 
BRANCH   7  11
ATOM      8  N   UNL     1      -0.672  10.639  22.784  0.00  0.00    +0.000 N 
ATOM      9  C   UNL     1       0.151  10.354  21.681  0.00  0.00    +0.000 C 
ATOM     10  O   UNL     1       0.362  11.125  20.739  0.00  0.00    +0.000 OA
ATOM     11  N   UNL     1       0.729   9.061  21.705  0.00  0.00    +0.000 N 
ATOM     12  H   UNL     1      -0.799   9.905  23.458  0.00  0.00    +0.000 HD
ATOM     13  H   UNL     1       0.933   8.674  22.612  0.00  0.00    +0.000 HD
BRANCH   8  18
ATOM     14  C   UNL     1      -1.499  14.324  23.182  0.00  0.00    +0.000 A 
ATOM     15  C   UNL     1      -2.844  14.275  23.530  0.00  0.00    +0.000 A 
ATOM     16  C   UNL     1      -3.493  13.049  23.612  0.00  0.00    +0.000 A 
ATOM     17  C   UNL     1      -2.793  11.850  23.355  0.00  0.00    +0.000 A 
ATOM     18  C   UNL     1      -1.436  11.852  23.018  0.00  0.00    +0.000 A 
ATOM     19  C   UNL     1      -0.800  13.111  22.925  0.00  0.00    +0.000 A 
BRANCH  14  21
ATOM     20  C   UNL     1      -1.615  16.538  22.273  0.00  0.00    +0.000 C 
ATOM     21  O   UNL     1      -1.020  15.603  23.151  0.00  0.00    +0.000 OA
ENDBRANCH  14  21
ENDBRANCH   8  18
ENDBRANCH   7  11
ENDBRANCH   1   7
BRANCH   4  22
ATOM     22  O   UNL     1       2.070   3.557  18.083  0.00  0.00    +0.000 OA
BRANCH  22  23
ATOM     23  C   UNL     1       3.329   2.974  17.841  0.00  0.00    +0.000 A 
ATOM     24  N   UNL     1       3.453   1.932  18.678  0.00  0.00    +0.000 NA
ATOM     25  C   UNL     1       4.362   2.110  19.633  0.00  0.00    +0.000 A 
ATOM     26  N   UNL     1       5.149   3.187  19.743  0.00  0.00    +0.000 NA
ATOM     27  C   UNL     1       5.259   3.928  18.635  0.00  0.00    +0.000 A 
ATOM     28  C   UNL     1       6.289   4.843  18.543  0.00  0.00    +0.000 A 
ATOM     29  C   UNL     1       6.812   5.249  17.298  0.00  0.00    +0.000 A 
ATOM     30  C   UNL     1       6.308   4.654  16.138  0.00  0.00    +0.000 A 
ATOM     31  C   UNL     1       5.103   3.923  16.252  0.00  0.00    +0.000 A 
ATOM     32  C   UNL     1       4.478   3.704  17.524  0.00  0.00    +0.000 A 
BRANCH  29  33
ATOM     33  O   UNL     1       7.832   6.156  17.201  0.00  0.00    +0.000 OA
ATOM     34  C   UNL     1       7.536   7.512  17.518  0.00  0.00    +0.000 C 
ENDBRANCH  29  33
BRANCH  30  35
ATOM     35  O   UNL     1       6.863   4.647  14.884  0.00  0.00    +0.000 OA
ATOM     36  C   UNL     1       6.233   3.943  13.813  0.00  0.00    +0.000 C 
ENDBRANCH  30  35
ENDBRANCH  22  23
ENDBRANCH   4  22
TORSDOF 8
ENDMDL
MODEL 7
REMARK VINA RESULT:      -8.4      1.727      2.176
REMARK  Name = 
REMARK  11 active torsions:
REMARK  status: ('A' for Active; 'I' for Inactive)
REMARK    1  A    between atoms: C_1  and  O_2
REMARK    2  A    between atoms: O_2  and  C_3
REMARK    3  A    between atoms: C_7  and  N_8
REMARK    4  A    between atoms: N_11  and  C_12
REMARK    5  A    between atoms: C_12  and  C_13
REMARK    6  A    between atoms: C_16  and  O_17
REMARK    7  A    between atoms: O_17  and  C_18
REMARK    8  A    between atoms: C_24  and  O_25
REMARK    9  A    between atoms: O_25  and  C_26
REMARK   10  A    between atoms: C_27  and  O_28
REMARK   11  A    between atoms: O_28  and  C_29
REMARK                            x       y       z     vdW  Elec       q    Type
REMARK                         _______ _______ _______ _____ _____    ______ ____
ROOT
ATOM      1  C   UNL     1       1.787   7.253  20.489  0.00  0.00    +0.000 A 
ATOM      2  C   UNL     1       1.452   5.933  20.839  0.00  0.00    +0.000 A 
ATOM      3  C   UNL     1       1.535   4.856  19.913  0.00  0.00    +0.000 A 
ATOM      4  C   UNL     1       1.915   5.055  18.577  0.00  0.00    +0.000 A 
ATOM      5  C   UNL     1       2.290   6.357  18.223  0.00  0.00    +0.000 A 
ATOM      6  C   UNL     1       2.210   7.433  19.151  0.00  0.00    +0.000 A 
ENDROOT
BRANCH   1   7
ATOM      7  C   UNL     1       1.483   8.485  21.359  0.00  0.00    +0.000 C 
BRANCH   7  11
ATOM      8  N   UNL     1      -1.015  11.221  21.648  0.00  0.00    +0.000 N 
ATOM      9  C   UNL     1       0.241  10.596  21.559  0.00  0.00    +0.000 C 
ATOM     10  O   UNL     1       1.328  11.179  21.644  0.00  0.00    +0.000 OA
ATOM     11  N   UNL     1       0.182   9.199  21.332  0.00  0.00    +0.000 N 
ATOM     12  H   UNL     1      -1.823  10.639  21.513  0.00  0.00    +0.000 HD
ATOM     13  H   UNL     1      -0.608   8.712  21.722  0.00  0.00    +0.000 HD
BRANCH   8  18
ATOM     14  C   UNL     1      -1.356  14.921  20.865  0.00  0.00    +0.000 A 
ATOM     15  C   UNL     1      -1.710  15.440  22.106  0.00  0.00    +0.000 A 
ATOM     16  C   UNL     1      -1.863  14.589  23.193  0.00  0.00    +0.000 A 
ATOM     17  C   UNL     1      -1.652  13.201  23.051  0.00  0.00    +0.000 A 
ATOM     18  C   UNL     1      -1.279  12.638  21.826  0.00  0.00    +0.000 A 
ATOM     19  C   UNL     1      -1.144  13.520  20.729  0.00  0.00    +0.000 A 
BRANCH  14  21
ATOM     20  C   UNL     1      -0.277  15.747  18.892  0.00  0.00    +0.000 C 
ATOM     21  O   UNL     1      -1.246  15.893  19.911  0.00  0.00    +0.000 OA
ENDBRANCH  14  21
ENDBRANCH   8  18
ENDBRANCH   7  11
ENDBRANCH   1   7
BRANCH   4  22
ATOM     22  O   UNL     1       2.234   3.999  17.744  0.00  0.00    +0.000 OA
BRANCH  22  23
ATOM     23  C   UNL     1       3.526   3.498  17.498  0.00  0.00    +0.000 A 
ATOM     24  N   UNL     1       3.737   2.497  18.368  0.00  0.00    +0.000 NA
ATOM     25  C   UNL     1       4.647   2.772  19.299  0.00  0.00    +0.000 A 
ATOM     26  N   UNL     1       5.359   3.904  19.356  0.00  0.00    +0.000 NA
ATOM     27  C   UNL     1       5.397   4.611  18.221  0.00  0.00    +0.000 A 
ATOM     28  C   UNL     1       6.360   5.591  18.078  0.00  0.00    +0.000 A 
ATOM     29  C   UNL     1       6.832   5.988  16.810  0.00  0.00    +0.000 A 
ATOM     30  C   UNL     1       6.352   5.318  15.681  0.00  0.00    +0.000 A 
ATOM     31  C   UNL     1       5.202   4.509  15.843  0.00  0.00    +0.000 A 
ATOM     32  C   UNL     1       4.616   4.293  17.134  0.00  0.00    +0.000 A 
BRANCH  29  33
ATOM     33  O   UNL     1       7.784   6.959  16.661  0.00  0.00    +0.000 OA
ATOM     34  C   UNL     1       7.761   8.045  17.581  0.00  0.00    +0.000 C 
ENDBRANCH  29  33
BRANCH  30  35
ATOM     35  O   UNL     1       6.884   5.304  14.418  0.00  0.00    +0.000 OA
ATOM     36  C   UNL     1       6.701   4.175  13.562  0.00  0.00    +0.000 C 
ENDBRANCH  30  35
ENDBRANCH  22  23
ENDBRANCH   4  22
TORSDOF 8
ENDMDL
MODEL 8
REMARK VINA RESULT:      -8.4      3.060      3.516
REMARK  Name = 
REMARK  11 active torsions:
REMARK  status: ('A' for Active; 'I' for Inactive)
REMARK    1  A    between atoms: C_1  and  O_2
REMARK    2  A    between atoms: O_2  and  C_3
REMARK    3  A    between atoms: C_7  and  N_8
REMARK    4  A    between atoms: N_11  and  C_12
REMARK    5  A    between atoms: C_12  and  C_13
REMARK    6  A    between atoms: C_16  and  O_17
REMARK    7  A    between atoms: O_17  and  C_18
REMARK    8  A    between atoms: C_24  and  O_25
REMARK    9  A    between atoms: O_25  and  C_26
REMARK   10  A    between atoms: C_27  and  O_28
REMARK   11  A    between atoms: O_28  and  C_29
REMARK                            x       y       z     vdW  Elec       q    Type
REMARK                         _______ _______ _______ _____ _____    ______ ____
ROOT
ATOM      1  C   UNL     1       1.886   7.305  20.439  0.00  0.00    +0.000 A 
ATOM      2  C   UNL     1       1.550   5.998  20.834  0.00  0.00    +0.000 A 
ATOM      3  C   UNL     1       1.631   4.890  19.946  0.00  0.00    +0.000 A 
ATOM      4  C   UNL     1       2.011   5.043  18.604  0.00  0.00    +0.000 A 
ATOM      5  C   UNL     1       2.388   6.332  18.205  0.00  0.00    +0.000 A 
ATOM      6  C   UNL     1       2.309   7.439  19.095  0.00  0.00    +0.000 A 
ENDROOT
BRANCH   1   7
ATOM      7  C   UNL     1       1.582   8.567  21.265  0.00  0.00    +0.000 C 
BRANCH   7  11
ATOM      8  N   UNL     1      -0.670  10.903  19.454  0.00  0.00    +0.000 N 
ATOM      9  C   UNL     1      -0.247   9.734  20.111  0.00  0.00    +0.000 C 
ATOM     10  O   UNL     1      -0.923   8.707  20.231  0.00  0.00    +0.000 OA
ATOM     11  N   UNL     1       1.051   9.820  20.673  0.00  0.00    +0.000 N 
ATOM     12  H   UNL     1      -0.041  11.686  19.470  0.00  0.00    +0.000 HD
ATOM     13  H   UNL     1       1.712  10.409  20.194  0.00  0.00    +0.000 HD
BRANCH   8  18
ATOM     14  C   UNL     1      -3.533  10.668  16.970  0.00  0.00    +0.000 A 
ATOM     15  C   UNL     1      -4.433  11.592  17.489  0.00  0.00    +0.000 A 
ATOM     16  C   UNL     1      -4.125  12.276  18.659  0.00  0.00    +0.000 A 
ATOM     17  C   UNL     1      -2.899  12.046  19.321  0.00  0.00    +0.000 A 
ATOM     18  C   UNL     1      -1.958  11.138  18.825  0.00  0.00    +0.000 A 
ATOM     19  C   UNL     1      -2.299  10.443  17.642  0.00  0.00    +0.000 A 
BRANCH  14  21
ATOM     20  C   UNL     1      -3.397  10.454  14.588  0.00  0.00    +0.000 C 
ATOM     21  O   UNL     1      -3.990  10.092  15.819  0.00  0.00    +0.000 OA
ENDBRANCH  14  21
ENDBRANCH   8  18
ENDBRANCH   7  11
ENDBRANCH   1   7
BRANCH   4  22
ATOM     22  O   UNL     1       2.329   3.958  17.808  0.00  0.00    +0.000 OA
BRANCH  22  23
ATOM     23  C   UNL     1       3.616   3.423  17.610  0.00  0.00    +0.000 A 
ATOM     24  N   UNL     1       3.685   2.281  18.314  0.00  0.00    +0.000 NA
ATOM     25  C   UNL     1       4.498   2.340  19.365  0.00  0.00    +0.000 A 
ATOM     26  N   UNL     1       5.251   3.399  19.686  0.00  0.00    +0.000 NA
ATOM     27  C   UNL     1       5.446   4.280  18.698  0.00  0.00    +0.000 A 
ATOM     28  C   UNL     1       6.462   5.206  18.821  0.00  0.00    +0.000 A 
ATOM     29  C   UNL     1       7.089   5.776  17.694  0.00  0.00    +0.000 A 
ATOM     30  C   UNL     1       6.705   5.334  16.425  0.00  0.00    +0.000 A 
ATOM     31  C   UNL     1       5.509   4.584  16.330  0.00  0.00    +0.000 A 
ATOM     32  C   UNL     1       4.775   4.196  17.499  0.00  0.00    +0.000 A 
BRANCH  29  33
ATOM     33  O   UNL     1       8.095   6.696  17.810  0.00  0.00    +0.000 OA
ATOM     34  C   UNL     1       7.767   8.060  17.572  0.00  0.00    +0.000 C 
ENDBRANCH  29  33
BRANCH  30  35
ATOM     35  O   UNL     1       7.372   5.495  15.238  0.00  0.00    +0.000 OA
ATOM     36  C   UNL     1       6.984   4.756  14.078  0.00  0.00    +0.000 C 
ENDBRANCH  30  35
ENDBRANCH  22  23
ENDBRANCH   4  22
TORSDOF 8
ENDMDL
MODEL 9
REMARK VINA RESULT:      -8.3      1.039      1.323
REMARK  Name = 
REMARK  11 active torsions:
REMARK  status: ('A' for Active; 'I' for Inactive)
REMARK    1  A    between atoms: C_1  and  O_2
REMARK    2  A    between atoms: O_2  and  C_3
REMARK    3  A    between atoms: C_7  and  N_8
REMARK    4  A    between atoms: N_11  and  C_12
REMARK    5  A    between atoms: C_12  and  C_13
REMARK    6  A    between atoms: C_16  and  O_17
REMARK    7  A    between atoms: O_17  and  C_18
REMARK    8  A    between atoms: C_24  and  O_25
REMARK    9  A    between atoms: O_25  and  C_26
REMARK   10  A    between atoms: C_27  and  O_28
REMARK   11  A    between atoms: O_28  and  C_29
REMARK                            x       y       z     vdW  Elec       q    Type
REMARK                         _______ _______ _______ _____ _____    ______ ____
ROOT
ATOM      1  C   UNL     1       1.447   8.093  20.507  0.00  0.00    +0.000 A 
ATOM      2  C   UNL     1       1.892   8.081  19.173  0.00  0.00    +0.000 A 
ATOM      3  C   UNL     1       2.207   6.875  18.487  0.00  0.00    +0.000 A 
ATOM      4  C   UNL     1       2.135   5.624  19.117  0.00  0.00    +0.000 A 
ATOM      5  C   UNL     1       1.655   5.615  20.433  0.00  0.00    +0.000 A 
ATOM      6  C   UNL     1       1.337   6.822  21.117  0.00  0.00    +0.000 A 
ENDROOT
BRANCH   1   7
ATOM      7  C   UNL     1       1.333   9.360  21.371  0.00  0.00    +0.000 C 
BRANCH   7  11
ATOM      8  N   UNL     1      -1.385  11.236  23.075  0.00  0.00    +0.000 N 
ATOM      9  C   UNL     1      -0.363  10.959  22.151  0.00  0.00    +0.000 C 
ATOM     10  O   UNL     1       0.052  11.752  21.299  0.00  0.00    +0.000 OA
ATOM     11  N   UNL     1       0.168   9.649  22.245  0.00  0.00    +0.000 N 
ATOM     12  H   UNL     1      -1.663  10.485  23.684  0.00  0.00    +0.000 HD
ATOM     13  H   UNL     1       0.175   9.229  23.160  0.00  0.00    +0.000 HD
BRANCH   8  18
ATOM     14  C   UNL     1      -4.310  13.653  22.931  0.00  0.00    +0.000 A 
ATOM     15  C   UNL     1      -3.712  14.843  23.331  0.00  0.00    +0.000 A 
ATOM     16  C   UNL     1      -2.366  14.859  23.673  0.00  0.00    +0.000 A 
ATOM     17  C   UNL     1      -1.596  13.678  23.607  0.00  0.00    +0.000 A 
ATOM     18  C   UNL     1      -2.152  12.463  23.194  0.00  0.00    +0.000 A 
ATOM     19  C   UNL     1      -3.527  12.466  22.865  0.00  0.00    +0.000 A 
BRANCH  14  21
ATOM     20  C   UNL     1      -6.264  12.872  21.787  0.00  0.00    +0.000 C 
ATOM     21  O   UNL     1      -5.632  13.815  22.629  0.00  0.00    +0.000 OA
ENDBRANCH  14  21
ENDBRANCH   8  18
ENDBRANCH   7  11
ENDBRANCH   1   7
BRANCH   4  22
ATOM     22  O   UNL     1       2.198   4.442  18.403  0.00  0.00    +0.000 OA
BRANCH  22  23
ATOM     23  C   UNL     1       3.369   3.818  17.933  0.00  0.00    +0.000 A 
ATOM     24  N   UNL     1       3.558   2.715  18.676  0.00  0.00    +0.000 NA
ATOM     25  C   UNL     1       4.609   2.783  19.489  0.00  0.00    +0.000 A 
ATOM     26  N   UNL     1       5.465   3.810  19.542  0.00  0.00    +0.000 NA
ATOM     27  C   UNL     1       5.449   4.620  18.477  0.00  0.00    +0.000 A 
ATOM     28  C   UNL     1       6.506   5.487  18.283  0.00  0.00    +0.000 A 
ATOM     29  C   UNL     1       6.858   5.953  17.000  0.00  0.00    +0.000 A 
ATOM     30  C   UNL     1       6.151   5.465  15.897  0.00  0.00    +0.000 A 
ATOM     31  C   UNL     1       4.936   4.787  16.151  0.00  0.00    +0.000 A 
ATOM     32  C   UNL     1       4.498   4.511  17.489  0.00  0.00    +0.000 A 
BRANCH  29  33
ATOM     33  O   UNL     1       7.903   6.814  16.801  0.00  0.00    +0.000 OA
ATOM     34  C   UNL     1       7.916   8.016  17.564  0.00  0.00    +0.000 C 
ENDBRANCH  29  33
BRANCH  30  35
ATOM     35  O   UNL     1       6.509   5.519  14.575  0.00  0.00    +0.000 OA
ATOM     36  C   UNL     1       6.572   4.328  13.788  0.00  0.00    +0.000 C 
ENDBRANCH  30  35
ENDBRANCH  22  23
ENDBRANCH   4  22
TORSDOF 8
ENDMDL
