MODEL 1
REMARK VINA RESULT:      -7.7      0.000      0.000
REMARK  Name = 
REMARK  7 active torsions:
REMARK  status: ('A' for Active; 'I' for Inactive)
REMARK    1  A    between atoms: C_1  and  C_2
REMARK    2  A    between atoms: C_2  and  C_3
REMARK    3  A    between atoms: C_2  and  N_4
REMARK    4  A    between atoms: C_8  and  C_9
REMARK    5  A    between atoms: C_12  and  O_13
REMARK    6  A    between atoms: N_19  and  C_20
REMARK    7  A    between atoms: C_20  and  C_21
REMARK                            x       y       z     vdW  Elec       q    Type
REMARK                         _______ _______ _______ _____ _____    ______ ____
ROOT
ATOM      1  N   UNL     1       2.793   3.707  19.756  0.00  0.00    +0.000 NA
ATOM      2  C   UNL     1       3.028   4.912  19.379  0.00  0.00    +0.000 C 
ATOM      3  S   UNL     1       1.947   6.274  19.522  0.00  0.00    +0.000 S 
ATOM      4  C   UNL     1       2.943   7.284  18.554  0.00  0.00    +0.000 C 
ATOM      5  C   UNL     1       2.613   8.506  18.099  0.00  0.00    +0.000 C 
ATOM      6  C   UNL     1       4.217   6.578  18.235  0.00  0.00    +0.000 C 
ATOM      7  O   UNL     1       5.105   7.068  17.549  0.00  0.00    +0.000 OA
ATOM      8  N   UNL     1       4.192   5.296  18.759  0.00  0.00    +0.000 N 
ENDROOT
BRANCH   5   9
ATOM      9  C   UNL     1       1.331   9.153  18.406  0.00  0.00    +0.000 A 
ATOM     10  C   UNL     1       0.338   9.248  17.421  0.00  0.00    +0.000 A 
ATOM     11  C   UNL     1      -0.837   9.969  17.662  0.00  0.00    +0.000 A 
ATOM     12  C   UNL     1      -1.023  10.594  18.895  0.00  0.00    +0.000 A 
ATOM     13  C   UNL     1      -0.045  10.491  19.889  0.00  0.00    +0.000 A 
ATOM     14 CL   UNL     1      -0.236  11.265  21.421  0.00  0.00    +0.000 Cl
ATOM     15  C   UNL     1       1.127   9.771  19.645  0.00  0.00    +0.000 A 
BRANCH  12  16
ATOM     16  O   UNL     1      -2.160  11.320  19.125  0.00  0.00    +0.000 OA
ATOM     17  H   UNL     1      -2.341  11.893  18.363  0.00  0.00    +0.000 HD
ENDBRANCH  12  16
ENDBRANCH   5   9
BRANCH   1  19
ATOM     18  C   UNL     1       0.724   2.547  19.278  0.00  0.00    +0.000 C 
ATOM     19  C   UNL     1       1.488   3.351  20.329  0.00  0.00    +0.000 C 
ATOM     20  C   UNL     1       1.680   2.542  21.608  0.00  0.00    +0.000 C 
ENDBRANCH   1  19
BRANCH   8  21
ATOM     21  C   UNL     1       5.256   4.354  18.444  0.00  0.00    +0.000 C 
BRANCH  21  22
ATOM     22  C   UNL     1       5.702   4.354  16.996  0.00  0.00    +0.000 A 
ATOM     23  C   UNL     1       4.785   4.118  15.960  0.00  0.00    +0.000 A 
ATOM     24  C   UNL     1       5.162   4.269  14.624  0.00  0.00    +0.000 A 
ATOM     25  C   UNL     1       6.467   4.653  14.305  0.00  0.00    +0.000 A 
ATOM     26  C   UNL     1       7.399   4.850  15.321  0.00  0.00    +0.000 A 
ATOM     27  C   UNL     1       7.024   4.688  16.659  0.00  0.00    +0.000 A 
ENDBRANCH  21  22
ENDBRANCH   8  21
TORSDOF 5
ENDMDL
MODEL 2
REMARK VINA RESULT:      -7.5      0.561      1.094
REMARK  Name = 
REMARK  7 active torsions:
REMARK  status: ('A' for Active; 'I' for Inactive)
REMARK    1  A    between atoms: C_1  and  C_2
REMARK    2  A    between atoms: C_2  and  C_3
REMARK    3  A    between atoms: C_2  and  N_4
REMARK    4  A    between atoms: C_8  and  C_9
REMARK    5  A    between atoms: C_12  and  O_13
REMARK    6  A    between atoms: N_19  and  C_20
REMARK    7  A    between atoms: C_20  and  C_21
REMARK                            x       y       z     vdW  Elec       q    Type
REMARK                         _______ _______ _______ _____ _____    ______ ____
ROOT
ATOM      1  N   UNL     1       3.316   3.699  19.414  0.00  0.00    +0.000 NA
ATOM      2  C   UNL     1       3.451   4.931  19.073  0.00  0.00    +0.000 C 
ATOM      3  S   UNL     1       2.310   6.218  19.356  0.00  0.00    +0.000 S 
ATOM      4  C   UNL     1       3.168   7.323  18.361  0.00  0.00    +0.000 C 
ATOM      5  C   UNL     1       2.735   8.541  17.986  0.00  0.00    +0.000 C 
ATOM      6  C   UNL     1       4.452   6.708  17.916  0.00  0.00    +0.000 C 
ATOM      7  O   UNL     1       5.254   7.276  17.187  0.00  0.00    +0.000 OA
ATOM      8  N   UNL     1       4.540   5.407  18.384  0.00  0.00    +0.000 N 
ENDROOT
BRANCH   5   9
ATOM      9  C   UNL     1       1.446   9.097  18.417  0.00  0.00    +0.000 A 
ATOM     10  C   UNL     1       0.458   9.396  17.468  0.00  0.00    +0.000 A 
ATOM     11  C   UNL     1      -0.724  10.040  17.852  0.00  0.00    +0.000 A 
ATOM     12  C   UNL     1      -0.922  10.382  19.190  0.00  0.00    +0.000 A 
ATOM     13  C   UNL     1       0.052  10.073  20.145  0.00  0.00    +0.000 A 
ATOM     14 CL   UNL     1      -0.154  10.495  21.806  0.00  0.00    +0.000 Cl
ATOM     15  C   UNL     1       1.231   9.430  19.758  0.00  0.00    +0.000 A 
BRANCH  12  16
ATOM     16  O   UNL     1      -2.066  11.033  19.563  0.00  0.00    +0.000 OA
ATOM     17  H   UNL     1      -2.046  11.945  19.233  0.00  0.00    +0.000 HD
ENDBRANCH  12  16
ENDBRANCH   5   9
BRANCH   1  19
ATOM     18  C   UNL     1       1.586   2.011  19.315  0.00  0.00    +0.000 C 
ATOM     19  C   UNL     1       2.081   3.244  20.068  0.00  0.00    +0.000 C 
ATOM     20  C   UNL     1       2.354   2.921  21.534  0.00  0.00    +0.000 C 
ENDBRANCH   1  19
BRANCH   8  21
ATOM     21  C   UNL     1       5.628   4.544  17.949  0.00  0.00    +0.000 C 
BRANCH  21  22
ATOM     22  C   UNL     1       5.888   4.546  16.456  0.00  0.00    +0.000 A 
ATOM     23  C   UNL     1       7.127   4.957  15.942  0.00  0.00    +0.000 A 
ATOM     24  C   UNL     1       7.418   4.815  14.583  0.00  0.00    +0.000 A 
ATOM     25  C   UNL     1       6.470   4.264  13.718  0.00  0.00    +0.000 A 
ATOM     26  C   UNL     1       5.221   3.891  14.208  0.00  0.00    +0.000 A 
ATOM     27  C   UNL     1       4.925   4.043  15.566  0.00  0.00    +0.000 A 
ENDBRANCH  21  22
ENDBRANCH   8  21
TORSDOF 5
ENDMDL
MODEL 3
REMARK VINA RESULT:      -7.5      1.068      1.427
REMARK  Name = 
REMARK  7 active torsions:
REMARK  status: ('A' for Active; 'I' for Inactive)
REMARK    1  A    between atoms: C_1  and  C_2
REMARK    2  A    between atoms: C_2  and  C_3
REMARK    3  A    between atoms: C_2  and  N_4
REMARK    4  A    between atoms: C_8  and  C_9
REMARK    5  A    between atoms: C_12  and  O_13
REMARK    6  A    between atoms: N_19  and  C_20
REMARK    7  A    between atoms: C_20  and  C_21
REMARK                            x       y       z     vdW  Elec       q    Type
REMARK                         _______ _______ _______ _____ _____    ______ ____
ROOT
ATOM      1  N   UNL     1       2.703   3.803  19.591  0.00  0.00    +0.000 NA
ATOM      2  C   UNL     1       2.996   5.003  19.238  0.00  0.00    +0.000 C 
ATOM      3  S   UNL     1       1.977   6.410  19.394  0.00  0.00    +0.000 S 
ATOM      4  C   UNL     1       3.028   7.390  18.455  0.00  0.00    +0.000 C 
ATOM      5  C   UNL     1       2.760   8.634  18.019  0.00  0.00    +0.000 C 
ATOM      6  C   UNL     1       4.273   6.632  18.137  0.00  0.00    +0.000 C 
ATOM      7  O   UNL     1       5.189   7.093  17.469  0.00  0.00    +0.000 OA
ATOM      8  N   UNL     1       4.184   5.344  18.637  0.00  0.00    +0.000 N 
ENDROOT
BRANCH   5   9
ATOM      9  C   UNL     1       1.504   9.333  18.324  0.00  0.00    +0.000 A 
ATOM     10  C   UNL     1       1.331   9.953  19.570  0.00  0.00    +0.000 A 
ATOM     11  C   UNL     1       0.097  10.514  19.919  0.00  0.00    +0.000 A 
ATOM     12  C   UNL     1      -0.966  10.460  19.018  0.00  0.00    +0.000 A 
ATOM     13  C   UNL     1      -0.797   9.857  17.768  0.00  0.00    +0.000 A 
ATOM     14 CL   UNL     1      -2.097   9.759  16.635  0.00  0.00    +0.000 Cl
ATOM     15  C   UNL     1       0.436   9.298  17.422  0.00  0.00    +0.000 A 
BRANCH  12  16
ATOM     16  O   UNL     1      -2.180  10.987  19.367  0.00  0.00    +0.000 OA
ATOM     17  H   UNL     1      -2.460  11.632  18.699  0.00  0.00    +0.000 HD
ENDBRANCH  12  16
ENDBRANCH   5   9
BRANCH   1  19
ATOM     18  C   UNL     1       0.669   2.565  19.163  0.00  0.00    +0.000 C 
ATOM     19  C   UNL     1       1.376   3.497  20.144  0.00  0.00    +0.000 C 
ATOM     20  C   UNL     1       1.519   2.846  21.516  0.00  0.00    +0.000 C 
ENDBRANCH   1  19
BRANCH   8  21
ATOM     21  C   UNL     1       5.207   4.360  18.316  0.00  0.00    +0.000 C 
BRANCH  21  22
ATOM     22  C   UNL     1       5.649   4.347  16.867  0.00  0.00    +0.000 A 
ATOM     23  C   UNL     1       4.719   4.158  15.833  0.00  0.00    +0.000 A 
ATOM     24  C   UNL     1       5.100   4.297  14.496  0.00  0.00    +0.000 A 
ATOM     25  C   UNL     1       6.420   4.622  14.175  0.00  0.00    +0.000 A 
ATOM     26  C   UNL     1       7.362   4.771  15.190  0.00  0.00    +0.000 A 
ATOM     27  C   UNL     1       6.984   4.621  16.527  0.00  0.00    +0.000 A 
ENDBRANCH  21  22
ENDBRANCH   8  21
TORSDOF 5
ENDMDL
MODEL 4
REMARK VINA RESULT:      -7.4      3.583      8.026
REMARK  Name = 
REMARK  7 active torsions:
REMARK  status: ('A' for Active; 'I' for Inactive)
REMARK    1  A    between atoms: C_1  and  C_2
REMARK    2  A    between atoms: C_2  and  C_3
REMARK    3  A    between atoms: C_2  and  N_4
REMARK    4  A    between atoms: C_8  and  C_9
REMARK    5  A    between atoms: C_12  and  O_13
REMARK    6  A    between atoms: N_19  and  C_20
REMARK    7  A    between atoms: C_20  and  C_21
REMARK                            x       y       z     vdW  Elec       q    Type
REMARK                         _______ _______ _______ _____ _____    ______ ____
ROOT
ATOM      1  N   UNL     1       0.503   9.769  21.291  0.00  0.00    +0.000 NA
ATOM      2  C   UNL     1       1.007   9.188  20.261  0.00  0.00    +0.000 C 
ATOM      3  S   UNL     1       1.673   7.577  20.200  0.00  0.00    +0.000 S 
ATOM      4  C   UNL     1       2.307   7.800  18.620  0.00  0.00    +0.000 C 
ATOM      5  C   UNL     1       3.130   6.950  17.978  0.00  0.00    +0.000 C 
ATOM      6  C   UNL     1       1.860   9.115  18.078  0.00  0.00    +0.000 C 
ATOM      7  O   UNL     1       2.178   9.531  16.972  0.00  0.00    +0.000 OA
ATOM      8  N   UNL     1       1.121   9.794  19.033  0.00  0.00    +0.000 N 
ENDROOT
BRANCH   5   9
ATOM      9  C   UNL     1       3.577   5.679  18.562  0.00  0.00    +0.000 A 
ATOM     10  C   UNL     1       4.914   5.517  18.952  0.00  0.00    +0.000 A 
ATOM     11  C   UNL     1       5.381   4.273  19.393  0.00  0.00    +0.000 A 
ATOM     12  C   UNL     1       4.506   3.188  19.450  0.00  0.00    +0.000 A 
ATOM     13  C   UNL     1       3.168   3.345  19.077  0.00  0.00    +0.000 A 
ATOM     14 CL   UNL     1       2.063   2.019  19.120  0.00  0.00    +0.000 Cl
ATOM     15  C   UNL     1       2.705   4.588  18.637  0.00  0.00    +0.000 A 
BRANCH  12  16
ATOM     16  O   UNL     1       4.966   1.966  19.858  0.00  0.00    +0.000 OA
ATOM     17  H   UNL     1       5.824   2.069  20.298  0.00  0.00    +0.000 HD
ENDBRANCH  12  16
ENDBRANCH   5   9
BRANCH   1  19
ATOM     18  C   UNL     1       1.874   9.295  23.227  0.00  0.00    +0.000 C 
ATOM     19  C   UNL     1       0.499   9.092  22.594  0.00  0.00    +0.000 C 
ATOM     20  C   UNL     1      -0.604   9.667  23.478  0.00  0.00    +0.000 C 
ENDBRANCH   1  19
BRANCH   8  21
ATOM     21  C   UNL     1       0.707  11.169  18.800  0.00  0.00    +0.000 C 
BRANCH  21  22
ATOM     22  C   UNL     1      -0.784  11.367  18.622  0.00  0.00    +0.000 A 
ATOM     23  C   UNL     1      -1.506  10.604  17.691  0.00  0.00    +0.000 A 
ATOM     24  C   UNL     1      -2.900  10.677  17.635  0.00  0.00    +0.000 A 
ATOM     25  C   UNL     1      -3.591  11.521  18.507  0.00  0.00    +0.000 A 
ATOM     26  C   UNL     1      -2.885  12.314  19.408  0.00  0.00    +0.000 A 
ATOM     27  C   UNL     1      -1.490  12.250  19.457  0.00  0.00    +0.000 A 
ENDBRANCH  21  22
ENDBRANCH   8  21
TORSDOF 5
ENDMDL
MODEL 5
REMARK VINA RESULT:      -7.4      3.970      9.123
REMARK  Name = 
REMARK  7 active torsions:
REMARK  status: ('A' for Active; 'I' for Inactive)
REMARK    1  A    between atoms: C_1  and  C_2
REMARK    2  A    between atoms: C_2  and  C_3
REMARK    3  A    between atoms: C_2  and  N_4
REMARK    4  A    between atoms: C_8  and  C_9
REMARK    5  A    between atoms: C_12  and  O_13
REMARK    6  A    between atoms: N_19  and  C_20
REMARK    7  A    between atoms: C_20  and  C_21
REMARK                            x       y       z     vdW  Elec       q    Type
REMARK                         _______ _______ _______ _____ _____    ______ ____
ROOT
ATOM      1  N   UNL     1      -1.770  11.167  17.992  0.00  0.00    +0.000 NA
ATOM      2  C   UNL     1      -0.764  10.773  18.689  0.00  0.00    +0.000 C 
ATOM      3  S   UNL     1       0.116   9.281  18.490  0.00  0.00    +0.000 S 
ATOM      4  C   UNL     1       1.002   9.502  19.945  0.00  0.00    +0.000 C 
ATOM      5  C   UNL     1       1.806   8.589  20.520  0.00  0.00    +0.000 C 
ATOM      6  C   UNL     1       0.700  10.845  20.519  0.00  0.00    +0.000 C 
ATOM      7  O   UNL     1       1.190  11.256  21.562  0.00  0.00    +0.000 OA
ATOM      8  N   UNL     1      -0.252  11.488  19.745  0.00  0.00    +0.000 N 
ENDROOT
BRANCH   5   9
ATOM      9  C   UNL     1       2.049   7.262  19.940  0.00  0.00    +0.000 A 
ATOM     10  C   UNL     1       2.654   7.145  18.681  0.00  0.00    +0.000 A 
ATOM     11  C   UNL     1       2.778   5.894  18.065  0.00  0.00    +0.000 A 
ATOM     12  C   UNL     1       2.300   4.755  18.712  0.00  0.00    +0.000 A 
ATOM     13  C   UNL     1       1.710   4.860  19.975  0.00  0.00    +0.000 A 
ATOM     14 CL   UNL     1       1.095   3.472  20.797  0.00  0.00    +0.000 Cl
ATOM     15  C   UNL     1       1.587   6.111  20.588  0.00  0.00    +0.000 A 
BRANCH  12  16
ATOM     16  O   UNL     1       2.399   3.535  18.101  0.00  0.00    +0.000 OA
ATOM     17  H   UNL     1       3.111   3.556  17.443  0.00  0.00    +0.000 HD
ENDBRANCH  12  16
ENDBRANCH   5   9
BRANCH   1  19
ATOM     18  C   UNL     1      -3.491   9.528  17.537  0.00  0.00    +0.000 C 
ATOM     19  C   UNL     1      -2.321  10.306  16.937  0.00  0.00    +0.000 C 
ATOM     20  C   UNL     1      -2.774  11.155  15.753  0.00  0.00    +0.000 C 
ENDBRANCH   1  19
BRANCH   8  21
ATOM     21  C   UNL     1      -0.829  12.747  20.188  0.00  0.00    +0.000 C 
BRANCH  21  22
ATOM     22  C   UNL     1      -2.029  12.613  21.104  0.00  0.00    +0.000 A 
ATOM     23  C   UNL     1      -1.864  12.387  22.479  0.00  0.00    +0.000 A 
ATOM     24  C   UNL     1      -2.960  12.414  23.345  0.00  0.00    +0.000 A 
ATOM     25  C   UNL     1      -4.240  12.663  22.844  0.00  0.00    +0.000 A 
ATOM     26  C   UNL     1      -4.424  12.847  21.476  0.00  0.00    +0.000 A 
ATOM     27  C   UNL     1      -3.329  12.808  20.608  0.00  0.00    +0.000 A 
ENDBRANCH  21  22
ENDBRANCH   8  21
TORSDOF 5
ENDMDL
MODEL 6
REMARK VINA RESULT:      -7.3      4.530      7.285
REMARK  Name = 
REMARK  7 active torsions:
REMARK  status: ('A' for Active; 'I' for Inactive)
REMARK    1  A    between atoms: C_1  and  C_2
REMARK    2  A    between atoms: C_2  and  C_3
REMARK    3  A    between atoms: C_2  and  N_4
REMARK    4  A    between atoms: C_8  and  C_9
REMARK    5  A    between atoms: C_12  and  O_13
REMARK    6  A    between atoms: N_19  and  C_20
REMARK    7  A    between atoms: C_20  and  C_21
REMARK                            x       y       z     vdW  Elec       q    Type
REMARK                         _______ _______ _______ _____ _____    ______ ____
ROOT
ATOM      1  N   UNL     1      -1.319  10.646  17.731  0.00  0.00    +0.000 NA
ATOM      2  C   UNL     1      -0.974  11.071  18.894  0.00  0.00    +0.000 C 
ATOM      3  S   UNL     1      -2.024  11.776  20.095  0.00  0.00    +0.000 S 
ATOM      4  C   UNL     1      -0.712  12.258  21.092  0.00  0.00    +0.000 C 
ATOM      5  C   UNL     1      -0.801  13.043  22.181  0.00  0.00    +0.000 C 
ATOM      6  C   UNL     1       0.566  11.725  20.536  0.00  0.00    +0.000 C 
ATOM      7  O   UNL     1       1.659  11.929  21.047  0.00  0.00    +0.000 OA
ATOM      8  N   UNL     1       0.322  11.055  19.349  0.00  0.00    +0.000 N 
ENDROOT
BRANCH   5   9
ATOM      9  C   UNL     1      -2.076  13.579  22.676  0.00  0.00    +0.000 A 
ATOM     10  C   UNL     1      -2.378  14.938  22.512  0.00  0.00    +0.000 A 
ATOM     11  C   UNL     1      -3.531  15.484  23.087  0.00  0.00    +0.000 A 
ATOM     12  C   UNL     1      -4.388  14.668  23.826  0.00  0.00    +0.000 A 
ATOM     13  C   UNL     1      -4.103  13.308  23.981  0.00  0.00    +0.000 A 
ATOM     14 CL   UNL     1      -5.134  12.274  24.901  0.00  0.00    +0.000 Cl
ATOM     15  C   UNL     1      -2.950  12.766  23.405  0.00  0.00    +0.000 A 
BRANCH  12  16
ATOM     16  O   UNL     1      -5.503  15.206  24.409  0.00  0.00    +0.000 OA
ATOM     17  H   UNL     1      -5.285  15.526  25.298  0.00  0.00    +0.000 HD
ENDBRANCH  12  16
ENDBRANCH   5   9
BRANCH   1  19
ATOM     18  C   UNL     1      -2.688  10.950  15.759  0.00  0.00    +0.000 C 
ATOM     19  C   UNL     1      -2.710  10.780  17.277  0.00  0.00    +0.000 C 
ATOM     20  C   UNL     1      -3.513   9.547  17.681  0.00  0.00    +0.000 C 
ENDBRANCH   1  19
BRANCH   8  21
ATOM     21  C   UNL     1       1.430  10.583  18.532  0.00  0.00    +0.000 C 
BRANCH  21  22
ATOM     22  C   UNL     1       1.780   9.120  18.716  0.00  0.00    +0.000 A 
ATOM     23  C   UNL     1       2.451   8.409  17.709  0.00  0.00    +0.000 A 
ATOM     24  C   UNL     1       2.907   7.108  17.936  0.00  0.00    +0.000 A 
ATOM     25  C   UNL     1       2.693   6.498  19.174  0.00  0.00    +0.000 A 
ATOM     26  C   UNL     1       1.992   7.177  20.168  0.00  0.00    +0.000 A 
ATOM     27  C   UNL     1       1.525   8.475  19.937  0.00  0.00    +0.000 A 
ENDBRANCH  21  22
ENDBRANCH   8  21
TORSDOF 5
ENDMDL
MODEL 7
REMARK VINA RESULT:      -7.3      1.755      2.597
REMARK  Name = 
REMARK  7 active torsions:
REMARK  status: ('A' for Active; 'I' for Inactive)
REMARK    1  A    between atoms: C_1  and  C_2
REMARK    2  A    between atoms: C_2  and  C_3
REMARK    3  A    between atoms: C_2  and  N_4
REMARK    4  A    between atoms: C_8  and  C_9
REMARK    5  A    between atoms: C_12  and  O_13
REMARK    6  A    between atoms: N_19  and  C_20
REMARK    7  A    between atoms: C_20  and  C_21
REMARK                            x       y       z     vdW  Elec       q    Type
REMARK                         _______ _______ _______ _____ _____    ______ ____
ROOT
ATOM      1  N   UNL     1       2.295   4.489  19.659  0.00  0.00    +0.000 NA
ATOM      2  C   UNL     1       2.352   5.754  19.435  0.00  0.00    +0.000 C 
ATOM      3  S   UNL     1       1.645   7.014  20.412  0.00  0.00    +0.000 S 
ATOM      4  C   UNL     1       1.972   8.229  19.244  0.00  0.00    +0.000 C 
ATOM      5  C   UNL     1       1.526   9.498  19.286  0.00  0.00    +0.000 C 
ATOM      6  C   UNL     1       2.781   7.654  18.130  0.00  0.00    +0.000 C 
ATOM      7  O   UNL     1       3.145   8.302  17.158  0.00  0.00    +0.000 OA
ATOM      8  N   UNL     1       2.973   6.298  18.336  0.00  0.00    +0.000 N 
ENDROOT
BRANCH   5   9
ATOM      9  C   UNL     1       0.699  10.017  20.384  0.00  0.00    +0.000 A 
ATOM     10  C   UNL     1       0.836   9.489  21.676  0.00  0.00    +0.000 A 
ATOM     11  C   UNL     1      -0.029   9.887  22.701  0.00  0.00    +0.000 A 
ATOM     12  C   UNL     1      -1.032  10.820  22.437  0.00  0.00    +0.000 A 
ATOM     13  C   UNL     1      -1.165  11.363  21.155  0.00  0.00    +0.000 A 
ATOM     14 CL   UNL     1      -2.405  12.507  20.789  0.00  0.00    +0.000 Cl
ATOM     15  C   UNL     1      -0.300  10.963  20.133  0.00  0.00    +0.000 A 
BRANCH  12  16
ATOM     16  O   UNL     1      -1.894  11.192  23.432  0.00  0.00    +0.000 OA
ATOM     17  H   UNL     1      -1.518  10.958  24.295  0.00  0.00    +0.000 HD
ENDBRANCH  12  16
ENDBRANCH   5   9
BRANCH   1  19
ATOM     18  C   UNL     1       0.444   3.053  20.261  0.00  0.00    +0.000 C 
ATOM     19  C   UNL     1       1.534   3.974  20.805  0.00  0.00    +0.000 C 
ATOM     20  C   UNL     1       2.463   3.226  21.756  0.00  0.00    +0.000 C 
ENDBRANCH   1  19
BRANCH   8  21
ATOM     21  C   UNL     1       3.596   5.481  17.307  0.00  0.00    +0.000 C 
BRANCH  21  22
ATOM     22  C   UNL     1       5.096   5.316  17.442  0.00  0.00    +0.000 A 
ATOM     23  C   UNL     1       5.746   5.612  18.651  0.00  0.00    +0.000 A 
ATOM     24  C   UNL     1       7.101   5.317  18.824  0.00  0.00    +0.000 A 
ATOM     25  C   UNL     1       7.826   4.727  17.786  0.00  0.00    +0.000 A 
ATOM     26  C   UNL     1       7.204   4.468  16.567  0.00  0.00    +0.000 A 
ATOM     27  C   UNL     1       5.851   4.773  16.390  0.00  0.00    +0.000 A 
ENDBRANCH  21  22
ENDBRANCH   8  21
TORSDOF 5
ENDMDL
MODEL 8
REMARK VINA RESULT:      -7.3      1.946      2.588
REMARK  Name = 
REMARK  7 active torsions:
REMARK  status: ('A' for Active; 'I' for Inactive)
REMARK    1  A    between atoms: C_1  and  C_2
REMARK    2  A    between atoms: C_2  and  C_3
REMARK    3  A    between atoms: C_2  and  N_4
REMARK    4  A    between atoms: C_8  and  C_9
REMARK    5  A    between atoms: C_12  and  O_13
REMARK    6  A    between atoms: N_19  and  C_20
REMARK    7  A    between atoms: C_20  and  C_21
REMARK                            x       y       z     vdW  Elec       q    Type
REMARK                         _______ _______ _______ _____ _____    ______ ____
ROOT
ATOM      1  N   UNL     1       2.451   5.038  19.675  0.00  0.00    +0.000 NA
ATOM      2  C   UNL     1       2.412   6.275  19.328  0.00  0.00    +0.000 C 
ATOM      3  S   UNL     1       1.416   7.520  20.035  0.00  0.00    +0.000 S 
ATOM      4  C   UNL     1       1.811   8.659  18.812  0.00  0.00    +0.000 C 
ATOM      5  C   UNL     1       1.233   9.862  18.644  0.00  0.00    +0.000 C 
ATOM      6  C   UNL     1       2.859   8.092  17.915  0.00  0.00    +0.000 C 
ATOM      7  O   UNL     1       3.317   8.691  16.951  0.00  0.00    +0.000 OA
ATOM      8  N   UNL     1       3.155   6.793  18.294  0.00  0.00    +0.000 N 
ENDROOT
BRANCH   5   9
ATOM      9  C   UNL     1       0.176  10.371  19.529  0.00  0.00    +0.000 A 
ATOM     10  C   UNL     1      -0.788  11.259  19.034  0.00  0.00    +0.000 A 
ATOM     11  C   UNL     1      -1.723  11.846  19.895  0.00  0.00    +0.000 A 
ATOM     12  C   UNL     1      -1.697  11.540  21.255  0.00  0.00    +0.000 A 
ATOM     13  C   UNL     1      -0.748  10.642  21.755  0.00  0.00    +0.000 A 
ATOM     14 CL   UNL     1      -0.678  10.253  23.435  0.00  0.00    +0.000 Cl
ATOM     15  C   UNL     1       0.184  10.058  20.892  0.00  0.00    +0.000 A 
BRANCH  12  16
ATOM     16  O   UNL     1      -2.594  12.131  22.102  0.00  0.00    +0.000 OA
ATOM     17  H   UNL     1      -2.348  13.058  22.245  0.00  0.00    +0.000 HD
ENDBRANCH  12  16
ENDBRANCH   5   9
BRANCH   1  19
ATOM     18  C   UNL     1       0.534   3.617  20.071  0.00  0.00    +0.000 C 
ATOM     19  C   UNL     1       1.560   4.537  20.730  0.00  0.00    +0.000 C 
ATOM     20  C   UNL     1       2.369   3.792  21.787  0.00  0.00    +0.000 C 
ENDBRANCH   1  19
BRANCH   8  21
ATOM     21  C   UNL     1       4.032   5.971  17.475  0.00  0.00    +0.000 C 
BRANCH  21  22
ATOM     22  C   UNL     1       5.505   6.075  17.813  0.00  0.00    +0.000 A 
ATOM     23  C   UNL     1       6.341   6.963  17.118  0.00  0.00    +0.000 A 
ATOM     24  C   UNL     1       7.661   7.170  17.529  0.00  0.00    +0.000 A 
ATOM     25  C   UNL     1       8.163   6.487  18.638  0.00  0.00    +0.000 A 
ATOM     26  C   UNL     1       7.357   5.572  19.311  0.00  0.00    +0.000 A 
ATOM     27  C   UNL     1       6.040   5.356  18.894  0.00  0.00    +0.000 A 
ENDBRANCH  21  22
ENDBRANCH   8  21
TORSDOF 5
ENDMDL
MODEL 9
REMARK VINA RESULT:      -7.2      1.617      2.324
REMARK  Name = 
REMARK  7 active torsions:
REMARK  status: ('A' for Active; 'I' for Inactive)
REMARK    1  A    between atoms: C_1  and  C_2
REMARK    2  A    between atoms: C_2  and  C_3
REMARK    3  A    between atoms: C_2  and  N_4
REMARK    4  A    between atoms: C_8  and  C_9
REMARK    5  A    between atoms: C_12  and  O_13
REMARK    6  A    between atoms: N_19  and  C_20
REMARK    7  A    between atoms: C_20  and  C_21
REMARK                            x       y       z     vdW  Elec       q    Type
REMARK                         _______ _______ _______ _____ _____    ______ ____
ROOT
ATOM      1  N   UNL     1       2.418   4.436  19.624  0.00  0.00    +0.000 NA
ATOM      2  C   UNL     1       2.450   5.685  19.325  0.00  0.00    +0.000 C 
ATOM      3  S   UNL     1       1.612   6.972  20.152  0.00  0.00    +0.000 S 
ATOM      4  C   UNL     1       1.999   8.127  18.942  0.00  0.00    +0.000 C 
ATOM      5  C   UNL     1       1.505   9.376  18.862  0.00  0.00    +0.000 C 
ATOM      6  C   UNL     1       2.926   7.519  17.943  0.00  0.00    +0.000 C 
ATOM      7  O   UNL     1       3.352   8.121  16.967  0.00  0.00    +0.000 OA
ATOM      8  N   UNL     1       3.147   6.187  18.253  0.00  0.00    +0.000 N 
ENDROOT
BRANCH   5   9
ATOM      9  C   UNL     1       0.565   9.926  19.848  0.00  0.00    +0.000 A 
ATOM     10  C   UNL     1      -0.314  10.955  19.481  0.00  0.00    +0.000 A 
ATOM     11  C   UNL     1      -1.127  11.571  20.440  0.00  0.00    +0.000 A 
ATOM     12  C   UNL     1      -1.064  11.154  21.770  0.00  0.00    +0.000 A 
ATOM     13  C   UNL     1      -0.201  10.118  22.141  0.00  0.00    +0.000 A 
ATOM     14 CL   UNL     1      -0.088   9.588  23.780  0.00  0.00    +0.000 Cl
ATOM     15  C   UNL     1       0.609   9.505  21.181  0.00  0.00    +0.000 A 
BRANCH  12  16
ATOM     16  O   UNL     1      -1.840  11.771  22.713  0.00  0.00    +0.000 OA
ATOM     17  H   UNL     1      -2.279  11.104  23.262  0.00  0.00    +0.000 HD
ENDBRANCH  12  16
ENDBRANCH   5   9
BRANCH   1  19
ATOM     18  C   UNL     1       0.452   3.119  20.128  0.00  0.00    +0.000 C 
ATOM     19  C   UNL     1       1.576   3.961  20.730  0.00  0.00    +0.000 C 
ATOM     20  C   UNL     1       2.411   3.143  21.710  0.00  0.00    +0.000 C 
ENDBRANCH   1  19
BRANCH   8  21
ATOM     21  C   UNL     1       3.891   5.335  17.337  0.00  0.00    +0.000 C 
BRANCH  21  22
ATOM     22  C   UNL     1       5.341   5.109  17.710  0.00  0.00    +0.000 A 
ATOM     23  C   UNL     1       6.245   4.562  16.787  0.00  0.00    +0.000 A 
ATOM     24  C   UNL     1       7.610   4.494  17.077  0.00  0.00    +0.000 A 
ATOM     25  C   UNL     1       8.089   4.969  18.300  0.00  0.00    +0.000 A 
ATOM     26  C   UNL     1       7.198   5.475  19.243  0.00  0.00    +0.000 A 
ATOM     27  C   UNL     1       5.830   5.533  18.957  0.00  0.00    +0.000 A 
ENDBRANCH  21  22
ENDBRANCH   8  21
TORSDOF 5
ENDMDL
