MODEL 1
REMARK VINA RESULT:      -7.6      0.000      0.000
REMARK  Name = 
REMARK  11 active torsions:
REMARK  status: ('A' for Active; 'I' for Inactive)
REMARK    1  A    between atoms: C_1  and  O_2
REMARK    2  A    between atoms: O_2  and  C_3
REMARK    3  A    between atoms: C_6  and  C_7
REMARK    4  A    between atoms: N_8  and  N_9
REMARK    5  A    between atoms: C_10  and  C_12
REMARK    6  A    between atoms: C_12  and  O_13
REMARK    7  A    between atoms: O_13  and  C_14
REMARK    8  A    between atoms: C_22  and  C_23
REMARK    9  A    between atoms: C_23  and  O_25
REMARK   10  A    between atoms: C_26  and  O_27
REMARK   11  A    between atoms: O_27  and  C_28
REMARK                            x       y       z     vdW  Elec       q    Type
REMARK                         _______ _______ _______ _____ _____    ______ ____
ROOT
ATOM      1  C   UNL     1       3.823   5.001  18.146  0.00  0.00    +0.000 C 
ATOM      2  N   UNL     1       5.039   4.636  18.420  0.00  0.00    +0.000 NA
ENDROOT
BRANCH   1   6
ATOM      3  C   UNL     1       1.860   8.715  19.020  0.00  0.00    +0.000 A 
ATOM      4  C   UNL     1       2.626   8.564  17.852  0.00  0.00    +0.000 A 
ATOM      5  C   UNL     1       3.271   7.365  17.565  0.00  0.00    +0.000 A 
ATOM      6  C   UNL     1       3.106   6.270  18.411  0.00  0.00    +0.000 A 
ATOM      7  C   UNL     1       2.366   6.426  19.604  0.00  0.00    +0.000 A 
ATOM      8  C   UNL     1       1.821   7.682  19.964  0.00  0.00    +0.000 A 
BRANCH   3  10
ATOM      9  C   UNL     1       0.169  10.106  18.176  0.00  0.00    +0.000 C 
ATOM     10  O   UNL     1       1.124   9.854  19.217  0.00  0.00    +0.000 OA
ENDBRANCH   3  10
BRANCH   7  11
ATOM     11  C   UNL     1       2.010   5.208  20.394  0.00  0.00    +0.000 C 
ATOM     12  O   UNL     1       1.227   4.383  19.977  0.00  0.00    +0.000 OA
BRANCH  11  13
ATOM     13  O   UNL     1       2.661   5.065  21.564  0.00  0.00    +0.000 OA
ATOM     14  H   UNL     1       3.635   5.112  21.465  0.00  0.00    +0.000 HD
ENDBRANCH  11  13
ENDBRANCH   7  11
BRANCH   8  15
ATOM     15  O   UNL     1       1.286   7.707  21.224  0.00  0.00    +0.000 OA
ATOM     16  C   UNL     1       0.060   8.353  21.524  0.00  0.00    +0.000 C 
ENDBRANCH   8  15
ENDBRANCH   1   6
BRANCH   2  17
ATOM     17  N   UNL     1       5.945   5.516  18.906  0.00  0.00    +0.000 N 
ATOM     18  C   UNL     1       7.176   5.655  18.309  0.00  0.00    +0.000 C 
ATOM     19  O   UNL     1       8.003   6.457  18.754  0.00  0.00    +0.000 OA
ATOM     20  H   UNL     1       5.704   6.156  19.649  0.00  0.00    +0.000 HD
BRANCH  18  21
ATOM     21  C   UNL     1       7.460   4.747  17.112  0.00  0.00    +0.000 C 
BRANCH  21  22
ATOM     22  O   UNL     1       7.444   5.503  15.911  0.00  0.00    +0.000 OA
BRANCH  22  23
ATOM     23  C   UNL     1       7.006   4.936  14.745  0.00  0.00    +0.000 A 
ATOM     24  C   UNL     1       5.856   4.155  14.960  0.00  0.00    +0.000 A 
ATOM     25  C   UNL     1       5.247   3.443  13.923  0.00  0.00    +0.000 A 
ATOM     26  C   UNL     1       5.783   3.512  12.645  0.00  0.00    +0.000 A 
ATOM     27 CL   UNL     1       5.067   2.617  11.363  0.00  0.00    +0.000 Cl
ATOM     28  C   UNL     1       6.905   4.295  12.400  0.00  0.00    +0.000 A 
ATOM     29  C   UNL     1       7.521   5.010  13.440  0.00  0.00    +0.000 A 
ATOM     30 CL   UNL     1       8.903   5.928  12.949  0.00  0.00    +0.000 Cl
ENDBRANCH  22  23
ENDBRANCH  21  22
ENDBRANCH  18  21
ENDBRANCH   2  17
TORSDOF 9
ENDMDL
MODEL 2
REMARK VINA RESULT:      -7.3      2.588      4.727
REMARK  Name = 
REMARK  11 active torsions:
REMARK  status: ('A' for Active; 'I' for Inactive)
REMARK    1  A    between atoms: C_1  and  O_2
REMARK    2  A    between atoms: O_2  and  C_3
REMARK    3  A    between atoms: C_6  and  C_7
REMARK    4  A    between atoms: N_8  and  N_9
REMARK    5  A    between atoms: C_10  and  C_12
REMARK    6  A    between atoms: C_12  and  O_13
REMARK    7  A    between atoms: O_13  and  C_14
REMARK    8  A    between atoms: C_22  and  C_23
REMARK    9  A    between atoms: C_23  and  O_25
REMARK   10  A    between atoms: C_26  and  O_27
REMARK   11  A    between atoms: O_27  and  C_28
REMARK                            x       y       z     vdW  Elec       q    Type
REMARK                         _______ _______ _______ _____ _____    ______ ____
ROOT
ATOM      1  C   UNL     1       2.140   7.560  19.347  0.00  0.00    +0.000 C 
ATOM      2  N   UNL     1       2.320   6.282  19.488  0.00  0.00    +0.000 NA
ENDROOT
BRANCH   1   6
ATOM      3  C   UNL     1       0.236  10.411  21.927  0.00  0.00    +0.000 A 
ATOM      4  C   UNL     1       0.799   9.233  22.447  0.00  0.00    +0.000 A 
ATOM      5  C   UNL     1       1.411   8.301  21.616  0.00  0.00    +0.000 A 
ATOM      6  C   UNL     1       1.533   8.563  20.253  0.00  0.00    +0.000 A 
ATOM      7  C   UNL     1       0.939   9.728  19.719  0.00  0.00    +0.000 A 
ATOM      8  C   UNL     1       0.200  10.611  20.542  0.00  0.00    +0.000 A 
BRANCH   3  10
ATOM      9  C   UNL     1      -1.588  11.146  23.208  0.00  0.00    +0.000 C 
ATOM     10  O   UNL     1      -0.240  11.378  22.774  0.00  0.00    +0.000 OA
ENDBRANCH   3  10
BRANCH   7  11
ATOM     11  C   UNL     1       1.252  10.114  18.310  0.00  0.00    +0.000 C 
ATOM     12  O   UNL     1       2.318  10.604  18.003  0.00  0.00    +0.000 OA
BRANCH  11  13
ATOM     13  O   UNL     1       0.299   9.827  17.404  0.00  0.00    +0.000 OA
ATOM     14  H   UNL     1       0.097   8.868  17.356  0.00  0.00    +0.000 HD
ENDBRANCH  11  13
ENDBRANCH   7  11
BRANCH   8  15
ATOM     15  O   UNL     1      -0.453  11.593  19.846  0.00  0.00    +0.000 OA
ATOM     16  C   UNL     1      -1.854  11.579  19.630  0.00  0.00    +0.000 C 
ENDBRANCH   8  15
ENDBRANCH   1   6
BRANCH   2  17
ATOM     17  N   UNL     1       2.082   5.665  20.669  0.00  0.00    +0.000 N 
ATOM     18  C   UNL     1       2.484   4.365  20.873  0.00  0.00    +0.000 C 
ATOM     19  O   UNL     1       2.265   3.803  21.951  0.00  0.00    +0.000 OA
ATOM     20  H   UNL     1       1.698   6.171  21.453  0.00  0.00    +0.000 HD
BRANCH  18  21
ATOM     21  C   UNL     1       3.168   3.670  19.697  0.00  0.00    +0.000 C 
BRANCH  21  22
ATOM     22  O   UNL     1       4.564   3.925  19.722  0.00  0.00    +0.000 OA
BRANCH  22  23
ATOM     23  C   UNL     1       5.228   4.246  18.570  0.00  0.00    +0.000 A 
ATOM     24  C   UNL     1       4.534   3.781  17.437  0.00  0.00    +0.000 A 
ATOM     25  C   UNL     1       5.038   3.954  16.146  0.00  0.00    +0.000 A 
ATOM     26  C   UNL     1       6.248   4.609  15.970  0.00  0.00    +0.000 A 
ATOM     27 CL   UNL     1       6.899   4.803  14.390  0.00  0.00    +0.000 Cl
ATOM     28  C   UNL     1       6.942   5.101  17.069  0.00  0.00    +0.000 A 
ATOM     29  C   UNL     1       6.441   4.926  18.370  0.00  0.00    +0.000 A 
ATOM     30 CL   UNL     1       7.438   5.602  19.611  0.00  0.00    +0.000 Cl
ENDBRANCH  22  23
ENDBRANCH  21  22
ENDBRANCH  18  21
ENDBRANCH   2  17
TORSDOF 9
ENDMDL
MODEL 3
REMARK VINA RESULT:      -7.1      4.658      7.087
REMARK  Name = 
REMARK  11 active torsions:
REMARK  status: ('A' for Active; 'I' for Inactive)
REMARK    1  A    between atoms: C_1  and  O_2
REMARK    2  A    between atoms: O_2  and  C_3
REMARK    3  A    between atoms: C_6  and  C_7
REMARK    4  A    between atoms: N_8  and  N_9
REMARK    5  A    between atoms: C_10  and  C_12
REMARK    6  A    between atoms: C_12  and  O_13
REMARK    7  A    between atoms: O_13  and  C_14
REMARK    8  A    between atoms: C_22  and  C_23
REMARK    9  A    between atoms: C_23  and  O_25
REMARK   10  A    between atoms: C_26  and  O_27
REMARK   11  A    between atoms: O_27  and  C_28
REMARK                            x       y       z     vdW  Elec       q    Type
REMARK                         _______ _______ _______ _____ _____    ______ ____
ROOT
ATOM      1  C   UNL     1       5.001   6.947  16.664  0.00  0.00    +0.000 C 
ATOM      2  N   UNL     1       6.272   7.193  16.565  0.00  0.00    +0.000 NA
ENDROOT
BRANCH   1   6
ATOM      3  C   UNL     1       2.935   4.543  19.558  0.00  0.00    +0.000 A 
ATOM      4  C   UNL     1       2.707   5.928  19.477  0.00  0.00    +0.000 A 
ATOM      5  C   UNL     1       3.379   6.714  18.547  0.00  0.00    +0.000 A 
ATOM      6  C   UNL     1       4.242   6.118  17.630  0.00  0.00    +0.000 A 
ATOM      7  C   UNL     1       4.502   4.733  17.728  0.00  0.00    +0.000 A 
ATOM      8  C   UNL     1       3.924   3.954  18.759  0.00  0.00    +0.000 A 
BRANCH   3  10
ATOM      9  C   UNL     1       0.770   3.798  20.066  0.00  0.00    +0.000 C 
ATOM     10  O   UNL     1       2.168   3.767  20.385  0.00  0.00    +0.000 OA
ENDBRANCH   3  10
BRANCH   7  11
ATOM     11  C   UNL     1       5.252   4.063  16.623  0.00  0.00    +0.000 C 
ATOM     12  O   UNL     1       4.721   3.781  15.571  0.00  0.00    +0.000 OA
BRANCH  11  13
ATOM     13  O   UNL     1       6.561   3.849  16.856  0.00  0.00    +0.000 OA
ATOM     14  H   UNL     1       6.739   3.537  17.768  0.00  0.00    +0.000 HD
ENDBRANCH  11  13
ENDBRANCH   7  11
BRANCH   8  15
ATOM     15  O   UNL     1       4.408   2.676  18.819  0.00  0.00    +0.000 OA
ATOM     16  C   UNL     1       3.608   1.538  18.548  0.00  0.00    +0.000 C 
ENDBRANCH   8  15
ENDBRANCH   1   6
BRANCH   2  17
ATOM     17  N   UNL     1       7.141   6.796  17.523  0.00  0.00    +0.000 N 
ATOM     18  C   UNL     1       7.922   7.715  18.185  0.00  0.00    +0.000 C 
ATOM     19  O   UNL     1       8.716   7.351  19.058  0.00  0.00    +0.000 OA
ATOM     20  H   UNL     1       7.165   5.838  17.841  0.00  0.00    +0.000 HD
BRANCH  18  21
ATOM     21  C   UNL     1       7.773   9.173  17.753  0.00  0.00    +0.000 C 
BRANCH  21  22
ATOM     22  O   UNL     1       9.036   9.820  17.770  0.00  0.00    +0.000 OA
BRANCH  22  23
ATOM     23  C   UNL     1       9.221  10.954  18.512  0.00  0.00    +0.000 A 
ATOM     24  C   UNL     1      10.037  10.703  19.630  0.00  0.00    +0.000 A 
ATOM     25  C   UNL     1      10.336  11.702  20.561  0.00  0.00    +0.000 A 
ATOM     26  C   UNL     1       9.824  12.977  20.377  0.00  0.00    +0.000 A 
ATOM     27 CL   UNL     1      10.154  14.211  21.529  0.00  0.00    +0.000 Cl
ATOM     28  C   UNL     1       9.034  13.260  19.267  0.00  0.00    +0.000 A 
ATOM     29  C   UNL     1       8.729  12.258  18.331  0.00  0.00    +0.000 A 
ATOM     30 CL   UNL     1       7.737  12.792  17.019  0.00  0.00    +0.000 Cl
ENDBRANCH  22  23
ENDBRANCH  21  22
ENDBRANCH  18  21
ENDBRANCH   2  17
TORSDOF 9
ENDMDL
MODEL 4
REMARK VINA RESULT:      -7.0      4.652      6.886
REMARK  Name = 
REMARK  11 active torsions:
REMARK  status: ('A' for Active; 'I' for Inactive)
REMARK    1  A    between atoms: C_1  and  O_2
REMARK    2  A    between atoms: O_2  and  C_3
REMARK    3  A    between atoms: C_6  and  C_7
REMARK    4  A    between atoms: N_8  and  N_9
REMARK    5  A    between atoms: C_10  and  C_12
REMARK    6  A    between atoms: C_12  and  O_13
REMARK    7  A    between atoms: O_13  and  C_14
REMARK    8  A    between atoms: C_22  and  C_23
REMARK    9  A    between atoms: C_23  and  O_25
REMARK   10  A    between atoms: C_26  and  O_27
REMARK   11  A    between atoms: O_27  and  C_28
REMARK                            x       y       z     vdW  Elec       q    Type
REMARK                         _______ _______ _______ _____ _____    ______ ____
ROOT
ATOM      1  C   UNL     1       5.249   6.962  16.334  0.00  0.00    +0.000 C 
ATOM      2  N   UNL     1       6.535   7.121  16.424  0.00  0.00    +0.000 NA
ENDROOT
BRANCH   1   6
ATOM      3  C   UNL     1       2.608   4.810  18.944  0.00  0.00    +0.000 A 
ATOM      4  C   UNL     1       2.489   6.202  18.787  0.00  0.00    +0.000 A 
ATOM      5  C   UNL     1       3.347   6.907  17.948  0.00  0.00    +0.000 A 
ATOM      6  C   UNL     1       4.298   6.221  17.195  0.00  0.00    +0.000 A 
ATOM      7  C   UNL     1       4.445   4.828  17.374  0.00  0.00    +0.000 A 
ATOM      8  C   UNL     1       3.665   4.129  18.326  0.00  0.00    +0.000 A 
BRANCH   3  10
ATOM      9  C   UNL     1       1.749   4.354  21.079  0.00  0.00    +0.000 C 
ATOM     10  O   UNL     1       1.673   4.117  19.666  0.00  0.00    +0.000 OA
ENDBRANCH   3  10
BRANCH   7  11
ATOM     11  C   UNL     1       5.307   4.068  16.420  0.00  0.00    +0.000 C 
ATOM     12  O   UNL     1       4.938   3.805  15.295  0.00  0.00    +0.000 OA
BRANCH  11  13
ATOM     13  O   UNL     1       6.536   3.751  16.873  0.00  0.00    +0.000 OA
ATOM     14  H   UNL     1       7.121   3.401  16.169  0.00  0.00    +0.000 HD
ENDBRANCH  11  13
ENDBRANCH   7  11
BRANCH   8  15
ATOM     15  O   UNL     1       4.047   2.827  18.499  0.00  0.00    +0.000 OA
ATOM     16  C   UNL     1       4.473   2.311  19.750  0.00  0.00    +0.000 C 
ENDBRANCH   8  15
ENDBRANCH   1   6
BRANCH   2  17
ATOM     17  N   UNL     1       7.220   6.707  17.514  0.00  0.00    +0.000 N 
ATOM     18  C   UNL     1       7.992   7.589  18.233  0.00  0.00    +0.000 C 
ATOM     19  O   UNL     1       8.618   7.209  19.228  0.00  0.00    +0.000 OA
ATOM     20  H   UNL     1       7.102   5.773  17.880  0.00  0.00    +0.000 HD
BRANCH  18  21
ATOM     21  C   UNL     1       8.053   9.024  17.712  0.00  0.00    +0.000 C 
BRANCH  21  22
ATOM     22  O   UNL     1       9.071   9.747  18.387  0.00  0.00    +0.000 OA
BRANCH  22  23
ATOM     23  C   UNL     1       9.032  11.114  18.433  0.00  0.00    +0.000 A 
ATOM     24  C   UNL     1       8.091  11.627  17.521  0.00  0.00    +0.000 A 
ATOM     25  C   UNL     1       7.900  13.001  17.359  0.00  0.00    +0.000 A 
ATOM     26  C   UNL     1       8.649  13.887  18.119  0.00  0.00    +0.000 A 
ATOM     27 CL   UNL     1       8.451  15.582  17.910  0.00  0.00    +0.000 Cl
ATOM     28  C   UNL     1       9.569  13.407  19.046  0.00  0.00    +0.000 A 
ATOM     29  C   UNL     1       9.766  12.026  19.210  0.00  0.00    +0.000 A 
ATOM     30 CL   UNL     1      10.948  11.615  20.405  0.00  0.00    +0.000 Cl
ENDBRANCH  22  23
ENDBRANCH  21  22
ENDBRANCH  18  21
ENDBRANCH   2  17
TORSDOF 9
ENDMDL
MODEL 5
REMARK VINA RESULT:      -6.9      1.043      1.089
REMARK  Name = 
REMARK  11 active torsions:
REMARK  status: ('A' for Active; 'I' for Inactive)
REMARK    1  A    between atoms: C_1  and  O_2
REMARK    2  A    between atoms: O_2  and  C_3
REMARK    3  A    between atoms: C_6  and  C_7
REMARK    4  A    between atoms: N_8  and  N_9
REMARK    5  A    between atoms: C_10  and  C_12
REMARK    6  A    between atoms: C_12  and  O_13
REMARK    7  A    between atoms: O_13  and  C_14
REMARK    8  A    between atoms: C_22  and  C_23
REMARK    9  A    between atoms: C_23  and  O_25
REMARK   10  A    between atoms: C_26  and  O_27
REMARK   11  A    between atoms: O_27  and  C_28
REMARK                            x       y       z     vdW  Elec       q    Type
REMARK                         _______ _______ _______ _____ _____    ______ ____
ROOT
ATOM      1  C   UNL     1       3.316   5.916  18.104  0.00  0.00    +0.000 C 
ATOM      2  N   UNL     1       4.585   5.802  17.853  0.00  0.00    +0.000 NA
ENDROOT
BRANCH   1   6
ATOM      3  C   UNL     1       1.090   9.357  19.378  0.00  0.00    +0.000 A 
ATOM      4  C   UNL     1       1.755   9.347  18.139  0.00  0.00    +0.000 A 
ATOM      5  C   UNL     1       2.484   8.238  17.723  0.00  0.00    +0.000 A 
ATOM      6  C   UNL     1       2.506   7.088  18.510  0.00  0.00    +0.000 A 
ATOM      7  C   UNL     1       1.869   7.103  19.770  0.00  0.00    +0.000 A 
ATOM      8  C   UNL     1       1.240   8.275  20.255  0.00  0.00    +0.000 A 
BRANCH   3  10
ATOM      9  C   UNL     1       0.887  11.688  19.557  0.00  0.00    +0.000 C 
ATOM     10  O   UNL     1       0.269  10.402  19.709  0.00  0.00    +0.000 OA
ENDBRANCH   3  10
BRANCH   7  11
ATOM     11  C   UNL     1       1.709   5.815  20.511  0.00  0.00    +0.000 C 
ATOM     12  O   UNL     1       0.803   5.048  20.269  0.00  0.00    +0.000 OA
BRANCH  11  13
ATOM     13  O   UNL     1       2.668   5.543  21.416  0.00  0.00    +0.000 OA
ATOM     14  H   UNL     1       3.485   5.188  21.008  0.00  0.00    +0.000 HD
ENDBRANCH  11  13
ENDBRANCH   7  11
BRANCH   8  15
ATOM     15  O   UNL     1       0.825   8.178  21.555  0.00  0.00    +0.000 OA
ATOM     16  C   UNL     1       1.169   9.134  22.545  0.00  0.00    +0.000 C 
ENDBRANCH   8  15
ENDBRANCH   1   6
BRANCH   2  17
ATOM     17  N   UNL     1       5.387   6.889  17.782  0.00  0.00    +0.000 N 
ATOM     18  C   UNL     1       6.651   6.793  17.247  0.00  0.00    +0.000 C 
ATOM     19  O   UNL     1       7.383   7.785  17.185  0.00  0.00    +0.000 OA
ATOM     20  H   UNL     1       5.045   7.807  18.026  0.00  0.00    +0.000 HD
BRANCH  18  21
ATOM     21  C   UNL     1       7.091   5.405  16.781  0.00  0.00    +0.000 C 
BRANCH  21  22
ATOM     22  O   UNL     1       7.745   5.495  15.525  0.00  0.00    +0.000 OA
BRANCH  22  23
ATOM     23  C   UNL     1       7.192   4.917  14.415  0.00  0.00    +0.000 A 
ATOM     24  C   UNL     1       6.117   4.078  14.762  0.00  0.00    +0.000 A 
ATOM     25  C   UNL     1       5.417   3.346  13.799  0.00  0.00    +0.000 A 
ATOM     26  C   UNL     1       5.783   3.453  12.465  0.00  0.00    +0.000 A 
ATOM     27 CL   UNL     1       4.955   2.534  11.270  0.00  0.00    +0.000 Cl
ATOM     28  C   UNL     1       6.826   4.294  12.092  0.00  0.00    +0.000 A 
ATOM     29  C   UNL     1       7.533   5.029  13.057  0.00  0.00    +0.000 A 
ATOM     30 CL   UNL     1       8.796   6.019  12.410  0.00  0.00    +0.000 Cl
ENDBRANCH  22  23
ENDBRANCH  21  22
ENDBRANCH  18  21
ENDBRANCH   2  17
TORSDOF 9
ENDMDL
MODEL 6
REMARK VINA RESULT:      -6.8      1.214      1.733
REMARK  Name = 
REMARK  11 active torsions:
REMARK  status: ('A' for Active; 'I' for Inactive)
REMARK    1  A    between atoms: C_1  and  O_2
REMARK    2  A    between atoms: O_2  and  C_3
REMARK    3  A    between atoms: C_6  and  C_7
REMARK    4  A    between atoms: N_8  and  N_9
REMARK    5  A    between atoms: C_10  and  C_12
REMARK    6  A    between atoms: C_12  and  O_13
REMARK    7  A    between atoms: O_13  and  C_14
REMARK    8  A    between atoms: C_22  and  C_23
REMARK    9  A    between atoms: C_23  and  O_25
REMARK   10  A    between atoms: C_26  and  O_27
REMARK   11  A    between atoms: O_27  and  C_28
REMARK                            x       y       z     vdW  Elec       q    Type
REMARK                         _______ _______ _______ _____ _____    ______ ____
ROOT
ATOM      1  C   UNL     1       4.379   4.453  19.046  0.00  0.00    +0.000 C 
ATOM      2  N   UNL     1       5.615   4.282  19.408  0.00  0.00    +0.000 NA
ENDROOT
BRANCH   1   6
ATOM      3  C   UNL     1       2.125   8.091  18.731  0.00  0.00    +0.000 A 
ATOM      4  C   UNL     1       3.154   7.800  17.819  0.00  0.00    +0.000 A 
ATOM      5  C   UNL     1       3.894   6.626  17.919  0.00  0.00    +0.000 A 
ATOM      6  C   UNL     1       3.572   5.686  18.896  0.00  0.00    +0.000 A 
ATOM      7  C   UNL     1       2.562   5.987  19.837  0.00  0.00    +0.000 A 
ATOM      8  C   UNL     1       1.900   7.238  19.819  0.00  0.00    +0.000 A 
BRANCH   3  10
ATOM      9  C   UNL     1       2.023  10.328  18.032  0.00  0.00    +0.000 C 
ATOM     10  O   UNL     1       1.321   9.182  18.536  0.00  0.00    +0.000 OA
ENDBRANCH   3  10
BRANCH   7  11
ATOM     11  C   UNL     1       2.074   4.902  20.740  0.00  0.00    +0.000 C 
ATOM     12  O   UNL     1       2.698   4.559  21.722  0.00  0.00    +0.000 OA
BRANCH  11  13
ATOM     13  O   UNL     1       0.875   4.378  20.423  0.00  0.00    +0.000 OA
ATOM     14  H   UNL     1       0.372   4.935  19.793  0.00  0.00    +0.000 HD
ENDBRANCH  11  13
ENDBRANCH   7  11
BRANCH   8  15
ATOM     15  O   UNL     1       1.078   7.440  20.895  0.00  0.00    +0.000 OA
ATOM     16  C   UNL     1       1.176   8.578  21.733  0.00  0.00    +0.000 C 
ENDBRANCH   8  15
ENDBRANCH   1   6
BRANCH   2  17
ATOM     17  N   UNL     1       6.451   5.333  19.571  0.00  0.00    +0.000 N 
ATOM     18  C   UNL     1       7.427   5.603  18.639  0.00  0.00    +0.000 C 
ATOM     19  O   UNL     1       8.190   6.561  18.790  0.00  0.00    +0.000 OA
ATOM     20  H   UNL     1       6.317   5.995  20.321  0.00  0.00    +0.000 HD
BRANCH  18  21
ATOM     21  C   UNL     1       7.523   4.641  17.455  0.00  0.00    +0.000 C 
BRANCH  21  22
ATOM     22  O   UNL     1       7.375   5.351  16.235  0.00  0.00    +0.000 OA
BRANCH  22  23
ATOM     23  C   UNL     1       6.813   4.743  15.146  0.00  0.00    +0.000 A 
ATOM     24  C   UNL     1       7.585   4.957  13.989  0.00  0.00    +0.000 A 
ATOM     25  C   UNL     1       7.190   4.465  12.743  0.00  0.00    +0.000 A 
ATOM     26  C   UNL     1       6.012   3.740  12.639  0.00  0.00    +0.000 A 
ATOM     27 CL   UNL     1       5.494   3.154  11.108  0.00  0.00    +0.000 Cl
ATOM     28  C   UNL     1       5.243   3.492  13.771  0.00  0.00    +0.000 A 
ATOM     29  C   UNL     1       5.634   3.988  15.026  0.00  0.00    +0.000 A 
ATOM     30 CL   UNL     1       4.556   3.583  16.316  0.00  0.00    +0.000 Cl
ENDBRANCH  22  23
ENDBRANCH  21  22
ENDBRANCH  18  21
ENDBRANCH   2  17
TORSDOF 9
ENDMDL
MODEL 7
REMARK VINA RESULT:      -6.8      4.596      8.881
REMARK  Name = 
REMARK  11 active torsions:
REMARK  status: ('A' for Active; 'I' for Inactive)
REMARK    1  A    between atoms: C_1  and  O_2
REMARK    2  A    between atoms: O_2  and  C_3
REMARK    3  A    between atoms: C_6  and  C_7
REMARK    4  A    between atoms: N_8  and  N_9
REMARK    5  A    between atoms: C_10  and  C_12
REMARK    6  A    between atoms: C_12  and  O_13
REMARK    7  A    between atoms: O_13  and  C_14
REMARK    8  A    between atoms: C_22  and  C_23
REMARK    9  A    between atoms: C_23  and  O_25
REMARK   10  A    between atoms: C_26  and  O_27
REMARK   11  A    between atoms: O_27  and  C_28
REMARK                            x       y       z     vdW  Elec       q    Type
REMARK                         _______ _______ _______ _____ _____    ______ ____
ROOT
ATOM      1  C   UNL     1       3.152   7.578  17.290  0.00  0.00    +0.000 C 
ATOM      2  N   UNL     1       2.474   8.556  17.811  0.00  0.00    +0.000 NA
ENDROOT
BRANCH   1   6
ATOM      3  C   UNL     1       4.720   4.043  19.149  0.00  0.00    +0.000 A 
ATOM      4  C   UNL     1       3.353   4.358  19.239  0.00  0.00    +0.000 A 
ATOM      5  C   UNL     1       2.839   5.506  18.645  0.00  0.00    +0.000 A 
ATOM      6  C   UNL     1       3.673   6.327  17.889  0.00  0.00    +0.000 A 
ATOM      7  C   UNL     1       5.054   6.035  17.823  0.00  0.00    +0.000 A 
ATOM      8  C   UNL     1       5.602   4.943  18.538  0.00  0.00    +0.000 A 
BRANCH   3  10
ATOM      9  C   UNL     1       4.256   2.176  20.493  0.00  0.00    +0.000 C 
ATOM     10  O   UNL     1       5.182   2.843  19.622  0.00  0.00    +0.000 OA
ENDBRANCH   3  10
BRANCH   7  11
ATOM     11  C   UNL     1       5.901   6.784  16.847  0.00  0.00    +0.000 C 
ATOM     12  O   UNL     1       6.506   7.786  17.163  0.00  0.00    +0.000 OA
BRANCH  11  13
ATOM     13  O   UNL     1       5.993   6.238  15.619  0.00  0.00    +0.000 OA
ATOM     14  H   UNL     1       6.857   6.410  15.191  0.00  0.00    +0.000 HD
ENDBRANCH  11  13
ENDBRANCH   7  11
BRANCH   8  15
ATOM     15  O   UNL     1       6.969   4.899  18.509  0.00  0.00    +0.000 OA
ATOM     16  C   UNL     1       7.778   5.519  19.495  0.00  0.00    +0.000 C 
ENDBRANCH   8  15
ENDBRANCH   1   6
BRANCH   2  17
ATOM     17  N   UNL     1       1.981   8.477  19.069  0.00  0.00    +0.000 N 
ATOM     18  C   UNL     1       1.017   9.359  19.499  0.00  0.00    +0.000 C 
ATOM     19  O   UNL     1       0.568   9.286  20.648  0.00  0.00    +0.000 OA
ATOM     20  H   UNL     1       2.233   7.715  19.681  0.00  0.00    +0.000 HD
BRANCH  18  21
ATOM     21  C   UNL     1       0.577  10.429  18.501  0.00  0.00    +0.000 C 
BRANCH  21  22
ATOM     22  O   UNL     1      -0.495   9.945  17.706  0.00  0.00    +0.000 OA
BRANCH  22  23
ATOM     23  C   UNL     1      -1.728  10.535  17.777  0.00  0.00    +0.000 A 
ATOM     24  C   UNL     1      -1.859  11.298  18.952  0.00  0.00    +0.000 A 
ATOM     25  C   UNL     1      -3.047  11.963  19.266  0.00  0.00    +0.000 A 
ATOM     26  C   UNL     1      -4.124  11.880  18.395  0.00  0.00    +0.000 A 
ATOM     27 CL   UNL     1      -5.604  12.666  18.780  0.00  0.00    +0.000 Cl
ATOM     28  C   UNL     1      -4.013  11.154  17.215  0.00  0.00    +0.000 A 
ATOM     29  C   UNL     1      -2.822  10.480  16.897  0.00  0.00    +0.000 A 
ATOM     30 CL   UNL     1      -2.867   9.630  15.392  0.00  0.00    +0.000 Cl
ENDBRANCH  22  23
ENDBRANCH  21  22
ENDBRANCH  18  21
ENDBRANCH   2  17
TORSDOF 9
ENDMDL
MODEL 8
REMARK VINA RESULT:      -6.8      4.625      7.008
REMARK  Name = 
REMARK  11 active torsions:
REMARK  status: ('A' for Active; 'I' for Inactive)
REMARK    1  A    between atoms: C_1  and  O_2
REMARK    2  A    between atoms: O_2  and  C_3
REMARK    3  A    between atoms: C_6  and  C_7
REMARK    4  A    between atoms: N_8  and  N_9
REMARK    5  A    between atoms: C_10  and  C_12
REMARK    6  A    between atoms: C_12  and  O_13
REMARK    7  A    between atoms: O_13  and  C_14
REMARK    8  A    between atoms: C_22  and  C_23
REMARK    9  A    between atoms: C_23  and  O_25
REMARK   10  A    between atoms: C_26  and  O_27
REMARK   11  A    between atoms: O_27  and  C_28
REMARK                            x       y       z     vdW  Elec       q    Type
REMARK                         _______ _______ _______ _____ _____    ______ ____
ROOT
ATOM      1  C   UNL     1       5.281   7.177  16.406  0.00  0.00    +0.000 C 
ATOM      2  N   UNL     1       6.560   7.360  16.534  0.00  0.00    +0.000 NA
ENDROOT
BRANCH   1   6
ATOM      3  C   UNL     1       2.646   4.770  18.789  0.00  0.00    +0.000 A 
ATOM      4  C   UNL     1       2.470   6.162  18.704  0.00  0.00    +0.000 A 
ATOM      5  C   UNL     1       3.325   6.950  17.939  0.00  0.00    +0.000 A 
ATOM      6  C   UNL     1       4.333   6.349  17.187  0.00  0.00    +0.000 A 
ATOM      7  C   UNL     1       4.536   4.956  17.295  0.00  0.00    +0.000 A 
ATOM      8  C   UNL     1       3.754   4.171  18.176  0.00  0.00    +0.000 A 
BRANCH   3  10
ATOM      9  C   UNL     1       1.549   4.341  20.818  0.00  0.00    +0.000 C 
ATOM     10  O   UNL     1       1.717   3.998  19.435  0.00  0.00    +0.000 OA
ENDBRANCH   3  10
BRANCH   7  11
ATOM     11  C   UNL     1       5.467   4.288  16.335  0.00  0.00    +0.000 C 
ATOM     12  O   UNL     1       6.604   4.001  16.642  0.00  0.00    +0.000 OA
BRANCH  11  13
ATOM     13  O   UNL     1       4.938   3.978  15.136  0.00  0.00    +0.000 OA
ATOM     14  H   UNL     1       4.123   3.439  15.208  0.00  0.00    +0.000 HD
ENDBRANCH  11  13
ENDBRANCH   7  11
BRANCH   8  15
ATOM     15  O   UNL     1       4.188   2.879  18.293  0.00  0.00    +0.000 OA
ATOM     16  C   UNL     1       4.488   2.279  19.542  0.00  0.00    +0.000 C 
ENDBRANCH   8  15
ENDBRANCH   1   6
BRANCH   2  17
ATOM     17  N   UNL     1       7.235   6.878  17.603  0.00  0.00    +0.000 N 
ATOM     18  C   UNL     1       8.050   7.700  18.346  0.00  0.00    +0.000 C 
ATOM     19  O   UNL     1       8.667   7.258  19.320  0.00  0.00    +0.000 OA
ATOM     20  H   UNL     1       7.081   5.937  17.937  0.00  0.00    +0.000 HD
BRANCH  18  21
ATOM     21  C   UNL     1       8.168   9.150  17.875  0.00  0.00    +0.000 C 
BRANCH  21  22
ATOM     22  O   UNL     1       8.726   9.954  18.903  0.00  0.00    +0.000 OA
BRANCH  22  23
ATOM     23  C   UNL     1       9.439  11.079  18.589  0.00  0.00    +0.000 A 
ATOM     24  C   UNL     1      10.728  11.037  19.149  0.00  0.00    +0.000 A 
ATOM     25  C   UNL     1      11.629  12.095  18.999  0.00  0.00    +0.000 A 
ATOM     26  C   UNL     1      11.249  13.213  18.271  0.00  0.00    +0.000 A 
ATOM     27 CL   UNL     1      12.332  14.538  18.102  0.00  0.00    +0.000 Cl
ATOM     28  C   UNL     1       9.989  13.270  17.685  0.00  0.00    +0.000 A 
ATOM     29  C   UNL     1       9.080  12.210  17.837  0.00  0.00    +0.000 A 
ATOM     30 CL   UNL     1       7.564  12.456  17.041  0.00  0.00    +0.000 Cl
ENDBRANCH  22  23
ENDBRANCH  21  22
ENDBRANCH  18  21
ENDBRANCH   2  17
TORSDOF 9
ENDMDL
MODEL 9
REMARK VINA RESULT:      -6.7      2.666      4.849
REMARK  Name = 
REMARK  11 active torsions:
REMARK  status: ('A' for Active; 'I' for Inactive)
REMARK    1  A    between atoms: C_1  and  O_2
REMARK    2  A    between atoms: O_2  and  C_3
REMARK    3  A    between atoms: C_6  and  C_7
REMARK    4  A    between atoms: N_8  and  N_9
REMARK    5  A    between atoms: C_10  and  C_12
REMARK    6  A    between atoms: C_12  and  O_13
REMARK    7  A    between atoms: O_13  and  C_14
REMARK    8  A    between atoms: C_22  and  C_23
REMARK    9  A    between atoms: C_23  and  O_25
REMARK   10  A    between atoms: C_26  and  O_27
REMARK   11  A    between atoms: O_27  and  C_28
REMARK                            x       y       z     vdW  Elec       q    Type
REMARK                         _______ _______ _______ _____ _____    ______ ____
ROOT
ATOM      1  C   UNL     1       2.113   7.487  19.461  0.00  0.00    +0.000 C 
ATOM      2  N   UNL     1       2.320   6.218  19.643  0.00  0.00    +0.000 NA
ENDROOT
BRANCH   1   6
ATOM      3  C   UNL     1       0.203  10.385  21.984  0.00  0.00    +0.000 A 
ATOM      4  C   UNL     1       0.870   9.278  22.536  0.00  0.00    +0.000 A 
ATOM      5  C   UNL     1       1.486   8.331  21.724  0.00  0.00    +0.000 A 
ATOM      6  C   UNL     1       1.504   8.510  20.342  0.00  0.00    +0.000 A 
ATOM      7  C   UNL     1       0.805   9.601  19.779  0.00  0.00    +0.000 A 
ATOM      8  C   UNL     1       0.066  10.491  20.594  0.00  0.00    +0.000 A 
BRANCH   3  10
ATOM      9  C   UNL     1      -1.650  11.189  23.179  0.00  0.00    +0.000 C 
ATOM     10  O   UNL     1      -0.278  11.375  22.800  0.00  0.00    +0.000 OA
ENDBRANCH   3  10
BRANCH   7  11
ATOM     11  C   UNL     1       1.003   9.912  18.331  0.00  0.00    +0.000 C 
ATOM     12  O   UNL     1       0.335   9.385  17.468  0.00  0.00    +0.000 OA
BRANCH  11  13
ATOM     13  O   UNL     1       1.928  10.853  18.060  0.00  0.00    +0.000 OA
ATOM     14  H   UNL     1       2.845  10.511  18.113  0.00  0.00    +0.000 HD
ENDBRANCH  11  13
ENDBRANCH   7  11
BRANCH   8  15
ATOM     15  O   UNL     1      -0.690  11.385  19.885  0.00  0.00    +0.000 OA
ATOM     16  C   UNL     1      -0.423  12.777  19.873  0.00  0.00    +0.000 C 
ENDBRANCH   8  15
ENDBRANCH   1   6
BRANCH   2  17
ATOM     17  N   UNL     1       2.114   5.638  20.848  0.00  0.00    +0.000 N 
ATOM     18  C   UNL     1       2.405   4.308  21.044  0.00  0.00    +0.000 C 
ATOM     19  O   UNL     1       2.215   3.780  22.144  0.00  0.00    +0.000 OA
ATOM     20  H   UNL     1       1.839   6.186  21.650  0.00  0.00    +0.000 HD
BRANCH  18  21
ATOM     21  C   UNL     1       2.930   3.539  19.833  0.00  0.00    +0.000 C 
BRANCH  21  22
ATOM     22  O   UNL     1       4.322   3.768  19.674  0.00  0.00    +0.000 OA
BRANCH  22  23
ATOM     23  C   UNL     1       4.851   3.963  18.427  0.00  0.00    +0.000 A 
ATOM     24  C   UNL     1       6.167   4.456  18.505  0.00  0.00    +0.000 A 
ATOM     25  C   UNL     1       6.901   4.771  17.359  0.00  0.00    +0.000 A 
ATOM     26  C   UNL     1       6.326   4.587  16.111  0.00  0.00    +0.000 A 
ATOM     27 CL   UNL     1       7.204   5.000  14.690  0.00  0.00    +0.000 Cl
ATOM     28  C   UNL     1       5.037   4.078  16.004  0.00  0.00    +0.000 A 
ATOM     29  C   UNL     1       4.294   3.763  17.153  0.00  0.00    +0.000 A 
ATOM     30 CL   UNL     1       2.712   3.142  16.828  0.00  0.00    +0.000 Cl
ENDBRANCH  22  23
ENDBRANCH  21  22
ENDBRANCH  18  21
ENDBRANCH   2  17
TORSDOF 9
ENDMDL
