MODEL 1
REMARK VINA RESULT:      -7.2      0.000      0.000
REMARK  Name = 
REMARK  6 active torsions:
REMARK  status: ('A' for Active; 'I' for Inactive)
REMARK    1  A    between atoms: C_1  and  O_2
REMARK    2  A    between atoms: O_2  and  C_3
REMARK    3  A    between atoms: C_6  and  O_7
REMARK    4  A    between atoms: O_7  and  C_8
REMARK    5  A    between atoms: C_8  and  C_9
REMARK    6  A    between atoms: C_17  and  N_18
REMARK                            x       y       z     vdW  Elec       q    Type
REMARK                         _______ _______ _______ _____ _____    ______ ____
ROOT
ATOM      1  C   UNL     1       6.266   4.525  15.263  0.00  0.00    +0.000 A 
ATOM      2  C   UNL     1       5.618   5.694  14.886  0.00  0.00    +0.000 A 
ATOM      3  C   UNL     1       5.008   6.506  15.841  0.00  0.00    +0.000 A 
ATOM      4  C   UNL     1       4.991   6.159  17.205  0.00  0.00    +0.000 A 
ATOM      5  C   UNL     1       5.714   5.015  17.590  0.00  0.00    +0.000 A 
ATOM      6  C   UNL     1       6.333   4.196  16.614  0.00  0.00    +0.000 A 
ENDROOT
BRANCH   5   7
ATOM      7  N   UNL     1       5.868   4.613  18.999  0.00  0.00    +0.000 N 
ATOM      8  O   UNL     1       5.228   3.652  19.433  0.00  0.00    +0.000 OA
ATOM      9  O   UNL     1       6.631   5.302  19.701  0.00  0.00    +0.000 OA
ENDBRANCH   5   7
BRANCH   1  11
ATOM     10  C   UNL     1       5.987   3.678  13.059  0.00  0.00    +0.000 C 
ATOM     11  O   UNL     1       6.793   3.817  14.222  0.00  0.00    +0.000 OA
ENDBRANCH   1  11
BRANCH   4  12
ATOM     12  O   UNL     1       4.264   6.889  18.126  0.00  0.00    +0.000 OA
BRANCH  12  13
ATOM     13  C   UNL     1       2.890   6.532  18.184  0.00  0.00    +0.000 C 
BRANCH  13  14
ATOM     14  C   UNL     1       2.231   6.072  19.494  0.00  0.00    +0.000 C 
ATOM     15  O   UNL     1       2.035   6.816  20.455  0.00  0.00    +0.000 OA
ATOM     16  N   UNL     1       1.833   4.726  19.488  0.00  0.00    +0.000 N 
ATOM     17  C   UNL     1       1.116   4.170  20.613  0.00  0.00    +0.000 C 
ATOM     18  C   UNL     1       1.124   2.672  20.368  0.00  0.00    +0.000 C 
ATOM     19  C   UNL     1       1.156   2.551  18.857  0.00  0.00    +0.000 C 
ATOM     20  C   UNL     1       1.880   3.803  18.428  0.00  0.00    +0.000 C 
ATOM     21  O   UNL     1       2.376   3.955  17.324  0.00  0.00    +0.000 OA
ENDBRANCH  13  14
ENDBRANCH  12  13
ENDBRANCH   4  12
TORSDOF 5
ENDMDL
MODEL 2
REMARK VINA RESULT:      -7.2      2.047      3.264
REMARK  Name = 
REMARK  6 active torsions:
REMARK  status: ('A' for Active; 'I' for Inactive)
REMARK    1  A    between atoms: C_1  and  O_2
REMARK    2  A    between atoms: O_2  and  C_3
REMARK    3  A    between atoms: C_6  and  O_7
REMARK    4  A    between atoms: O_7  and  C_8
REMARK    5  A    between atoms: C_8  and  C_9
REMARK    6  A    between atoms: C_17  and  N_18
REMARK                            x       y       z     vdW  Elec       q    Type
REMARK                         _______ _______ _______ _____ _____    ______ ____
ROOT
ATOM      1  C   UNL     1       6.696   6.315  16.868  0.00  0.00    +0.000 A 
ATOM      2  C   UNL     1       6.714   5.228  16.004  0.00  0.00    +0.000 A 
ATOM      3  C   UNL     1       5.636   4.345  15.951  0.00  0.00    +0.000 A 
ATOM      4  C   UNL     1       4.515   4.496  16.790  0.00  0.00    +0.000 A 
ATOM      5  C   UNL     1       4.469   5.640  17.607  0.00  0.00    +0.000 A 
ATOM      6  C   UNL     1       5.567   6.534  17.653  0.00  0.00    +0.000 A 
ENDROOT
BRANCH   5   7
ATOM      7  N   UNL     1       3.301   5.971  18.442  0.00  0.00    +0.000 N 
ATOM      8  O   UNL     1       2.228   6.260  17.904  0.00  0.00    +0.000 OA
ATOM      9  O   UNL     1       3.472   5.972  19.675  0.00  0.00    +0.000 OA
ENDBRANCH   5   7
BRANCH   1  11
ATOM     10  C   UNL     1       7.850   8.243  17.644  0.00  0.00    +0.000 C 
ATOM     11  O   UNL     1       7.827   7.076  16.832  0.00  0.00    +0.000 OA
ENDBRANCH   1  11
BRANCH   4  12
ATOM     12  O   UNL     1       3.517   3.543  16.838  0.00  0.00    +0.000 OA
BRANCH  12  13
ATOM     13  C   UNL     1       3.842   2.412  17.636  0.00  0.00    +0.000 C 
BRANCH  13  14
ATOM     14  C   UNL     1       4.005   2.522  19.161  0.00  0.00    +0.000 C 
ATOM     15  O   UNL     1       5.096   2.509  19.731  0.00  0.00    +0.000 OA
ATOM     16  N   UNL     1       2.793   2.678  19.851  0.00  0.00    +0.000 N 
ATOM     17  C   UNL     1       2.788   2.888  21.281  0.00  0.00    +0.000 C 
ATOM     18  C   UNL     1       1.335   2.719  21.686  0.00  0.00    +0.000 C 
ATOM     19  C   UNL     1       0.562   3.166  20.461  0.00  0.00    +0.000 C 
ATOM     20  C   UNL     1       1.498   2.834  19.325  0.00  0.00    +0.000 C 
ATOM     21  O   UNL     1       1.150   2.758  18.158  0.00  0.00    +0.000 OA
ENDBRANCH  13  14
ENDBRANCH  12  13
ENDBRANCH   4  12
TORSDOF 5
ENDMDL
MODEL 3
REMARK VINA RESULT:      -7.0      2.143      6.055
REMARK  Name = 
REMARK  6 active torsions:
REMARK  status: ('A' for Active; 'I' for Inactive)
REMARK    1  A    between atoms: C_1  and  O_2
REMARK    2  A    between atoms: O_2  and  C_3
REMARK    3  A    between atoms: C_6  and  O_7
REMARK    4  A    between atoms: O_7  and  C_8
REMARK    5  A    between atoms: C_8  and  C_9
REMARK    6  A    between atoms: C_17  and  N_18
REMARK                            x       y       z     vdW  Elec       q    Type
REMARK                         _______ _______ _______ _____ _____    ______ ____
ROOT
ATOM      1  C   UNL     1       1.817   7.340  20.359  0.00  0.00    +0.000 A 
ATOM      2  C   UNL     1       2.215   7.703  19.079  0.00  0.00    +0.000 A 
ATOM      3  C   UNL     1       2.532   6.729  18.132  0.00  0.00    +0.000 A 
ATOM      4  C   UNL     1       2.501   5.356  18.444  0.00  0.00    +0.000 A 
ATOM      5  C   UNL     1       2.025   4.994  19.717  0.00  0.00    +0.000 A 
ATOM      6  C   UNL     1       1.701   5.989  20.673  0.00  0.00    +0.000 A 
ENDROOT
BRANCH   5   7
ATOM      7  N   UNL     1       1.835   3.590  20.122  0.00  0.00    +0.000 N 
ATOM      8  O   UNL     1       2.744   2.995  20.707  0.00  0.00    +0.000 OA
ATOM      9  O   UNL     1       0.753   3.056  19.815  0.00  0.00    +0.000 OA
ENDBRANCH   5   7
BRANCH   1  11
ATOM     10  C   UNL     1       0.202   8.743  21.397  0.00  0.00    +0.000 C 
ATOM     11  O   UNL     1       1.564   8.396  21.186  0.00  0.00    +0.000 OA
ENDBRANCH   1  11
BRANCH   4  12
ATOM     12  O   UNL     1       2.953   4.404  17.552  0.00  0.00    +0.000 OA
BRANCH  12  13
ATOM     13  C   UNL     1       4.313   4.573  17.175  0.00  0.00    +0.000 C 
BRANCH  13  14
ATOM     14  C   UNL     1       5.444   4.574  18.216  0.00  0.00    +0.000 C 
ATOM     15  O   UNL     1       5.575   3.705  19.079  0.00  0.00    +0.000 OA
ATOM     16  N   UNL     1       6.346   5.639  18.075  0.00  0.00    +0.000 N 
ATOM     17  C   UNL     1       7.515   5.726  18.920  0.00  0.00    +0.000 C 
ATOM     18  C   UNL     1       8.062   7.120  18.674  0.00  0.00    +0.000 C 
ATOM     19  C   UNL     1       7.658   7.421  17.244  0.00  0.00    +0.000 C 
ATOM     20  C   UNL     1       6.390   6.622  17.070  0.00  0.00    +0.000 C 
ATOM     21  O   UNL     1       5.586   6.812  16.172  0.00  0.00    +0.000 OA
ENDBRANCH  13  14
ENDBRANCH  12  13
ENDBRANCH   4  12
TORSDOF 5
ENDMDL
MODEL 4
REMARK VINA RESULT:      -7.0      0.798      1.918
REMARK  Name = 
REMARK  6 active torsions:
REMARK  status: ('A' for Active; 'I' for Inactive)
REMARK    1  A    between atoms: C_1  and  O_2
REMARK    2  A    between atoms: O_2  and  C_3
REMARK    3  A    between atoms: C_6  and  O_7
REMARK    4  A    between atoms: O_7  and  C_8
REMARK    5  A    between atoms: C_8  and  C_9
REMARK    6  A    between atoms: C_17  and  N_18
REMARK                            x       y       z     vdW  Elec       q    Type
REMARK                         _______ _______ _______ _____ _____    ______ ____
ROOT
ATOM      1  C   UNL     1       6.671   5.090  15.520  0.00  0.00    +0.000 A 
ATOM      2  C   UNL     1       5.685   5.999  15.159  0.00  0.00    +0.000 A 
ATOM      3  C   UNL     1       4.781   6.478  16.107  0.00  0.00    +0.000 A 
ATOM      4  C   UNL     1       4.806   6.035  17.443  0.00  0.00    +0.000 A 
ATOM      5  C   UNL     1       5.853   5.174  17.819  0.00  0.00    +0.000 A 
ATOM      6  C   UNL     1       6.770   4.694  16.851  0.00  0.00    +0.000 A 
ENDROOT
BRANCH   5   7
ATOM      7  N   UNL     1       6.056   4.734  19.210  0.00  0.00    +0.000 N 
ATOM      8  O   UNL     1       6.840   5.350  19.937  0.00  0.00    +0.000 OA
ATOM      9  O   UNL     1       5.435   3.719  19.576  0.00  0.00    +0.000 OA
ENDBRANCH   5   7
BRANCH   1  11
ATOM     10  C   UNL     1       6.816   4.274  13.292  0.00  0.00    +0.000 C 
ATOM     11  O   UNL     1       7.466   4.689  14.486  0.00  0.00    +0.000 OA
ENDBRANCH   1  11
BRANCH   4  12
ATOM     12  O   UNL     1       3.823   6.400  18.342  0.00  0.00    +0.000 OA
BRANCH  12  13
ATOM     13  C   UNL     1       2.536   5.888  18.023  0.00  0.00    +0.000 C 
BRANCH  13  14
ATOM     14  C   UNL     1       2.233   4.382  18.073  0.00  0.00    +0.000 C 
ATOM     15  O   UNL     1       2.201   3.662  17.074  0.00  0.00    +0.000 OA
ATOM     16  N   UNL     1       2.031   3.885  19.369  0.00  0.00    +0.000 N 
ATOM     17  C   UNL     1       1.828   2.471  19.588  0.00  0.00    +0.000 C 
ATOM     18  C   UNL     1       1.367   2.370  21.030  0.00  0.00    +0.000 C 
ATOM     19  C   UNL     1       2.037   3.549  21.709  0.00  0.00    +0.000 C 
ATOM     20  C   UNL     1       2.160   4.560  20.596  0.00  0.00    +0.000 C 
ATOM     21  O   UNL     1       2.372   5.748  20.779  0.00  0.00    +0.000 OA
ENDBRANCH  13  14
ENDBRANCH  12  13
ENDBRANCH   4  12
TORSDOF 5
ENDMDL
MODEL 5
REMARK VINA RESULT:      -6.9      1.907      2.660
REMARK  Name = 
REMARK  6 active torsions:
REMARK  status: ('A' for Active; 'I' for Inactive)
REMARK    1  A    between atoms: C_1  and  O_2
REMARK    2  A    between atoms: O_2  and  C_3
REMARK    3  A    between atoms: C_6  and  O_7
REMARK    4  A    between atoms: O_7  and  C_8
REMARK    5  A    between atoms: C_8  and  C_9
REMARK    6  A    between atoms: C_17  and  N_18
REMARK                            x       y       z     vdW  Elec       q    Type
REMARK                         _______ _______ _______ _____ _____    ______ ____
ROOT
ATOM      1  C   UNL     1       6.863   4.701  14.026  0.00  0.00    +0.000 A 
ATOM      2  C   UNL     1       5.711   3.963  14.264  0.00  0.00    +0.000 A 
ATOM      3  C   UNL     1       5.114   3.966  15.525  0.00  0.00    +0.000 A 
ATOM      4  C   UNL     1       5.670   4.678  16.605  0.00  0.00    +0.000 A 
ATOM      5  C   UNL     1       6.793   5.484  16.338  0.00  0.00    +0.000 A 
ATOM      6  C   UNL     1       7.392   5.477  15.054  0.00  0.00    +0.000 A 
ENDROOT
BRANCH   5   7
ATOM      7  N   UNL     1       7.395   6.364  17.354  0.00  0.00    +0.000 N 
ATOM      8  O   UNL     1       7.468   7.578  17.144  0.00  0.00    +0.000 OA
ATOM      9  O   UNL     1       7.839   5.818  18.381  0.00  0.00    +0.000 OA
ENDBRANCH   5   7
BRANCH   1  11
ATOM     10  C   UNL     1       6.783   3.570  11.937  0.00  0.00    +0.000 C 
ATOM     11  O   UNL     1       7.350   4.583  12.757  0.00  0.00    +0.000 OA
ENDBRANCH   1  11
BRANCH   4  12
ATOM     12  O   UNL     1       5.161   4.564  17.883  0.00  0.00    +0.000 OA
BRANCH  12  13
ATOM     13  C   UNL     1       4.510   3.325  18.131  0.00  0.00    +0.000 C 
BRANCH  13  14
ATOM     14  C   UNL     1       4.293   2.801  19.560  0.00  0.00    +0.000 C 
ATOM     15  O   UNL     1       5.168   2.238  20.219  0.00  0.00    +0.000 OA
ATOM     16  N   UNL     1       3.011   3.056  20.070  0.00  0.00    +0.000 N 
ATOM     17  C   UNL     1       2.683   2.707  21.434  0.00  0.00    +0.000 C 
ATOM     18  C   UNL     1       1.175   2.860  21.515  0.00  0.00    +0.000 C 
ATOM     19  C   UNL     1       0.865   3.948  20.505  0.00  0.00    +0.000 C 
ATOM     20  C   UNL     1       1.965   3.790  19.484  0.00  0.00    +0.000 C 
ATOM     21  O   UNL     1       1.922   4.268  18.362  0.00  0.00    +0.000 OA
ENDBRANCH  13  14
ENDBRANCH  12  13
ENDBRANCH   4  12
TORSDOF 5
ENDMDL
MODEL 6
REMARK VINA RESULT:      -6.9      2.448      4.104
REMARK  Name = 
REMARK  6 active torsions:
REMARK  status: ('A' for Active; 'I' for Inactive)
REMARK    1  A    between atoms: C_1  and  O_2
REMARK    2  A    between atoms: O_2  and  C_3
REMARK    3  A    between atoms: C_6  and  O_7
REMARK    4  A    between atoms: O_7  and  C_8
REMARK    5  A    between atoms: C_8  and  C_9
REMARK    6  A    between atoms: C_17  and  N_18
REMARK                            x       y       z     vdW  Elec       q    Type
REMARK                         _______ _______ _______ _____ _____    ______ ____
ROOT
ATOM      1  C   UNL     1       7.906   7.088  18.287  0.00  0.00    +0.000 A 
ATOM      2  C   UNL     1       7.803   5.970  19.103  0.00  0.00    +0.000 A 
ATOM      3  C   UNL     1       7.082   4.851  18.687  0.00  0.00    +0.000 A 
ATOM      4  C   UNL     1       6.406   4.824  17.452  0.00  0.00    +0.000 A 
ATOM      5  C   UNL     1       6.577   5.928  16.598  0.00  0.00    +0.000 A 
ATOM      6  C   UNL     1       7.313   7.061  17.027  0.00  0.00    +0.000 A 
ENDROOT
BRANCH   5   7
ATOM      7  N   UNL     1       6.017   5.970  15.236  0.00  0.00    +0.000 N 
ATOM      8  O   UNL     1       6.515   5.271  14.349  0.00  0.00    +0.000 OA
ATOM      9  O   UNL     1       5.070   6.754  15.039  0.00  0.00    +0.000 OA
ENDBRANCH   5   7
BRANCH   1  11
ATOM     10  C   UNL     1       8.490   9.391  18.219  0.00  0.00    +0.000 C 
ATOM     11  O   UNL     1       8.616   8.116  18.834  0.00  0.00    +0.000 OA
ENDBRANCH   1  11
BRANCH   4  12
ATOM     12  O   UNL     1       5.577   3.775  17.106  0.00  0.00    +0.000 OA
BRANCH  12  13
ATOM     13  C   UNL     1       4.209   3.998  17.420  0.00  0.00    +0.000 C 
BRANCH  13  14
ATOM     14  C   UNL     1       3.347   2.912  18.083  0.00  0.00    +0.000 C 
ATOM     15  O   UNL     1       3.219   1.774  17.630  0.00  0.00    +0.000 OA
ATOM     16  N   UNL     1       2.743   3.320  19.282  0.00  0.00    +0.000 N 
ATOM     17  C   UNL     1       1.976   2.382  20.071  0.00  0.00    +0.000 C 
ATOM     18  C   UNL     1       1.264   3.242  21.099  0.00  0.00    +0.000 C 
ATOM     19  C   UNL     1       2.202   4.414  21.306  0.00  0.00    +0.000 C 
ATOM     20  C   UNL     1       2.901   4.534  19.974  0.00  0.00    +0.000 C 
ATOM     21  O   UNL     1       3.516   5.525  19.617  0.00  0.00    +0.000 OA
ENDBRANCH  13  14
ENDBRANCH  12  13
ENDBRANCH   4  12
TORSDOF 5
ENDMDL
MODEL 7
REMARK VINA RESULT:      -6.9      2.570      4.082
REMARK  Name = 
REMARK  6 active torsions:
REMARK  status: ('A' for Active; 'I' for Inactive)
REMARK    1  A    between atoms: C_1  and  O_2
REMARK    2  A    between atoms: O_2  and  C_3
REMARK    3  A    between atoms: C_6  and  O_7
REMARK    4  A    between atoms: O_7  and  C_8
REMARK    5  A    between atoms: C_8  and  C_9
REMARK    6  A    between atoms: C_17  and  N_18
REMARK                            x       y       z     vdW  Elec       q    Type
REMARK                         _______ _______ _______ _____ _____    ______ ____
ROOT
ATOM      1  C   UNL     1       8.112   7.623  18.356  0.00  0.00    +0.000 A 
ATOM      2  C   UNL     1       8.160   6.573  19.262  0.00  0.00    +0.000 A 
ATOM      3  C   UNL     1       7.498   5.375  18.995  0.00  0.00    +0.000 A 
ATOM      4  C   UNL     1       6.732   5.197  17.828  0.00  0.00    +0.000 A 
ATOM      5  C   UNL     1       6.750   6.236  16.879  0.00  0.00    +0.000 A 
ATOM      6  C   UNL     1       7.427   7.449  17.156  0.00  0.00    +0.000 A 
ENDROOT
BRANCH   5   7
ATOM      7  N   UNL     1       6.084   6.124  15.569  0.00  0.00    +0.000 N 
ATOM      8  O   UNL     1       6.562   5.386  14.703  0.00  0.00    +0.000 OA
ATOM      9  O   UNL     1       5.069   6.822  15.392  0.00  0.00    +0.000 OA
ENDBRANCH   5   7
BRANCH   1  11
ATOM     10  C   UNL     1       8.600   9.920  17.987  0.00  0.00    +0.000 C 
ATOM     11  O   UNL     1       8.781   8.741  18.760  0.00  0.00    +0.000 OA
ENDBRANCH   1  11
BRANCH   4  12
ATOM     12  O   UNL     1       5.963   4.066  17.635  0.00  0.00    +0.000 OA
BRANCH  12  13
ATOM     13  C   UNL     1       4.696   4.119  18.277  0.00  0.00    +0.000 C 
BRANCH  13  14
ATOM     14  C   UNL     1       4.369   3.231  19.489  0.00  0.00    +0.000 C 
ATOM     15  O   UNL     1       5.186   2.479  20.020  0.00  0.00    +0.000 OA
ATOM     16  N   UNL     1       3.058   3.380  19.966  0.00  0.00    +0.000 N 
ATOM     17  C   UNL     1       2.628   2.682  21.156  0.00  0.00    +0.000 C 
ATOM     18  C   UNL     1       1.121   2.860  21.180  0.00  0.00    +0.000 C 
ATOM     19  C   UNL     1       0.902   4.193  20.492  0.00  0.00    +0.000 C 
ATOM     20  C   UNL     1       2.068   4.284  19.540  0.00  0.00    +0.000 C 
ATOM     21  O   UNL     1       2.113   5.053  18.593  0.00  0.00    +0.000 OA
ENDBRANCH  13  14
ENDBRANCH  12  13
ENDBRANCH   4  12
TORSDOF 5
ENDMDL
MODEL 8
REMARK VINA RESULT:      -6.7      2.260      3.853
REMARK  Name = 
REMARK  6 active torsions:
REMARK  status: ('A' for Active; 'I' for Inactive)
REMARK    1  A    between atoms: C_1  and  O_2
REMARK    2  A    between atoms: O_2  and  C_3
REMARK    3  A    between atoms: C_6  and  O_7
REMARK    4  A    between atoms: O_7  and  C_8
REMARK    5  A    between atoms: C_8  and  C_9
REMARK    6  A    between atoms: C_17  and  N_18
REMARK                            x       y       z     vdW  Elec       q    Type
REMARK                         _______ _______ _______ _____ _____    ______ ____
ROOT
ATOM      1  C   UNL     1       7.392   6.583  17.927  0.00  0.00    +0.000 A 
ATOM      2  C   UNL     1       6.372   6.124  18.749  0.00  0.00    +0.000 A 
ATOM      3  C   UNL     1       5.419   5.227  18.265  0.00  0.00    +0.000 A 
ATOM      4  C   UNL     1       5.430   4.787  16.928  0.00  0.00    +0.000 A 
ATOM      5  C   UNL     1       6.509   5.196  16.122  0.00  0.00    +0.000 A 
ATOM      6  C   UNL     1       7.474   6.105  16.622  0.00  0.00    +0.000 A 
ENDROOT
BRANCH   5   7
ATOM      7  N   UNL     1       6.696   4.712  14.743  0.00  0.00    +0.000 N 
ATOM      8  O   UNL     1       7.204   5.454  13.899  0.00  0.00    +0.000 OA
ATOM      9  O   UNL     1       6.291   3.562  14.490  0.00  0.00    +0.000 OA
ENDBRANCH   5   7
BRANCH   1  11
ATOM     10  C   UNL     1       8.193   8.817  18.062  0.00  0.00    +0.000 C 
ATOM     11  O   UNL     1       8.233   7.474  18.526  0.00  0.00    +0.000 OA
ENDBRANCH   1  11
BRANCH   4  12
ATOM     12  O   UNL     1       4.406   4.016  16.414  0.00  0.00    +0.000 OA
BRANCH  12  13
ATOM     13  C   UNL     1       3.813   3.143  17.366  0.00  0.00    +0.000 C 
BRANCH  13  14
ATOM     14  C   UNL     1       2.399   3.392  17.916  0.00  0.00    +0.000 C 
ATOM     15  O   UNL     1       1.441   3.706  17.210  0.00  0.00    +0.000 OA
ATOM     16  N   UNL     1       2.285   3.193  19.300  0.00  0.00    +0.000 N 
ATOM     17  C   UNL     1       0.999   3.298  19.951  0.00  0.00    +0.000 C 
ATOM     18  C   UNL     1       1.321   3.308  21.434  0.00  0.00    +0.000 C 
ATOM     19  C   UNL     1       2.592   2.488  21.536  0.00  0.00    +0.000 C 
ATOM     20  C   UNL     1       3.255   2.717  20.200  0.00  0.00    +0.000 C 
ATOM     21  O   UNL     1       4.432   2.482  19.978  0.00  0.00    +0.000 OA
ENDBRANCH  13  14
ENDBRANCH  12  13
ENDBRANCH   4  12
TORSDOF 5
ENDMDL
MODEL 9
REMARK VINA RESULT:      -6.7      2.343      3.692
REMARK  Name = 
REMARK  6 active torsions:
REMARK  status: ('A' for Active; 'I' for Inactive)
REMARK    1  A    between atoms: C_1  and  O_2
REMARK    2  A    between atoms: O_2  and  C_3
REMARK    3  A    between atoms: C_6  and  O_7
REMARK    4  A    between atoms: O_7  and  C_8
REMARK    5  A    between atoms: C_8  and  C_9
REMARK    6  A    between atoms: C_17  and  N_18
REMARK                            x       y       z     vdW  Elec       q    Type
REMARK                         _______ _______ _______ _____ _____    ______ ____
ROOT
ATOM      1  C   UNL     1       7.947   7.136  18.296  0.00  0.00    +0.000 A 
ATOM      2  C   UNL     1       7.752   6.065  19.157  0.00  0.00    +0.000 A 
ATOM      3  C   UNL     1       6.948   4.989  18.779  0.00  0.00    +0.000 A 
ATOM      4  C   UNL     1       6.279   4.964  17.541  0.00  0.00    +0.000 A 
ATOM      5  C   UNL     1       6.542   6.016  16.643  0.00  0.00    +0.000 A 
ATOM      6  C   UNL     1       7.362   7.104  17.033  0.00  0.00    +0.000 A 
ENDROOT
BRANCH   5   7
ATOM      7  N   UNL     1       5.995   6.045  15.276  0.00  0.00    +0.000 N 
ATOM      8  O   UNL     1       6.470   5.302  14.412  0.00  0.00    +0.000 OA
ATOM      9  O   UNL     1       5.082   6.861  15.051  0.00  0.00    +0.000 OA
ENDBRANCH   5   7
BRANCH   1  11
ATOM     10  C   UNL     1       8.524   9.442  18.310  0.00  0.00    +0.000 C 
ATOM     11  O   UNL     1       8.733   8.127  18.807  0.00  0.00    +0.000 OA
ENDBRANCH   1  11
BRANCH   4  12
ATOM     12  O   UNL     1       5.373   3.970  17.230  0.00  0.00    +0.000 OA
BRANCH  12  13
ATOM     13  C   UNL     1       4.021   4.410  17.216  0.00  0.00    +0.000 C 
BRANCH  13  14
ATOM     14  C   UNL     1       3.325   4.915  18.490  0.00  0.00    +0.000 C 
ATOM     15  O   UNL     1       3.585   5.992  19.026  0.00  0.00    +0.000 OA
ATOM     16  N   UNL     1       2.330   4.052  18.974  0.00  0.00    +0.000 N 
ATOM     17  C   UNL     1       1.522   4.430  20.111  0.00  0.00    +0.000 C 
ATOM     18  C   UNL     1       0.791   3.158  20.499  0.00  0.00    +0.000 C 
ATOM     19  C   UNL     1       0.644   2.409  19.190  0.00  0.00    +0.000 C 
ATOM     20  C   UNL     1       1.846   2.863  18.399  0.00  0.00    +0.000 C 
ATOM     21  O   UNL     1       2.268   2.282  17.412  0.00  0.00    +0.000 OA
ENDBRANCH  13  14
ENDBRANCH  12  13
ENDBRANCH   4  12
TORSDOF 5
ENDMDL
