MODEL 1
REMARK VINA RESULT:      -7.7      0.000      0.000
REMARK  Name = 
REMARK  1 active torsions:
REMARK  status: ('A' for Active; 'I' for Inactive)
REMARK    1  A    between atoms: C_8  and  N_9
REMARK                            x       y       z     vdW  Elec       q    Type
REMARK                         _______ _______ _______ _____ _____    ______ ____
ROOT
ATOM      1  N   UNL     1       2.686   7.114  17.858  0.00  0.00    +0.000 N 
ATOM      2  C   UNL     1       1.977   8.029  18.557  0.00  0.00    +0.000 A 
ATOM      3  N   UNL     1       2.030   8.320  19.834  0.00  0.00    +0.000 NA
ATOM      4  C   UNL     1       1.152   9.357  20.021  0.00  0.00    +0.000 A 
ATOM      5  C   UNL     1       0.842  10.067  21.188  0.00  0.00    +0.000 A 
ATOM      6  C   UNL     1      -0.112  11.088  21.119  0.00  0.00    +0.000 A 
ATOM      7  C   UNL     1      -0.744  11.394  19.911  0.00  0.00    +0.000 A 
ATOM      8  C   UNL     1      -0.438  10.704  18.730  0.00  0.00    +0.000 A 
ATOM      9  C   UNL     1       0.521   9.693  18.829  0.00  0.00    +0.000 A 
ATOM     10  N   UNL     1       1.077   8.838  17.911  0.00  0.00    +0.000 N 
ATOM     11  H   UNL     1       2.234   6.697  17.050  0.00  0.00    +0.000 HD
ATOM     12  H   UNL     1       0.898   8.831  16.919  0.00  0.00    +0.000 HD
ENDROOT
BRANCH   1  20
ATOM     13 CL   UNL     1       1.162   5.609  20.559  0.00  0.00    +0.000 Cl
ATOM     14  C   UNL     1       1.770   4.474  19.404  0.00  0.00    +0.000 A 
ATOM     15  C   UNL     1       1.140   3.224  19.353  0.00  0.00    +0.000 A 
ATOM     16  C   UNL     1       1.560   2.263  18.439  0.00  0.00    +0.000 A 
ATOM     17  C   UNL     1       2.610   2.551  17.574  0.00  0.00    +0.000 A 
ATOM     18  C   UNL     1       3.252   3.802  17.607  0.00  0.00    +0.000 A 
ATOM     19  C   UNL     1       2.842   4.784  18.542  0.00  0.00    +0.000 A 
ATOM     20  C   UNL     1       3.528   6.151  18.585  0.00  0.00    +0.000 C 
ATOM     21  C   UNL     1       4.947   6.052  17.987  0.00  0.00    +0.000 C 
ATOM     22  C   UNL     1       4.901   5.448  16.591  0.00  0.00    +0.000 C 
ATOM     23  C   UNL     1       4.423   4.006  16.675  0.00  0.00    +0.000 C 
ENDBRANCH   1  20
TORSDOF 1
ENDMDL
MODEL 2
REMARK VINA RESULT:      -7.7      0.995      1.111
REMARK  Name = 
REMARK  1 active torsions:
REMARK  status: ('A' for Active; 'I' for Inactive)
REMARK    1  A    between atoms: C_8  and  N_9
REMARK                            x       y       z     vdW  Elec       q    Type
REMARK                         _______ _______ _______ _____ _____    ______ ____
ROOT
ATOM      1  N   UNL     1       2.918   6.858  18.845  0.00  0.00    +0.000 N 
ATOM      2  C   UNL     1       2.138   7.666  19.598  0.00  0.00    +0.000 A 
ATOM      3  N   UNL     1       2.002   7.708  20.901  0.00  0.00    +0.000 NA
ATOM      4  C   UNL     1       1.138   8.742  21.156  0.00  0.00    +0.000 A 
ATOM      5  C   UNL     1       0.674   9.237  22.383  0.00  0.00    +0.000 A 
ATOM      6  C   UNL     1      -0.226  10.309  22.375  0.00  0.00    +0.000 A 
ATOM      7  C   UNL     1      -0.654  10.874  21.171  0.00  0.00    +0.000 A 
ATOM      8  C   UNL     1      -0.190  10.401  19.936  0.00  0.00    +0.000 A 
ATOM      9  C   UNL     1       0.710   9.334  19.974  0.00  0.00    +0.000 A 
ATOM     10  N   UNL     1       1.375   8.635  18.998  0.00  0.00    +0.000 N 
ATOM     11  H   UNL     1       2.584   6.628  17.915  0.00  0.00    +0.000 HD
ATOM     12  H   UNL     1       1.351   8.825  18.009  0.00  0.00    +0.000 HD
ENDROOT
BRANCH   1  20
ATOM     13 CL   UNL     1       0.849   4.652  20.500  0.00  0.00    +0.000 Cl
ATOM     14  C   UNL     1       1.829   3.890  19.295  0.00  0.00    +0.000 A 
ATOM     15  C   UNL     1       1.333   2.707  18.732  0.00  0.00    +0.000 A 
ATOM     16  C   UNL     1       2.053   2.044  17.744  0.00  0.00    +0.000 A 
ATOM     17  C   UNL     1       3.269   2.563  17.316  0.00  0.00    +0.000 A 
ATOM     18  C   UNL     1       3.782   3.752  17.866  0.00  0.00    +0.000 A 
ATOM     19  C   UNL     1       3.064   4.430  18.882  0.00  0.00    +0.000 A 
ATOM     20  C   UNL     1       3.608   5.726  19.485  0.00  0.00    +0.000 C 
ATOM     21  C   UNL     1       5.137   5.797  19.300  0.00  0.00    +0.000 C 
ATOM     22  C   UNL     1       5.512   5.614  17.836  0.00  0.00    +0.000 C 
ATOM     23  C   UNL     1       5.140   4.210  17.388  0.00  0.00    +0.000 C 
ENDBRANCH   1  20
TORSDOF 1
ENDMDL
MODEL 3
REMARK VINA RESULT:      -7.4      1.954      6.963
REMARK  Name = 
REMARK  1 active torsions:
REMARK  status: ('A' for Active; 'I' for Inactive)
REMARK    1  A    between atoms: C_8  and  N_9
REMARK                            x       y       z     vdW  Elec       q    Type
REMARK                         _______ _______ _______ _____ _____    ______ ____
ROOT
ATOM      1  N   UNL     1       0.912   7.230  21.042  0.00  0.00    +0.000 N 
ATOM      2  C   UNL     1       1.643   6.210  20.538  0.00  0.00    +0.000 A 
ATOM      3  N   UNL     1       2.898   6.197  20.162  0.00  0.00    +0.000 NA
ATOM      4  C   UNL     1       3.164   4.905  19.785  0.00  0.00    +0.000 A 
ATOM      5  C   UNL     1       4.360   4.335  19.327  0.00  0.00    +0.000 A 
ATOM      6  C   UNL     1       4.369   2.977  18.989  0.00  0.00    +0.000 A 
ATOM      7  C   UNL     1       3.211   2.204  19.105  0.00  0.00    +0.000 A 
ATOM      8  C   UNL     1       2.010   2.753  19.574  0.00  0.00    +0.000 A 
ATOM      9  C   UNL     1       2.031   4.109  19.907  0.00  0.00    +0.000 A 
ATOM     10  N   UNL     1       1.080   4.966  20.403  0.00  0.00    +0.000 N 
ATOM     11  H   UNL     1      -0.084   7.227  20.846  0.00  0.00    +0.000 HD
ATOM     12  H   UNL     1       0.141   4.722  20.670  0.00  0.00    +0.000 HD
ENDROOT
BRANCH   1  20
ATOM     13 CL   UNL     1       1.798   8.414  17.928  0.00  0.00    +0.000 Cl
ATOM     14  C   UNL     1       0.682   9.445  18.754  0.00  0.00    +0.000 A 
ATOM     15  C   UNL     1      -0.142  10.252  17.958  0.00  0.00    +0.000 A 
ATOM     16  C   UNL     1      -1.077  11.096  18.546  0.00  0.00    +0.000 A 
ATOM     17  C   UNL     1      -1.193  11.135  19.931  0.00  0.00    +0.000 A 
ATOM     18  C   UNL     1      -0.379  10.329  20.747  0.00  0.00    +0.000 A 
ATOM     19  C   UNL     1       0.588   9.475  20.160  0.00  0.00    +0.000 A 
ATOM     20  C   UNL     1       1.477   8.589  21.036  0.00  0.00    +0.000 C 
ATOM     21  C   UNL     1       1.582   9.182  22.456  0.00  0.00    +0.000 C 
ATOM     22  C   UNL     1       0.198   9.413  23.047  0.00  0.00    +0.000 C 
ATOM     23  C   UNL     1      -0.527  10.481  22.242  0.00  0.00    +0.000 C 
ENDBRANCH   1  20
TORSDOF 1
ENDMDL
MODEL 4
REMARK VINA RESULT:      -6.8      1.752      6.839
REMARK  Name = 
REMARK  1 active torsions:
REMARK  status: ('A' for Active; 'I' for Inactive)
REMARK    1  A    between atoms: C_8  and  N_9
REMARK                            x       y       z     vdW  Elec       q    Type
REMARK                         _______ _______ _______ _____ _____    ______ ____
ROOT
ATOM      1  N   UNL     1       2.102   8.138  19.748  0.00  0.00    +0.000 N 
ATOM      2  C   UNL     1       2.345   6.871  19.342  0.00  0.00    +0.000 A 
ATOM      3  N   UNL     1       1.793   6.194  18.366  0.00  0.00    +0.000 NA
ATOM      4  C   UNL     1       2.436   4.982  18.338  0.00  0.00    +0.000 A 
ATOM      5  C   UNL     1       2.256   3.895  17.473  0.00  0.00    +0.000 A 
ATOM      6  C   UNL     1       3.040   2.750  17.663  0.00  0.00    +0.000 A 
ATOM      7  C   UNL     1       3.982   2.693  18.693  0.00  0.00    +0.000 A 
ATOM      8  C   UNL     1       4.185   3.775  19.559  0.00  0.00    +0.000 A 
ATOM      9  C   UNL     1       3.392   4.905  19.344  0.00  0.00    +0.000 A 
ATOM     10  N   UNL     1       3.321   6.129  19.959  0.00  0.00    +0.000 N 
ATOM     11  H   UNL     1       2.241   8.343  20.733  0.00  0.00    +0.000 HD
ATOM     12  H   UNL     1       3.912   6.455  20.706  0.00  0.00    +0.000 HD
ENDROOT
BRANCH   1  20
ATOM     13 CL   UNL     1      -0.705   8.180  21.749  0.00  0.00    +0.000 Cl
ATOM     14  C   UNL     1      -0.159   9.762  21.313  0.00  0.00    +0.000 A 
ATOM     15  C   UNL     1      -0.482  10.806  22.189  0.00  0.00    +0.000 A 
ATOM     16  C   UNL     1      -0.064  12.105  21.919  0.00  0.00    +0.000 A 
ATOM     17  C   UNL     1       0.679  12.362  20.773  0.00  0.00    +0.000 A 
ATOM     18  C   UNL     1       1.018  11.326  19.883  0.00  0.00    +0.000 A 
ATOM     19  C   UNL     1       0.587  10.001  20.141  0.00  0.00    +0.000 A 
ATOM     20  C   UNL     1       0.953   8.865  19.185  0.00  0.00    +0.000 C 
ATOM     21  C   UNL     1       1.253   9.428  17.781  0.00  0.00    +0.000 C 
ATOM     22  C   UNL     1       2.315  10.515  17.853  0.00  0.00    +0.000 C 
ATOM     23  C   UNL     1       1.774  11.705  18.631  0.00  0.00    +0.000 C 
ENDBRANCH   1  20
TORSDOF 1
ENDMDL
MODEL 5
REMARK VINA RESULT:      -6.8      1.891      3.296
REMARK  Name = 
REMARK  1 active torsions:
REMARK  status: ('A' for Active; 'I' for Inactive)
REMARK    1  A    between atoms: C_8  and  N_9
REMARK                            x       y       z     vdW  Elec       q    Type
REMARK                         _______ _______ _______ _____ _____    ______ ____
ROOT
ATOM      1  N   UNL     1       1.955   6.628  20.882  0.00  0.00    +0.000 N 
ATOM      2  C   UNL     1       1.363   7.837  20.761  0.00  0.00    +0.000 A 
ATOM      3  N   UNL     1       0.478   8.243  19.883  0.00  0.00    +0.000 NA
ATOM      4  C   UNL     1       0.160   9.530  20.236  0.00  0.00    +0.000 A 
ATOM      5  C   UNL     1      -0.753  10.417  19.652  0.00  0.00    +0.000 A 
ATOM      6  C   UNL     1      -0.887  11.699  20.200  0.00  0.00    +0.000 A 
ATOM      7  C   UNL     1      -0.126  12.086  21.306  0.00  0.00    +0.000 A 
ATOM      8  C   UNL     1       0.782  11.207  21.912  0.00  0.00    +0.000 A 
ATOM      9  C   UNL     1       0.892   9.934  21.347  0.00  0.00    +0.000 A 
ATOM     10  N   UNL     1       1.640   8.830  21.667  0.00  0.00    +0.000 N 
ATOM     11  H   UNL     1       2.894   6.609  21.267  0.00  0.00    +0.000 HD
ATOM     12  H   UNL     1       2.255   8.737  22.460  0.00  0.00    +0.000 HD
ENDROOT
BRANCH   1  20
ATOM     13 CL   UNL     1       3.150   7.569  17.788  0.00  0.00    +0.000 Cl
ATOM     14  C   UNL     1       3.824   6.078  18.351  0.00  0.00    +0.000 A 
ATOM     15  C   UNL     1       5.088   5.730  17.860  0.00  0.00    +0.000 A 
ATOM     16  C   UNL     1       5.704   4.555  18.277  0.00  0.00    +0.000 A 
ATOM     17  C   UNL     1       5.058   3.727  19.188  0.00  0.00    +0.000 A 
ATOM     18  C   UNL     1       3.790   4.062  19.697  0.00  0.00    +0.000 A 
ATOM     19  C   UNL     1       3.146   5.249  19.269  0.00  0.00    +0.000 A 
ATOM     20  C   UNL     1       1.769   5.628  19.818  0.00  0.00    +0.000 C 
ATOM     21  C   UNL     1       1.035   4.370  20.324  0.00  0.00    +0.000 C 
ATOM     22  C   UNL     1       1.893   3.613  21.328  0.00  0.00    +0.000 C 
ATOM     23  C   UNL     1       3.134   3.075  20.633  0.00  0.00    +0.000 C 
ENDBRANCH   1  20
TORSDOF 1
ENDMDL
MODEL 6
REMARK VINA RESULT:      -6.8      2.354      7.574
REMARK  Name = 
REMARK  1 active torsions:
REMARK  status: ('A' for Active; 'I' for Inactive)
REMARK    1  A    between atoms: C_8  and  N_9
REMARK                            x       y       z     vdW  Elec       q    Type
REMARK                         _______ _______ _______ _____ _____    ______ ____
ROOT
ATOM      1  N   UNL     1       0.315  10.374  20.029  0.00  0.00    +0.000 N 
ATOM      2  C   UNL     1       1.110   9.415  19.503  0.00  0.00    +0.000 A 
ATOM      3  N   UNL     1       1.813   9.436  18.397  0.00  0.00    +0.000 NA
ATOM      4  C   UNL     1       2.485   8.241  18.356  0.00  0.00    +0.000 A 
ATOM      5  C   UNL     1       3.395   7.760  17.405  0.00  0.00    +0.000 A 
ATOM      6  C   UNL     1       3.941   6.483  17.586  0.00  0.00    +0.000 A 
ATOM      7  C   UNL     1       3.587   5.705  18.691  0.00  0.00    +0.000 A 
ATOM      8  C   UNL     1       2.689   6.175  19.659  0.00  0.00    +0.000 A 
ATOM      9  C   UNL     1       2.163   7.453  19.455  0.00  0.00    +0.000 A 
ATOM     10  N   UNL     1       1.295   8.234  20.175  0.00  0.00    +0.000 N 
ATOM     11  H   UNL     1      -0.478  10.065  20.584  0.00  0.00    +0.000 HD
ATOM     12  H   UNL     1       0.894   8.007  21.071  0.00  0.00    +0.000 HD
ENDROOT
BRANCH   1  20
ATOM     13 CL   UNL     1      -1.548   9.764  17.193  0.00  0.00    +0.000 Cl
ATOM     14  C   UNL     1      -2.278  10.924  18.248  0.00  0.00    +0.000 A 
ATOM     15  C   UNL     1      -3.672  11.049  18.184  0.00  0.00    +0.000 A 
ATOM     16  C   UNL     1      -4.335  11.948  19.011  0.00  0.00    +0.000 A 
ATOM     17  C   UNL     1      -3.607  12.722  19.907  0.00  0.00    +0.000 A 
ATOM     18  C   UNL     1      -2.208  12.608  19.991  0.00  0.00    +0.000 A 
ATOM     19  C   UNL     1      -1.519  11.706  19.143  0.00  0.00    +0.000 A 
ATOM     20  C   UNL     1       0.003  11.568  19.227  0.00  0.00    +0.000 C 
ATOM     21  C   UNL     1       0.620  12.848  19.825  0.00  0.00    +0.000 C 
ATOM     22  C   UNL     1      -0.026  13.184  21.162  0.00  0.00    +0.000 C 
ATOM     23  C   UNL     1      -1.490  13.533  20.946  0.00  0.00    +0.000 C 
ENDBRANCH   1  20
TORSDOF 1
ENDMDL
MODEL 7
REMARK VINA RESULT:      -6.7      1.235      1.388
REMARK  Name = 
REMARK  1 active torsions:
REMARK  status: ('A' for Active; 'I' for Inactive)
REMARK    1  A    between atoms: C_8  and  N_9
REMARK                            x       y       z     vdW  Elec       q    Type
REMARK                         _______ _______ _______ _____ _____    ______ ____
ROOT
ATOM      1  N   UNL     1       2.069   7.948  17.840  0.00  0.00    +0.000 N 
ATOM      2  C   UNL     1       1.442   9.029  18.356  0.00  0.00    +0.000 A 
ATOM      3  N   UNL     1       1.740   9.730  19.422  0.00  0.00    +0.000 NA
ATOM      4  C   UNL     1       0.827  10.753  19.468  0.00  0.00    +0.000 A 
ATOM      5  C   UNL     1       0.710  11.806  20.385  0.00  0.00    +0.000 A 
ATOM      6  C   UNL     1      -0.331  12.727  20.219  0.00  0.00    +0.000 A 
ATOM      7  C   UNL     1      -1.234  12.600  19.160  0.00  0.00    +0.000 A 
ATOM      8  C   UNL     1      -1.124  11.562  18.225  0.00  0.00    +0.000 A 
ATOM      9  C   UNL     1      -0.074  10.661  18.414  0.00  0.00    +0.000 A 
ATOM     10  N   UNL     1       0.351   9.560  17.714  0.00  0.00    +0.000 N 
ATOM     11  H   UNL     1       1.495   7.277  17.338  0.00  0.00    +0.000 HD
ATOM     12  H   UNL     1      -0.036   9.219  16.849  0.00  0.00    +0.000 HD
ENDROOT
BRANCH   1  20
ATOM     13 CL   UNL     1       1.175   7.036  21.042  0.00  0.00    +0.000 Cl
ATOM     14  C   UNL     1       1.773   5.713  20.101  0.00  0.00    +0.000 A 
ATOM     15  C   UNL     1       1.331   4.432  20.457  0.00  0.00    +0.000 A 
ATOM     16  C   UNL     1       1.753   3.319  19.739  0.00  0.00    +0.000 A 
ATOM     17  C   UNL     1       2.617   3.483  18.663  0.00  0.00    +0.000 A 
ATOM     18  C   UNL     1       3.069   4.761  18.286  0.00  0.00    +0.000 A 
ATOM     19  C   UNL     1       2.656   5.902  19.018  0.00  0.00    +0.000 A 
ATOM     20  C   UNL     1       3.136   7.298  18.617  0.00  0.00    +0.000 C 
ATOM     21  C   UNL     1       4.455   7.199  17.824  0.00  0.00    +0.000 C 
ATOM     22  C   UNL     1       4.302   6.255  16.641  0.00  0.00    +0.000 C 
ATOM     23  C   UNL     1       4.055   4.842  17.145  0.00  0.00    +0.000 C 
ENDBRANCH   1  20
TORSDOF 1
ENDMDL
MODEL 8
REMARK VINA RESULT:      -6.7      1.675      3.297
REMARK  Name = 
REMARK  1 active torsions:
REMARK  status: ('A' for Active; 'I' for Inactive)
REMARK    1  A    between atoms: C_8  and  N_9
REMARK                            x       y       z     vdW  Elec       q    Type
REMARK                         _______ _______ _______ _____ _____    ______ ____
ROOT
ATOM      1  N   UNL     1       2.304   5.849  19.488  0.00  0.00    +0.000 N 
ATOM      2  C   UNL     1       1.758   7.015  19.903  0.00  0.00    +0.000 A 
ATOM      3  N   UNL     1       1.079   7.902  19.218  0.00  0.00    +0.000 NA
ATOM      4  C   UNL     1       0.704   8.866  20.119  0.00  0.00    +0.000 A 
ATOM      5  C   UNL     1      -0.061  10.024  19.923  0.00  0.00    +0.000 A 
ATOM      6  C   UNL     1      -0.297  10.864  21.018  0.00  0.00    +0.000 A 
ATOM      7  C   UNL     1       0.219  10.557  22.279  0.00  0.00    +0.000 A 
ATOM      8  C   UNL     1       0.974   9.397  22.497  0.00  0.00    +0.000 A 
ATOM      9  C   UNL     1       1.191   8.575  21.388  0.00  0.00    +0.000 A 
ATOM     10  N   UNL     1       1.847   7.382  21.222  0.00  0.00    +0.000 N 
ATOM     11  H   UNL     1       3.142   5.534  19.967  0.00  0.00    +0.000 HD
ATOM     12  H   UNL     1       2.283   6.836  21.948  0.00  0.00    +0.000 HD
ENDROOT
BRANCH   1  20
ATOM     13 CL   UNL     1       3.728   8.299  17.524  0.00  0.00    +0.000 Cl
ATOM     14  C   UNL     1       4.483   6.753  17.336  0.00  0.00    +0.000 A 
ATOM     15  C   UNL     1       5.822   6.749  16.925  0.00  0.00    +0.000 A 
ATOM     16  C   UNL     1       6.505   5.548  16.768  0.00  0.00    +0.000 A 
ATOM     17  C   UNL     1       5.850   4.348  17.022  0.00  0.00    +0.000 A 
ATOM     18  C   UNL     1       4.507   4.331  17.439  0.00  0.00    +0.000 A 
ATOM     19  C   UNL     1       3.797   5.548  17.590  0.00  0.00    +0.000 A 
ATOM     20  C   UNL     1       2.337   5.545  18.048  0.00  0.00    +0.000 C 
ATOM     21  C   UNL     1       1.683   4.186  17.726  0.00  0.00    +0.000 C 
ATOM     22  C   UNL     1       2.498   3.043  18.314  0.00  0.00    +0.000 C 
ATOM     23  C   UNL     1       3.855   2.982  17.631  0.00  0.00    +0.000 C 
ENDBRANCH   1  20
TORSDOF 1
ENDMDL
MODEL 9
REMARK VINA RESULT:      -6.7      3.060      6.755
REMARK  Name = 
REMARK  1 active torsions:
REMARK  status: ('A' for Active; 'I' for Inactive)
REMARK    1  A    between atoms: C_8  and  N_9
REMARK                            x       y       z     vdW  Elec       q    Type
REMARK                         _______ _______ _______ _____ _____    ______ ____
ROOT
ATOM      1  N   UNL     1       4.276   5.464  17.689  0.00  0.00    +0.000 N 
ATOM      2  C   UNL     1       4.873   5.112  16.528  0.00  0.00    +0.000 A 
ATOM      3  N   UNL     1       4.340   4.609  15.441  0.00  0.00    +0.000 NA
ATOM      4  C   UNL     1       5.366   4.492  14.539  0.00  0.00    +0.000 A 
ATOM      5  C   UNL     1       5.344   4.037  13.214  0.00  0.00    +0.000 A 
ATOM      6  C   UNL     1       6.546   4.000  12.497  0.00  0.00    +0.000 A 
ATOM      7  C   UNL     1       7.743   4.409  13.089  0.00  0.00    +0.000 A 
ATOM      8  C   UNL     1       7.783   4.880  14.408  0.00  0.00    +0.000 A 
ATOM      9  C   UNL     1       6.569   4.908  15.098  0.00  0.00    +0.000 A 
ATOM     10  N   UNL     1       6.220   5.311  16.362  0.00  0.00    +0.000 N 
ATOM     11  H   UNL     1       4.830   5.386  18.536  0.00  0.00    +0.000 HD
ATOM     12  H   UNL     1       6.833   5.729  17.044  0.00  0.00    +0.000 HD
ENDROOT
BRANCH   1  20
ATOM     13 CL   UNL     1       3.649   2.075  17.777  0.00  0.00    +0.000 Cl
ATOM     14  C   UNL     1       3.116   2.901  19.201  0.00  0.00    +0.000 A 
ATOM     15  C   UNL     1       3.042   2.147  20.379  0.00  0.00    +0.000 A 
ATOM     16  C   UNL     1       2.639   2.743  21.570  0.00  0.00    +0.000 A 
ATOM     17  C   UNL     1       2.310   4.094  21.584  0.00  0.00    +0.000 A 
ATOM     18  C   UNL     1       2.382   4.868  20.412  0.00  0.00    +0.000 A 
ATOM     19  C   UNL     1       2.779   4.270  19.191  0.00  0.00    +0.000 A 
ATOM     20  C   UNL     1       2.866   5.102  17.910  0.00  0.00    +0.000 C 
ATOM     21  C   UNL     1       1.957   6.343  18.020  0.00  0.00    +0.000 C 
ATOM     22  C   UNL     1       2.284   7.140  19.275  0.00  0.00    +0.000 C 
ATOM     23  C   UNL     1       1.946   6.312  20.505  0.00  0.00    +0.000 C 
ENDBRANCH   1  20
TORSDOF 1
ENDMDL
