MODEL 1
REMARK VINA RESULT:      -6.8      0.000      0.000
REMARK  Name = 
REMARK  2 active torsions:
REMARK  status: ('A' for Active; 'I' for Inactive)
REMARK    1  A    between atoms: C_1  and  C_2
REMARK    2  A    between atoms: N_11  and  C_12
REMARK                            x       y       z     vdW  Elec       q    Type
REMARK                         _______ _______ _______ _____ _____    ______ ____
ROOT
ATOM      1  C   UNL     1       4.056   7.099  17.321  0.00  0.00    +0.000 C 
ATOM      2  C   UNL     1       3.637   5.783  17.952  0.00  0.00    +0.000 A 
ATOM      3  N   UNL     1       2.730   5.856  18.881  0.00  0.00    +0.000 NA
ATOM      4  C   UNL     1       2.315   4.671  19.383  0.00  0.00    +0.000 A 
ATOM      5  S   UNL     1       1.117   4.576  20.595  0.00  0.00    +0.000 S 
ATOM      6  C   UNL     1       1.211   2.866  20.643  0.00  0.00    +0.000 A 
ATOM      7  C   UNL     1       2.130   2.377  19.742  0.00  0.00    +0.000 A 
ATOM      8  C   UNL     1       2.754   3.428  19.005  0.00  0.00    +0.000 A 
ATOM      9  C   UNL     1       3.761   3.338  17.967  0.00  0.00    +0.000 A 
ATOM     10  O   UNL     1       4.188   2.248  17.600  0.00  0.00    +0.000 OA
ATOM     11  N   UNL     1       4.188   4.588  17.472  0.00  0.00    +0.000 N 
ENDROOT
BRANCH  11  12
ATOM     12  C   UNL     1       5.175   4.572  16.440  0.00  0.00    +0.000 A 
ATOM     13  C   UNL     1       6.487   4.978  16.726  0.00  0.00    +0.000 A 
ATOM     14  C   UNL     1       7.469   4.956  15.734  0.00  0.00    +0.000 A 
ATOM     15  C   UNL     1       7.144   4.542  14.443  0.00  0.00    +0.000 A 
ATOM     16  C   UNL     1       5.834   4.165  14.148  0.00  0.00    +0.000 A 
ATOM     17 CL   UNL     1       5.429   3.672  12.551  0.00  0.00    +0.000 Cl
ATOM     18  C   UNL     1       4.848   4.184  15.136  0.00  0.00    +0.000 A 
ENDBRANCH  11  12
TORSDOF 1
ENDMDL
MODEL 2
REMARK VINA RESULT:      -6.6      3.386      4.908
REMARK  Name = 
REMARK  2 active torsions:
REMARK  status: ('A' for Active; 'I' for Inactive)
REMARK    1  A    between atoms: C_1  and  C_2
REMARK    2  A    between atoms: N_11  and  C_12
REMARK                            x       y       z     vdW  Elec       q    Type
REMARK                         _______ _______ _______ _____ _____    ______ ____
ROOT
ATOM      1  C   UNL     1       2.188   5.228  20.989  0.00  0.00    +0.000 C 
ATOM      2  C   UNL     1       1.951   6.539  20.262  0.00  0.00    +0.000 A 
ATOM      3  N   UNL     1       1.319   7.459  20.930  0.00  0.00    +0.000 NA
ATOM      4  C   UNL     1       1.178   8.645  20.296  0.00  0.00    +0.000 A 
ATOM      5  S   UNL     1       0.392   9.971  21.030  0.00  0.00    +0.000 S 
ATOM      6  C   UNL     1       0.630  10.957  19.650  0.00  0.00    +0.000 A 
ATOM      7  C   UNL     1       1.309  10.291  18.653  0.00  0.00    +0.000 A 
ATOM      8  C   UNL     1       1.636   8.957  19.041  0.00  0.00    +0.000 A 
ATOM      9  C   UNL     1       2.346   7.940  18.293  0.00  0.00    +0.000 A 
ATOM     10  O   UNL     1       2.769   8.171  17.165  0.00  0.00    +0.000 OA
ATOM     11  N   UNL     1       2.465   6.708  18.970  0.00  0.00    +0.000 N 
ENDROOT
BRANCH  11  12
ATOM     12  C   UNL     1       3.161   5.662  18.292  0.00  0.00    +0.000 A 
ATOM     13  C   UNL     1       2.438   4.623  17.687  0.00  0.00    +0.000 A 
ATOM     14  C   UNL     1       3.101   3.600  17.007  0.00  0.00    +0.000 A 
ATOM     15  C   UNL     1       4.493   3.597  16.940  0.00  0.00    +0.000 A 
ATOM     16  C   UNL     1       5.216   4.612  17.564  0.00  0.00    +0.000 A 
ATOM     17 CL   UNL     1       6.935   4.600  17.496  0.00  0.00    +0.000 Cl
ATOM     18  C   UNL     1       4.560   5.640  18.244  0.00  0.00    +0.000 A 
ENDBRANCH  11  12
TORSDOF 1
ENDMDL
MODEL 3
REMARK VINA RESULT:      -6.4      5.633      7.694
REMARK  Name = 
REMARK  2 active torsions:
REMARK  status: ('A' for Active; 'I' for Inactive)
REMARK    1  A    between atoms: C_1  and  C_2
REMARK    2  A    between atoms: N_11  and  C_12
REMARK                            x       y       z     vdW  Elec       q    Type
REMARK                         _______ _______ _______ _____ _____    ______ ____
ROOT
ATOM      1  C   UNL     1       0.107   8.803  21.638  0.00  0.00    +0.000 C 
ATOM      2  C   UNL     1       1.052   8.372  20.531  0.00  0.00    +0.000 A 
ATOM      3  N   UNL     1       1.673   7.244  20.715  0.00  0.00    +0.000 NA
ATOM      4  C   UNL     1       2.457   6.839  19.689  0.00  0.00    +0.000 A 
ATOM      5  S   UNL     1       3.331   5.374  19.749  0.00  0.00    +0.000 S 
ATOM      6  C   UNL     1       3.998   5.635  18.193  0.00  0.00    +0.000 A 
ATOM      7  C   UNL     1       3.552   6.812  17.634  0.00  0.00    +0.000 A 
ATOM      8  C   UNL     1       2.648   7.496  18.501  0.00  0.00    +0.000 A 
ATOM      9  C   UNL     1       1.955   8.750  18.287  0.00  0.00    +0.000 A 
ATOM     10  O   UNL     1       2.099   9.377  17.242  0.00  0.00    +0.000 OA
ATOM     11  N   UNL     1       1.157   9.159  19.376  0.00  0.00    +0.000 N 
ENDROOT
BRANCH  11  12
ATOM     12  C   UNL     1       0.440  10.385  19.230  0.00  0.00    +0.000 A 
ATOM     13  C   UNL     1       1.033  11.590  19.635  0.00  0.00    +0.000 A 
ATOM     14  C   UNL     1       0.352  12.800  19.486  0.00  0.00    +0.000 A 
ATOM     15  C   UNL     1      -0.933  12.814  18.946  0.00  0.00    +0.000 A 
ATOM     16  C   UNL     1      -1.535  11.615  18.569  0.00  0.00    +0.000 A 
ATOM     17 CL   UNL     1      -3.128  11.629  17.918  0.00  0.00    +0.000 Cl
ATOM     18  C   UNL     1      -0.860  10.402  18.713  0.00  0.00    +0.000 A 
ENDBRANCH  11  12
TORSDOF 1
ENDMDL
MODEL 4
REMARK VINA RESULT:      -6.3      5.688      7.758
REMARK  Name = 
REMARK  2 active torsions:
REMARK  status: ('A' for Active; 'I' for Inactive)
REMARK    1  A    between atoms: C_1  and  C_2
REMARK    2  A    between atoms: N_11  and  C_12
REMARK                            x       y       z     vdW  Elec       q    Type
REMARK                         _______ _______ _______ _____ _____    ______ ____
ROOT
ATOM      1  C   UNL     1       0.100   9.113  21.568  0.00  0.00    +0.000 C 
ATOM      2  C   UNL     1       1.026   8.551  20.505  0.00  0.00    +0.000 A 
ATOM      3  N   UNL     1       1.563   7.395  20.765  0.00  0.00    +0.000 NA
ATOM      4  C   UNL     1       2.328   6.874  19.779  0.00  0.00    +0.000 A 
ATOM      5  S   UNL     1       3.095   5.358  19.940  0.00  0.00    +0.000 S 
ATOM      6  C   UNL     1       3.797   5.477  18.382  0.00  0.00    +0.000 A 
ATOM      7  C   UNL     1       3.442   6.646  17.746  0.00  0.00    +0.000 A 
ATOM      8  C   UNL     1       2.579   7.443  18.556  0.00  0.00    +0.000 A 
ATOM      9  C   UNL     1       1.980   8.728  18.257  0.00  0.00    +0.000 A 
ATOM     10  O   UNL     1       2.181   9.278  17.179  0.00  0.00    +0.000 OA
ATOM     11  N   UNL     1       1.200   9.256  19.307  0.00  0.00    +0.000 N 
ENDROOT
BRANCH  11  12
ATOM     12  C   UNL     1       0.574  10.519  19.076  0.00  0.00    +0.000 A 
ATOM     13  C   UNL     1      -0.707  10.568  18.509  0.00  0.00    +0.000 A 
ATOM     14  C   UNL     1      -1.340  11.792  18.290  0.00  0.00    +0.000 A 
ATOM     15  C   UNL     1      -0.691  12.980  18.622  0.00  0.00    +0.000 A 
ATOM     16  C   UNL     1       0.595  12.937  19.160  0.00  0.00    +0.000 A 
ATOM     17 CL   UNL     1       1.404  14.403  19.554  0.00  0.00    +0.000 Cl
ATOM     18  C   UNL     1       1.233  11.716  19.383  0.00  0.00    +0.000 A 
ENDBRANCH  11  12
TORSDOF 1
ENDMDL
MODEL 5
REMARK VINA RESULT:      -6.3      3.450      5.867
REMARK  Name = 
REMARK  2 active torsions:
REMARK  status: ('A' for Active; 'I' for Inactive)
REMARK    1  A    between atoms: C_1  and  C_2
REMARK    2  A    between atoms: N_11  and  C_12
REMARK                            x       y       z     vdW  Elec       q    Type
REMARK                         _______ _______ _______ _____ _____    ______ ____
ROOT
ATOM      1  C   UNL     1       6.603   5.500  19.423  0.00  0.00    +0.000 C 
ATOM      2  C   UNL     1       6.115   5.086  18.047  0.00  0.00    +0.000 A 
ATOM      3  N   UNL     1       6.969   5.215  17.074  0.00  0.00    +0.000 NA
ATOM      4  C   UNL     1       6.545   4.777  15.866  0.00  0.00    +0.000 A 
ATOM      5  S   UNL     1       7.539   4.851  14.481  0.00  0.00    +0.000 S 
ATOM      6  C   UNL     1       6.320   4.167  13.492  0.00  0.00    +0.000 A 
ATOM      7  C   UNL     1       5.180   3.876  14.208  0.00  0.00    +0.000 A 
ATOM      8  C   UNL     1       5.324   4.218  15.586  0.00  0.00    +0.000 A 
ATOM      9  C   UNL     1       4.370   4.066  16.666  0.00  0.00    +0.000 A 
ATOM     10  O   UNL     1       3.263   3.577  16.461  0.00  0.00    +0.000 OA
ATOM     11  N   UNL     1       4.830   4.545  17.910  0.00  0.00    +0.000 N 
ENDROOT
BRANCH  11  12
ATOM     12  C   UNL     1       3.942   4.420  19.021  0.00  0.00    +0.000 A 
ATOM     13  C   UNL     1       3.863   3.205  19.716  0.00  0.00    +0.000 A 
ATOM     14  C   UNL     1       3.011   3.069  20.813  0.00  0.00    +0.000 A 
ATOM     15  C   UNL     1       2.218   4.142  21.215  0.00  0.00    +0.000 A 
ATOM     16  C   UNL     1       2.272   5.343  20.509  0.00  0.00    +0.000 A 
ATOM     17 CL   UNL     1       1.281   6.663  20.994  0.00  0.00    +0.000 Cl
ATOM     18  C   UNL     1       3.123   5.486  19.412  0.00  0.00    +0.000 A 
ENDBRANCH  11  12
TORSDOF 1
ENDMDL
MODEL 6
REMARK VINA RESULT:      -6.3      3.577      5.944
REMARK  Name = 
REMARK  2 active torsions:
REMARK  status: ('A' for Active; 'I' for Inactive)
REMARK    1  A    between atoms: C_1  and  C_2
REMARK    2  A    between atoms: N_11  and  C_12
REMARK                            x       y       z     vdW  Elec       q    Type
REMARK                         _______ _______ _______ _____ _____    ______ ____
ROOT
ATOM      1  C   UNL     1       7.295   6.457  17.809  0.00  0.00    +0.000 C 
ATOM      2  C   UNL     1       6.782   5.727  16.582  0.00  0.00    +0.000 A 
ATOM      3  N   UNL     1       7.549   5.764  15.532  0.00  0.00    +0.000 NA
ATOM      4  C   UNL     1       7.113   5.050  14.468  0.00  0.00    +0.000 A 
ATOM      5  S   UNL     1       8.002   4.969  13.013  0.00  0.00    +0.000 S 
ATOM      6  C   UNL     1       6.825   3.965  12.277  0.00  0.00    +0.000 A 
ATOM      7  C   UNL     1       5.781   3.686  13.130  0.00  0.00    +0.000 A 
ATOM      8  C   UNL     1       5.963   4.306  14.403  0.00  0.00    +0.000 A 
ATOM      9  C   UNL     1       5.106   4.256  15.570  0.00  0.00    +0.000 A 
ATOM     10  O   UNL     1       4.064   3.609  15.557  0.00  0.00    +0.000 OA
ATOM     11  N   UNL     1       5.575   5.021  16.659  0.00  0.00    +0.000 N 
ENDROOT
BRANCH  11  12
ATOM     12  C   UNL     1       4.781   5.011  17.846  0.00  0.00    +0.000 A 
ATOM     13  C   UNL     1       4.823   3.902  18.703  0.00  0.00    +0.000 A 
ATOM     14  C   UNL     1       4.065   3.881  19.874  0.00  0.00    +0.000 A 
ATOM     15  C   UNL     1       3.246   4.964  20.193  0.00  0.00    +0.000 A 
ATOM     16  C   UNL     1       3.181   6.056  19.330  0.00  0.00    +0.000 A 
ATOM     17 CL   UNL     1       2.157   7.385  19.713  0.00  0.00    +0.000 Cl
ATOM     18  C   UNL     1       3.937   6.084  18.157  0.00  0.00    +0.000 A 
ENDBRANCH  11  12
TORSDOF 1
ENDMDL
MODEL 7
REMARK VINA RESULT:      -6.2      3.514      5.929
REMARK  Name = 
REMARK  2 active torsions:
REMARK  status: ('A' for Active; 'I' for Inactive)
REMARK    1  A    between atoms: C_1  and  C_2
REMARK    2  A    between atoms: N_11  and  C_12
REMARK                            x       y       z     vdW  Elec       q    Type
REMARK                         _______ _______ _______ _____ _____    ______ ____
ROOT
ATOM      1  C   UNL     1       7.192   6.436  17.873  0.00  0.00    +0.000 C 
ATOM      2  C   UNL     1       6.711   5.719  16.625  0.00  0.00    +0.000 A 
ATOM      3  N   UNL     1       7.500   5.775  15.592  0.00  0.00    +0.000 NA
ATOM      4  C   UNL     1       7.092   5.072  14.510  0.00  0.00    +0.000 A 
ATOM      5  S   UNL     1       8.011   5.018  13.073  0.00  0.00    +0.000 S 
ATOM      6  C   UNL     1       6.858   4.015  12.299  0.00  0.00    +0.000 A 
ATOM      7  C   UNL     1       5.798   3.718  13.126  0.00  0.00    +0.000 A 
ATOM      8  C   UNL     1       5.948   4.322  14.410  0.00  0.00    +0.000 A 
ATOM      9  C   UNL     1       5.068   4.249  15.558  0.00  0.00    +0.000 A 
ATOM     10  O   UNL     1       4.031   3.595  15.514  0.00  0.00    +0.000 OA
ATOM     11  N   UNL     1       5.507   5.003  16.667  0.00  0.00    +0.000 N 
ENDROOT
BRANCH  11  12
ATOM     12  C   UNL     1       4.689   4.971  17.837  0.00  0.00    +0.000 A 
ATOM     13  C   UNL     1       3.920   6.093  18.179  0.00  0.00    +0.000 A 
ATOM     14  C   UNL     1       3.103   6.075  19.311  0.00  0.00    +0.000 A 
ATOM     15  C   UNL     1       3.060   4.940  20.119  0.00  0.00    +0.000 A 
ATOM     16  C   UNL     1       3.845   3.834  19.798  0.00  0.00    +0.000 A 
ATOM     17 CL   UNL     1       3.805   2.440  20.805  0.00  0.00    +0.000 Cl
ATOM     18  C   UNL     1       4.662   3.845  18.667  0.00  0.00    +0.000 A 
ENDBRANCH  11  12
TORSDOF 1
ENDMDL
MODEL 8
REMARK VINA RESULT:      -6.0      3.792      5.722
REMARK  Name = 
REMARK  2 active torsions:
REMARK  status: ('A' for Active; 'I' for Inactive)
REMARK    1  A    between atoms: C_1  and  C_2
REMARK    2  A    between atoms: N_11  and  C_12
REMARK                            x       y       z     vdW  Elec       q    Type
REMARK                         _______ _______ _______ _____ _____    ______ ____
ROOT
ATOM      1  C   UNL     1       2.134   6.566  17.740  0.00  0.00    +0.000 C 
ATOM      2  C   UNL     1       3.593   6.222  17.976  0.00  0.00    +0.000 A 
ATOM      3  N   UNL     1       4.459   7.134  17.644  0.00  0.00    +0.000 NA
ATOM      4  C   UNL     1       5.749   6.841  17.926  0.00  0.00    +0.000 A 
ATOM      5  S   UNL     1       7.016   7.930  17.576  0.00  0.00    +0.000 S 
ATOM      6  C   UNL     1       8.197   6.851  18.188  0.00  0.00    +0.000 A 
ATOM      7  C   UNL     1       7.633   5.687  18.662  0.00  0.00    +0.000 A 
ATOM      8  C   UNL     1       6.213   5.696  18.520  0.00  0.00    +0.000 A 
ATOM      9  C   UNL     1       5.255   4.678  18.899  0.00  0.00    +0.000 A 
ATOM     10  O   UNL     1       5.624   3.634  19.428  0.00  0.00    +0.000 OA
ATOM     11  N   UNL     1       3.919   5.000  18.580  0.00  0.00    +0.000 N 
ENDROOT
BRANCH  11  12
ATOM     12  C   UNL     1       2.920   4.042  18.931  0.00  0.00    +0.000 A 
ATOM     13  C   UNL     1       2.272   3.310  17.925  0.00  0.00    +0.000 A 
ATOM     14  C   UNL     1       1.303   2.359  18.251  0.00  0.00    +0.000 A 
ATOM     15  C   UNL     1       0.963   2.142  19.585  0.00  0.00    +0.000 A 
ATOM     16  C   UNL     1       1.585   2.887  20.586  0.00  0.00    +0.000 A 
ATOM     17 CL   UNL     1       1.153   2.632  22.232  0.00  0.00    +0.000 Cl
ATOM     18  C   UNL     1       2.555   3.839  20.267  0.00  0.00    +0.000 A 
ENDBRANCH  11  12
TORSDOF 1
ENDMDL
MODEL 9
REMARK VINA RESULT:      -6.0      3.445      5.857
REMARK  Name = 
REMARK  2 active torsions:
REMARK  status: ('A' for Active; 'I' for Inactive)
REMARK    1  A    between atoms: C_1  and  C_2
REMARK    2  A    between atoms: N_11  and  C_12
REMARK                            x       y       z     vdW  Elec       q    Type
REMARK                         _______ _______ _______ _____ _____    ______ ____
ROOT
ATOM      1  C   UNL     1       6.587   5.604  19.348  0.00  0.00    +0.000 C 
ATOM      2  C   UNL     1       6.100   5.194  17.970  0.00  0.00    +0.000 A 
ATOM      3  N   UNL     1       6.985   5.227  17.017  0.00  0.00    +0.000 NA
ATOM      4  C   UNL     1       6.556   4.791  15.810  0.00  0.00    +0.000 A 
ATOM      5  S   UNL     1       7.587   4.746  14.450  0.00  0.00    +0.000 S 
ATOM      6  C   UNL     1       6.340   4.137  13.446  0.00  0.00    +0.000 A 
ATOM      7  C   UNL     1       5.163   3.959  14.139  0.00  0.00    +0.000 A 
ATOM      8  C   UNL     1       5.301   4.326  15.511  0.00  0.00    +0.000 A 
ATOM      9  C   UNL     1       4.312   4.280  16.569  0.00  0.00    +0.000 A 
ATOM     10  O   UNL     1       3.174   3.878  16.347  0.00  0.00    +0.000 OA
ATOM     11  N   UNL     1       4.779   4.755  17.812  0.00  0.00    +0.000 N 
ENDROOT
BRANCH  11  12
ATOM     12  C   UNL     1       3.856   4.733  18.902  0.00  0.00    +0.000 A 
ATOM     13  C   UNL     1       3.103   5.877  19.200  0.00  0.00    +0.000 A 
ATOM     14  C   UNL     1       2.186   5.869  20.252  0.00  0.00    +0.000 A 
ATOM     15  C   UNL     1       2.025   4.721  21.026  0.00  0.00    +0.000 A 
ATOM     16  C   UNL     1       2.793   3.591  20.751  0.00  0.00    +0.000 A 
ATOM     17 CL   UNL     1       2.608   2.179  21.717  0.00  0.00    +0.000 Cl
ATOM     18  C   UNL     1       3.711   3.591  19.699  0.00  0.00    +0.000 A 
ENDBRANCH  11  12
TORSDOF 1
ENDMDL
