MODEL 1
REMARK VINA RESULT:      -6.8      0.000      0.000
REMARK  Name = 
REMARK  1 active torsions:
REMARK  status: ('A' for Active; 'I' for Inactive)
REMARK    1  A    between atoms: N_3  and  C_4
REMARK                            x       y       z     vdW  Elec       q    Type
REMARK                         _______ _______ _______ _____ _____    ______ ____
ROOT
ATOM      1  O   UNL     1       2.208   8.978  17.072  0.00  0.00    +0.000 OA
ATOM      2  C   UNL     1       1.889   8.569  18.185  0.00  0.00    +0.000 C 
ATOM      3  N   UNL     1       2.418   7.434  18.757  0.00  0.00    +0.000 N 
ATOM      4  N   UNL     1       0.909   9.184  18.944  0.00  0.00    +0.000 N 
ATOM      5  C   UNL     1       0.698   9.003  20.395  0.00  0.00    +0.000 C 
ATOM      6  C   UNL     1       1.048  10.287  21.176  0.00  0.00    +0.000 C 
ATOM      7  N   UNL     1       0.364  11.430  20.580  0.00  0.00    +0.000 N 
ATOM      8  C   UNL     1      -0.396  12.285  21.331  0.00  0.00    +0.000 A 
ATOM      9  N   UNL     1      -0.484  12.087  22.657  0.00  0.00    +0.000 NA
ATOM     10  C   UNL     1      -1.241  12.933  23.374  0.00  0.00    +0.000 A 
ATOM     11  C   UNL     1      -1.935  13.979  22.824  0.00  0.00    +0.000 A 
ATOM     12  C   UNL     1      -1.800  14.109  21.468  0.00  0.00    +0.000 A 
ATOM     13  N   UNL     1      -1.046  13.286  20.714  0.00  0.00    +0.000 NA
ATOM     14  C   UNL     1       0.559  11.637  19.146  0.00  0.00    +0.000 C 
ATOM     15  C   UNL     1       0.205  10.346  18.384  0.00  0.00    +0.000 C 
ATOM     16  H   UNL     1       1.746   6.910  19.302  0.00  0.00    +0.000 HD
ENDROOT
BRANCH   3  17
ATOM     17  C   UNL     1       3.411   6.636  18.144  0.00  0.00    +0.000 A 
ATOM     18  C   UNL     1       4.674   7.144  17.820  0.00  0.00    +0.000 A 
ATOM     19  C   UNL     1       5.614   6.327  17.186  0.00  0.00    +0.000 A 
ATOM     20  C   UNL     1       5.287   5.008  16.867  0.00  0.00    +0.000 A 
ATOM     21 CL   UNL     1       6.431   4.022  16.045  0.00  0.00    +0.000 Cl
ATOM     22  C   UNL     1       4.042   4.484  17.202  0.00  0.00    +0.000 A 
ATOM     23  C   UNL     1       3.116   5.292  17.856  0.00  0.00    +0.000 A 
ATOM     24 CL   UNL     1       1.572   4.620  18.256  0.00  0.00    +0.000 Cl
ENDBRANCH   3  17
TORSDOF 1
ENDMDL
MODEL 2
REMARK VINA RESULT:      -6.8      4.153      8.450
REMARK  Name = 
REMARK  1 active torsions:
REMARK  status: ('A' for Active; 'I' for Inactive)
REMARK    1  A    between atoms: N_3  and  C_4
REMARK                            x       y       z     vdW  Elec       q    Type
REMARK                         _______ _______ _______ _____ _____    ______ ____
ROOT
ATOM      1  O   UNL     1       0.677  11.815  20.731  0.00  0.00    +0.000 OA
ATOM      2  C   UNL     1       0.745  11.411  19.574  0.00  0.00    +0.000 C 
ATOM      3  N   UNL     1       0.810  12.244  18.480  0.00  0.00    +0.000 N 
ATOM      4  N   UNL     1       0.693  10.064  19.259  0.00  0.00    +0.000 N 
ATOM      5  C   UNL     1       1.109   9.458  17.977  0.00  0.00    +0.000 C 
ATOM      6  C   UNL     1       2.378   8.597  18.151  0.00  0.00    +0.000 C 
ATOM      7  N   UNL     1       2.193   7.662  19.257  0.00  0.00    +0.000 N 
ATOM      8  C   UNL     1       2.420   6.321  19.109  0.00  0.00    +0.000 A 
ATOM      9  N   UNL     1       2.861   5.860  17.927  0.00  0.00    +0.000 NA
ATOM     10  C   UNL     1       3.070   4.538  17.802  0.00  0.00    +0.000 A 
ATOM     11  C   UNL     1       2.849   3.639  18.812  0.00  0.00    +0.000 A 
ATOM     12  C   UNL     1       2.394   4.187  19.981  0.00  0.00    +0.000 A 
ATOM     13  N   UNL     1       2.178   5.505  20.149  0.00  0.00    +0.000 NA
ATOM     14  C   UNL     1       1.785   8.234  20.539  0.00  0.00    +0.000 C 
ATOM     15  C   UNL     1       0.519   9.090  20.345  0.00  0.00    +0.000 C 
ATOM     16  H   UNL     1       0.302  11.894  17.678  0.00  0.00    +0.000 HD
ENDROOT
BRANCH   3  17
ATOM     17  C   UNL     1       0.844  13.655  18.570  0.00  0.00    +0.000 A 
ATOM     18  C   UNL     1      -0.318  14.413  18.745  0.00  0.00    +0.000 A 
ATOM     19  C   UNL     1      -0.241  15.808  18.797  0.00  0.00    +0.000 A 
ATOM     20  C   UNL     1       0.995  16.442  18.665  0.00  0.00    +0.000 A 
ATOM     21 CL   UNL     1       1.079  18.160  18.682  0.00  0.00    +0.000 Cl
ATOM     22  C   UNL     1       2.162  15.699  18.510  0.00  0.00    +0.000 A 
ATOM     23  C   UNL     1       2.085  14.308  18.484  0.00  0.00    +0.000 A 
ATOM     24 CL   UNL     1       3.548  13.406  18.285  0.00  0.00    +0.000 Cl
ENDBRANCH   3  17
TORSDOF 1
ENDMDL
MODEL 3
REMARK VINA RESULT:      -6.7      3.429      8.920
REMARK  Name = 
REMARK  1 active torsions:
REMARK  status: ('A' for Active; 'I' for Inactive)
REMARK    1  A    between atoms: N_3  and  C_4
REMARK                            x       y       z     vdW  Elec       q    Type
REMARK                         _______ _______ _______ _____ _____    ______ ____
ROOT
ATOM      1  O   UNL     1       1.553   7.923  21.419  0.00  0.00    +0.000 OA
ATOM      2  C   UNL     1       1.485   8.285  20.247  0.00  0.00    +0.000 C 
ATOM      3  N   UNL     1       0.935   9.484  19.853  0.00  0.00    +0.000 N 
ATOM      4  N   UNL     1       1.901   7.480  19.202  0.00  0.00    +0.000 N 
ATOM      5  C   UNL     1       2.190   7.930  17.824  0.00  0.00    +0.000 C 
ATOM      6  C   UNL     1       3.697   7.829  17.508  0.00  0.00    +0.000 C 
ATOM      7  N   UNL     1       4.186   6.496  17.848  0.00  0.00    +0.000 N 
ATOM      8  C   UNL     1       4.888   5.737  16.952  0.00  0.00    +0.000 A 
ATOM      9  N   UNL     1       5.165   6.248  15.740  0.00  0.00    +0.000 NA
ATOM     10  C   UNL     1       5.848   5.482  14.873  0.00  0.00    +0.000 A 
ATOM     11  C   UNL     1       6.266   4.208  15.155  0.00  0.00    +0.000 A 
ATOM     12  C   UNL     1       5.939   3.759  16.406  0.00  0.00    +0.000 A 
ATOM     13  N   UNL     1       5.261   4.496  17.306  0.00  0.00    +0.000 NA
ATOM     14  C   UNL     1       3.918   6.026  19.206  0.00  0.00    +0.000 C 
ATOM     15  C   UNL     1       2.410   6.135  19.504  0.00  0.00    +0.000 C 
ATOM     16  H   UNL     1       0.427   9.423  18.980  0.00  0.00    +0.000 HD
ENDROOT
BRANCH   3  17
ATOM     17  C   UNL     1       0.422  10.446  20.753  0.00  0.00    +0.000 A 
ATOM     18  C   UNL     1      -0.394  10.088  21.832  0.00  0.00    +0.000 A 
ATOM     19  C   UNL     1      -0.905  11.076  22.679  0.00  0.00    +0.000 A 
ATOM     20  C   UNL     1      -0.609  12.419  22.440  0.00  0.00    +0.000 A 
ATOM     21 CL   UNL     1      -1.278  13.633  23.457  0.00  0.00    +0.000 Cl
ATOM     22  C   UNL     1       0.218  12.786  21.383  0.00  0.00    +0.000 A 
ATOM     23  C   UNL     1       0.746  11.798  20.555  0.00  0.00    +0.000 A 
ATOM     24 CL   UNL     1       1.766  12.280  19.243  0.00  0.00    +0.000 Cl
ENDBRANCH   3  17
TORSDOF 1
ENDMDL
MODEL 4
REMARK VINA RESULT:      -6.7      4.165      8.353
REMARK  Name = 
REMARK  1 active torsions:
REMARK  status: ('A' for Active; 'I' for Inactive)
REMARK    1  A    between atoms: N_3  and  C_4
REMARK                            x       y       z     vdW  Elec       q    Type
REMARK                         _______ _______ _______ _____ _____    ______ ____
ROOT
ATOM      1  O   UNL     1       1.103  11.479  20.639  0.00  0.00    +0.000 OA
ATOM      2  C   UNL     1       1.131  11.069  19.482  0.00  0.00    +0.000 C 
ATOM      3  N   UNL     1       1.235  11.896  18.386  0.00  0.00    +0.000 N 
ATOM      4  N   UNL     1       0.992   9.728  19.171  0.00  0.00    +0.000 N 
ATOM      5  C   UNL     1       1.353   9.096  17.885  0.00  0.00    +0.000 C 
ATOM      6  C   UNL     1       2.568   8.158  18.045  0.00  0.00    +0.000 C 
ATOM      7  N   UNL     1       2.338   7.237  19.155  0.00  0.00    +0.000 N 
ATOM      8  C   UNL     1       2.480   5.884  19.008  0.00  0.00    +0.000 A 
ATOM      9  N   UNL     1       2.876   5.395  17.820  0.00  0.00    +0.000 NA
ATOM     10  C   UNL     1       3.001   4.063  17.696  0.00  0.00    +0.000 A 
ATOM     11  C   UNL     1       2.736   3.180  18.710  0.00  0.00    +0.000 A 
ATOM     12  C   UNL     1       2.332   3.757  19.884  0.00  0.00    +0.000 A 
ATOM     13  N   UNL     1       2.200   5.086  20.052  0.00  0.00    +0.000 NA
ATOM     14  C   UNL     1       1.983   7.835  20.441  0.00  0.00    +0.000 C 
ATOM     15  C   UNL     1       0.771   8.769  20.261  0.00  0.00    +0.000 C 
ATOM     16  H   UNL     1       0.696  11.578  17.591  0.00  0.00    +0.000 HD
ENDROOT
BRANCH   3  17
ATOM     17  C   UNL     1       1.358  13.302  18.472  0.00  0.00    +0.000 A 
ATOM     18  C   UNL     1       2.585  13.950  18.291  0.00  0.00    +0.000 A 
ATOM     19  C   UNL     1       2.665  15.340  18.416  0.00  0.00    +0.000 A 
ATOM     20  C   UNL     1       1.524  16.078  18.733  0.00  0.00    +0.000 A 
ATOM     21 CL   UNL     1       1.638  17.782  18.932  0.00  0.00    +0.000 Cl
ATOM     22  C   UNL     1       0.294  15.448  18.896  0.00  0.00    +0.000 A 
ATOM     23  C   UNL     1       0.211  14.065  18.746  0.00  0.00    +0.000 A 
ATOM     24 CL   UNL     1      -1.329  13.304  18.961  0.00  0.00    +0.000 Cl
ENDBRANCH   3  17
TORSDOF 1
ENDMDL
MODEL 5
REMARK VINA RESULT:      -6.5      2.846      4.645
REMARK  Name = 
REMARK  1 active torsions:
REMARK  status: ('A' for Active; 'I' for Inactive)
REMARK    1  A    between atoms: N_3  and  C_4
REMARK                            x       y       z     vdW  Elec       q    Type
REMARK                         _______ _______ _______ _____ _____    ______ ____
ROOT
ATOM      1  O   UNL     1       1.507  12.014  21.198  0.00  0.00    +0.000 OA
ATOM      2  C   UNL     1       0.374  11.912  20.738  0.00  0.00    +0.000 C 
ATOM      3  N   UNL     1      -0.018  10.890  19.902  0.00  0.00    +0.000 N 
ATOM      4  N   UNL     1      -0.604  12.864  20.967  0.00  0.00    +0.000 N 
ATOM      5  C   UNL     1      -2.056  12.679  20.769  0.00  0.00    +0.000 C 
ATOM      6  C   UNL     1      -2.808  12.673  22.116  0.00  0.00    +0.000 C 
ATOM      7  N   UNL     1      -2.426  13.844  22.901  0.00  0.00    +0.000 N 
ATOM      8  C   UNL     1      -3.361  14.688  23.435  0.00  0.00    +0.000 A 
ATOM      9  N   UNL     1      -4.665  14.411  23.262  0.00  0.00    +0.000 NA
ATOM     10  C   UNL     1      -5.566  15.257  23.788  0.00  0.00    +0.000 A 
ATOM     11  C   UNL     1      -5.225  16.391  24.480  0.00  0.00    +0.000 A 
ATOM     12  C   UNL     1      -3.879  16.605  24.606  0.00  0.00    +0.000 A 
ATOM     13  N   UNL     1      -2.945  15.779  24.099  0.00  0.00    +0.000 NA
ATOM     14  C   UNL     1      -0.995  14.050  23.117  0.00  0.00    +0.000 C 
ATOM     15  C   UNL     1      -0.261  14.051  21.762  0.00  0.00    +0.000 C 
ATOM     16  H   UNL     1      -0.665  11.186  19.183  0.00  0.00    +0.000 HD
ENDROOT
BRANCH   3  17
ATOM     17  C   UNL     1       0.829   9.827  19.512  0.00  0.00    +0.000 A 
ATOM     18  C   UNL     1       1.439   9.791  18.254  0.00  0.00    +0.000 A 
ATOM     19  C   UNL     1       2.244   8.704  17.900  0.00  0.00    +0.000 A 
ATOM     20  C   UNL     1       2.429   7.652  18.799  0.00  0.00    +0.000 A 
ATOM     21 CL   UNL     1       3.381   6.296  18.340  0.00  0.00    +0.000 Cl
ATOM     22  C   UNL     1       1.843   7.685  20.061  0.00  0.00    +0.000 A 
ATOM     23  C   UNL     1       1.062   8.781  20.421  0.00  0.00    +0.000 A 
ATOM     24 CL   UNL     1       0.340   8.797  21.994  0.00  0.00    +0.000 Cl
ENDBRANCH   3  17
TORSDOF 1
ENDMDL
MODEL 6
REMARK VINA RESULT:      -6.4      2.168      2.931
REMARK  Name = 
REMARK  1 active torsions:
REMARK  status: ('A' for Active; 'I' for Inactive)
REMARK    1  A    between atoms: N_3  and  C_4
REMARK                            x       y       z     vdW  Elec       q    Type
REMARK                         _______ _______ _______ _____ _____    ______ ____
ROOT
ATOM      1  O   UNL     1       1.704   6.130  21.128  0.00  0.00    +0.000 OA
ATOM      2  C   UNL     1       1.902   6.920  20.208  0.00  0.00    +0.000 C 
ATOM      3  N   UNL     1       2.419   6.550  18.987  0.00  0.00    +0.000 N 
ATOM      4  N   UNL     1       1.683   8.279  20.344  0.00  0.00    +0.000 N 
ATOM      5  C   UNL     1       1.550   9.249  19.237  0.00  0.00    +0.000 C 
ATOM      6  C   UNL     1       0.109   9.791  19.138  0.00  0.00    +0.000 C 
ATOM      7  N   UNL     1      -0.331  10.268  20.446  0.00  0.00    +0.000 N 
ATOM      8  C   UNL     1      -0.855  11.519  20.616  0.00  0.00    +0.000 A 
ATOM      9  N   UNL     1      -1.002  12.317  19.544  0.00  0.00    +0.000 NA
ATOM     10  C   UNL     1      -1.512  13.545  19.736  0.00  0.00    +0.000 A 
ATOM     11  C   UNL     1      -1.879  14.029  20.964  0.00  0.00    +0.000 A 
ATOM     12  C   UNL     1      -1.691  13.160  22.005  0.00  0.00    +0.000 A 
ATOM     13  N   UNL     1      -1.189  11.919  21.855  0.00  0.00    +0.000 NA
ATOM     14  C   UNL     1      -0.215   9.327  21.560  0.00  0.00    +0.000 C 
ATOM     15  C   UNL     1       1.229   8.796  21.642  0.00  0.00    +0.000 C 
ATOM     16  H   UNL     1       3.042   7.241  18.590  0.00  0.00    +0.000 HD
ENDROOT
BRANCH   3  17
ATOM     17  C   UNL     1       2.744   5.217  18.644  0.00  0.00    +0.000 A 
ATOM     18  C   UNL     1       1.783   4.324  18.156  0.00  0.00    +0.000 A 
ATOM     19  C   UNL     1       2.143   3.006  17.859  0.00  0.00    +0.000 A 
ATOM     20  C   UNL     1       3.457   2.580  18.060  0.00  0.00    +0.000 A 
ATOM     21 CL   UNL     1       3.882   0.946  17.737  0.00  0.00    +0.000 Cl
ATOM     22  C   UNL     1       4.426   3.464  18.525  0.00  0.00    +0.000 A 
ATOM     23  C   UNL     1       4.071   4.783  18.797  0.00  0.00    +0.000 A 
ATOM     24 CL   UNL     1       5.293   5.862  19.381  0.00  0.00    +0.000 Cl
ENDBRANCH   3  17
TORSDOF 1
ENDMDL
MODEL 7
REMARK VINA RESULT:      -6.2      1.416      1.520
REMARK  Name = 
REMARK  1 active torsions:
REMARK  status: ('A' for Active; 'I' for Inactive)
REMARK    1  A    between atoms: N_3  and  C_4
REMARK                            x       y       z     vdW  Elec       q    Type
REMARK                         _______ _______ _______ _____ _____    ______ ____
ROOT
ATOM      1  O   UNL     1       1.105   9.140  17.446  0.00  0.00    +0.000 OA
ATOM      2  C   UNL     1       1.181   9.120  18.672  0.00  0.00    +0.000 C 
ATOM      3  N   UNL     1       1.919   8.192  19.372  0.00  0.00    +0.000 N 
ATOM      4  N   UNL     1       0.470   9.998  19.470  0.00  0.00    +0.000 N 
ATOM      5  C   UNL     1       0.745  10.294  20.891  0.00  0.00    +0.000 C 
ATOM      6  C   UNL     1       1.267  11.735  21.072  0.00  0.00    +0.000 C 
ATOM      7  N   UNL     1       0.375  12.673  20.398  0.00  0.00    +0.000 N 
ATOM      8  C   UNL     1      -0.142  13.763  21.042  0.00  0.00    +0.000 A 
ATOM      9  N   UNL     1       0.211  13.995  22.318  0.00  0.00    +0.000 NA
ATOM     10  C   UNL     1      -0.315  15.067  22.933  0.00  0.00    +0.000 A 
ATOM     11  C   UNL     1      -1.197  15.927  22.334  0.00  0.00    +0.000 A 
ATOM     12  C   UNL     1      -1.511  15.618  21.038  0.00  0.00    +0.000 A 
ATOM     13  N   UNL     1      -1.002  14.557  20.383  0.00  0.00    +0.000 NA
ATOM     14  C   UNL     1       0.088  12.407  18.989  0.00  0.00    +0.000 C 
ATOM     15  C   UNL     1      -0.431  10.966  18.827  0.00  0.00    +0.000 C 
ATOM     16  H   UNL     1       1.483   7.905  20.239  0.00  0.00    +0.000 HD
ENDROOT
BRANCH   3  17
ATOM     17  C   UNL     1       2.698   7.184  18.758  0.00  0.00    +0.000 A 
ATOM     18  C   UNL     1       3.568   7.464  17.699  0.00  0.00    +0.000 A 
ATOM     19  C   UNL     1       4.295   6.430  17.102  0.00  0.00    +0.000 A 
ATOM     20  C   UNL     1       4.145   5.119  17.556  0.00  0.00    +0.000 A 
ATOM     21 CL   UNL     1       5.007   3.846  16.787  0.00  0.00    +0.000 Cl
ATOM     22  C   UNL     1       3.298   4.830  18.622  0.00  0.00    +0.000 A 
ATOM     23  C   UNL     1       2.593   5.865  19.232  0.00  0.00    +0.000 A 
ATOM     24 CL   UNL     1       1.541   5.481  20.552  0.00  0.00    +0.000 Cl
ENDBRANCH   3  17
TORSDOF 1
ENDMDL
MODEL 8
REMARK VINA RESULT:      -6.2      4.382      9.378
REMARK  Name = 
REMARK  1 active torsions:
REMARK  status: ('A' for Active; 'I' for Inactive)
REMARK    1  A    between atoms: N_3  and  C_4
REMARK                            x       y       z     vdW  Elec       q    Type
REMARK                         _______ _______ _______ _____ _____    ______ ____
ROOT
ATOM      1  O   UNL     1      -1.042  10.903  23.513  0.00  0.00    +0.000 OA
ATOM      2  C   UNL     1      -1.030  11.142  22.308  0.00  0.00    +0.000 C 
ATOM      3  N   UNL     1      -1.415  12.348  21.769  0.00  0.00    +0.000 N 
ATOM      4  N   UNL     1      -0.687  10.185  21.370  0.00  0.00    +0.000 N 
ATOM      5  C   UNL     1      -0.304  10.446  19.967  0.00  0.00    +0.000 C 
ATOM      6  C   UNL     1       1.188  10.131  19.726  0.00  0.00    +0.000 C 
ATOM      7  N   UNL     1       1.497   8.793  20.222  0.00  0.00    +0.000 N 
ATOM      8  C   UNL     1       2.124   7.863  19.439  0.00  0.00    +0.000 A 
ATOM      9  N   UNL     1       2.498   8.203  18.194  0.00  0.00    +0.000 NA
ATOM     10  C   UNL     1       3.106   7.272  17.440  0.00  0.00    +0.000 A 
ATOM     11  C   UNL     1       3.354   5.995  17.870  0.00  0.00    +0.000 A 
ATOM     12  C   UNL     1       2.937   5.725  19.145  0.00  0.00    +0.000 A 
ATOM     13  N   UNL     1       2.330   6.631  19.935  0.00  0.00    +0.000 NA
ATOM     14  C   UNL     1       1.132   8.507  21.609  0.00  0.00    +0.000 C 
ATOM     15  C   UNL     1      -0.358   8.828  21.831  0.00  0.00    +0.000 C 
ATOM     16  H   UNL     1      -1.901  12.257  20.887  0.00  0.00    +0.000 HD
ENDROOT
BRANCH   3  17
ATOM     17  C   UNL     1      -1.831  13.457  22.543  0.00  0.00    +0.000 A 
ATOM     18  C   UNL     1      -0.914  14.329  23.140  0.00  0.00    +0.000 A 
ATOM     19  C   UNL     1      -1.371  15.393  23.922  0.00  0.00    +0.000 A 
ATOM     20  C   UNL     1      -2.740  15.578  24.116  0.00  0.00    +0.000 A 
ATOM     21 CL   UNL     1      -3.294  16.860  25.118  0.00  0.00    +0.000 Cl
ATOM     22  C   UNL     1      -3.663  14.730  23.512  0.00  0.00    +0.000 A 
ATOM     23  C   UNL     1      -3.207  13.685  22.712  0.00  0.00    +0.000 A 
ATOM     24 CL   UNL     1      -4.374  12.639  21.976  0.00  0.00    +0.000 Cl
ENDBRANCH   3  17
TORSDOF 1
ENDMDL
MODEL 9
REMARK VINA RESULT:      -6.1      2.553      4.073
REMARK  Name = 
REMARK  1 active torsions:
REMARK  status: ('A' for Active; 'I' for Inactive)
REMARK    1  A    between atoms: N_3  and  C_4
REMARK                            x       y       z     vdW  Elec       q    Type
REMARK                         _______ _______ _______ _____ _____    ______ ____
ROOT
ATOM      1  O   UNL     1       1.806  12.158  19.634  0.00  0.00    +0.000 OA
ATOM      2  C   UNL     1       0.719  11.780  20.061  0.00  0.00    +0.000 C 
ATOM      3  N   UNL     1       0.284  10.476  19.985  0.00  0.00    +0.000 N 
ATOM      4  N   UNL     1      -0.205  12.655  20.604  0.00  0.00    +0.000 N 
ATOM      5  C   UNL     1      -1.360  12.282  21.447  0.00  0.00    +0.000 C 
ATOM      6  C   UNL     1      -1.171  12.767  22.900  0.00  0.00    +0.000 C 
ATOM      7  N   UNL     1      -0.822  14.185  22.906  0.00  0.00    +0.000 N 
ATOM      8  C   UNL     1      -1.507  15.091  23.669  0.00  0.00    +0.000 A 
ATOM      9  N   UNL     1      -2.504  14.658  24.459  0.00  0.00    +0.000 NA
ATOM     10  C   UNL     1      -3.168  15.566  25.193  0.00  0.00    +0.000 A 
ATOM     11  C   UNL     1      -2.890  16.908  25.170  0.00  0.00    +0.000 A 
ATOM     12  C   UNL     1      -1.867  17.268  24.335  0.00  0.00    +0.000 A 
ATOM     13  N   UNL     1      -1.173  16.390  23.588  0.00  0.00    +0.000 NA
ATOM     14  C   UNL     1       0.320  14.582  22.084  0.00  0.00    +0.000 C 
ATOM     15  C   UNL     1       0.115  14.089  20.639  0.00  0.00    +0.000 C 
ATOM     16  H   UNL     1      -0.709  10.394  19.808  0.00  0.00    +0.000 HD
ENDROOT
BRANCH   3  17
ATOM     17  C   UNL     1       1.055   9.423  19.441  0.00  0.00    +0.000 A 
ATOM     18  C   UNL     1       1.370   9.363  18.079  0.00  0.00    +0.000 A 
ATOM     19  C   UNL     1       2.108   8.287  17.580  0.00  0.00    +0.000 A 
ATOM     20  C   UNL     1       2.522   7.267  18.439  0.00  0.00    +0.000 A 
ATOM     21 CL   UNL     1       3.389   5.922  17.811  0.00  0.00    +0.000 Cl
ATOM     22  C   UNL     1       2.233   7.324  19.799  0.00  0.00    +0.000 A 
ATOM     23  C   UNL     1       1.518   8.411  20.299  0.00  0.00    +0.000 A 
ATOM     24 CL   UNL     1       1.165   8.457  21.993  0.00  0.00    +0.000 Cl
ENDBRANCH   3  17
TORSDOF 1
ENDMDL
