MODEL 1
REMARK VINA RESULT:      -6.4      0.000      0.000
REMARK  Name = 
REMARK  3 active torsions:
REMARK  status: ('A' for Active; 'I' for Inactive)
REMARK    1  A    between atoms: C_1  and  C_2
REMARK    2  A    between atoms: C_2  and  C_4
REMARK    3  A    between atoms: C_10  and  C_11
REMARK                            x       y       z     vdW  Elec       q    Type
REMARK                         _______ _______ _______ _____ _____    ______ ____
ROOT
ATOM      1  C   UNL     1       7.054   4.390  16.766  0.00  0.00    +0.000 C 
ATOM      2  O   UNL     1       7.886   5.102  17.672  0.00  0.00    +0.000 OA
ATOM      3  C   UNL     1       6.488   5.432  17.763  0.00  0.00    +0.000 C 
ATOM      4  C   UNL     1       6.210   6.830  17.339  0.00  0.00    +0.000 C 
ATOM      5  O   UNL     1       7.079   7.593  16.935  0.00  0.00    +0.000 OA
ATOM      6  C   UNL     1       4.795   7.220  17.342  0.00  0.00    +0.000 C 
ATOM      7  C   UNL     1       3.878   6.415  17.885  0.00  0.00    +0.000 C 
ATOM      8  C   UNL     1       2.412   6.733  17.809  0.00  0.00    +0.000 C 
ATOM      9  N   UNL     1       4.230   5.254  18.548  0.00  0.00    +0.000 N 
ATOM     10  C   UNL     1       5.523   4.764  18.661  0.00  0.00    +0.000 C 
ATOM     11  O   UNL     1       5.792   3.776  19.329  0.00  0.00    +0.000 OA
ATOM     12  H   UNL     1       3.514   4.686  18.986  0.00  0.00    +0.000 HD
ENDROOT
BRANCH   1  14
ATOM     13  C   UNL     1       5.416   4.449  14.801  0.00  0.00    +0.000 C 
ATOM     14  C   UNL     1       6.754   4.758  15.376  0.00  0.00    +0.000 C 
ATOM     15  O   UNL     1       7.641   5.305  14.724  0.00  0.00    +0.000 OA
ENDBRANCH   1  14
TORSDOF 1
ENDMDL
MODEL 2
REMARK VINA RESULT:      -6.3      1.596      1.805
REMARK  Name = 
REMARK  3 active torsions:
REMARK  status: ('A' for Active; 'I' for Inactive)
REMARK    1  A    between atoms: C_1  and  C_2
REMARK    2  A    between atoms: C_2  and  C_4
REMARK    3  A    between atoms: C_10  and  C_11
REMARK                            x       y       z     vdW  Elec       q    Type
REMARK                         _______ _______ _______ _____ _____    ______ ____
ROOT
ATOM      1  C   UNL     1       7.136   4.596  16.341  0.00  0.00    +0.000 C 
ATOM      2  O   UNL     1       7.573   5.939  16.192  0.00  0.00    +0.000 OA
ATOM      3  C   UNL     1       6.523   5.758  17.159  0.00  0.00    +0.000 C 
ATOM      4  C   UNL     1       5.252   6.408  16.740  0.00  0.00    +0.000 C 
ATOM      5  O   UNL     1       5.122   7.001  15.677  0.00  0.00    +0.000 OA
ATOM      6  C   UNL     1       4.115   6.211  17.647  0.00  0.00    +0.000 C 
ATOM      7  C   UNL     1       4.302   5.655  18.847  0.00  0.00    +0.000 C 
ATOM      8  C   UNL     1       3.147   5.341  19.755  0.00  0.00    +0.000 C 
ATOM      9  N   UNL     1       5.565   5.347  19.318  0.00  0.00    +0.000 N 
ATOM     10  C   UNL     1       6.741   5.502  18.598  0.00  0.00    +0.000 C 
ATOM     11  O   UNL     1       7.840   5.292  19.090  0.00  0.00    +0.000 OA
ATOM     12  H   UNL     1       5.677   4.966  20.250  0.00  0.00    +0.000 HD
ENDROOT
BRANCH   1  14
ATOM     13  C   UNL     1       6.135   4.041  14.052  0.00  0.00    +0.000 C 
ATOM     14  C   UNL     1       6.118   3.909  15.536  0.00  0.00    +0.000 C 
ATOM     15  O   UNL     1       5.267   3.250  16.128  0.00  0.00    +0.000 OA
ENDBRANCH   1  14
TORSDOF 1
ENDMDL
MODEL 3
REMARK VINA RESULT:      -6.3      3.438      5.337
REMARK  Name = 
REMARK  3 active torsions:
REMARK  status: ('A' for Active; 'I' for Inactive)
REMARK    1  A    between atoms: C_1  and  C_2
REMARK    2  A    between atoms: C_2  and  C_4
REMARK    3  A    between atoms: C_10  and  C_11
REMARK                            x       y       z     vdW  Elec       q    Type
REMARK                         _______ _______ _______ _____ _____    ______ ____
ROOT
ATOM      1  C   UNL     1       2.297   2.739  20.340  0.00  0.00    +0.000 C 
ATOM      2  O   UNL     1       2.222   1.683  19.392  0.00  0.00    +0.000 OA
ATOM      3  C   UNL     1       3.243   2.660  19.117  0.00  0.00    +0.000 C 
ATOM      4  C   UNL     1       2.964   3.433  17.878  0.00  0.00    +0.000 C 
ATOM      5  O   UNL     1       1.961   3.267  17.195  0.00  0.00    +0.000 OA
ATOM      6  C   UNL     1       3.930   4.494  17.567  0.00  0.00    +0.000 C 
ATOM      7  C   UNL     1       5.067   4.591  18.259  0.00  0.00    +0.000 C 
ATOM      8  C   UNL     1       6.025   5.727  18.040  0.00  0.00    +0.000 C 
ATOM      9  N   UNL     1       5.424   3.650  19.207  0.00  0.00    +0.000 N 
ATOM     10  C   UNL     1       4.639   2.572  19.593  0.00  0.00    +0.000 C 
ATOM     11  O   UNL     1       5.035   1.722  20.376  0.00  0.00    +0.000 OA
ATOM     12  H   UNL     1       6.314   3.727  19.685  0.00  0.00    +0.000 HD
ENDROOT
BRANCH   1  14
ATOM     13  C   UNL     1       2.147   5.258  20.765  0.00  0.00    +0.000 C 
ATOM     14  C   UNL     1       1.513   3.981  20.335  0.00  0.00    +0.000 C 
ATOM     15  O   UNL     1       0.338   3.915  19.982  0.00  0.00    +0.000 OA
ENDBRANCH   1  14
TORSDOF 1
ENDMDL
MODEL 4
REMARK VINA RESULT:      -6.3      3.683      5.644
REMARK  Name = 
REMARK  3 active torsions:
REMARK  status: ('A' for Active; 'I' for Inactive)
REMARK    1  A    between atoms: C_1  and  C_2
REMARK    2  A    between atoms: C_2  and  C_4
REMARK    3  A    between atoms: C_10  and  C_11
REMARK                            x       y       z     vdW  Elec       q    Type
REMARK                         _______ _______ _______ _____ _____    ______ ____
ROOT
ATOM      1  C   UNL     1       2.490   3.548  20.833  0.00  0.00    +0.000 C 
ATOM      2  O   UNL     1       1.989   2.228  20.671  0.00  0.00    +0.000 OA
ATOM      3  C   UNL     1       2.824   2.685  19.591  0.00  0.00    +0.000 C 
ATOM      4  C   UNL     1       2.067   2.840  18.320  0.00  0.00    +0.000 C 
ATOM      5  O   UNL     1       0.864   2.628  18.226  0.00  0.00    +0.000 OA
ATOM      6  C   UNL     1       2.838   3.366  17.188  0.00  0.00    +0.000 C 
ATOM      7  C   UNL     1       4.164   3.491  17.279  0.00  0.00    +0.000 C 
ATOM      8  C   UNL     1       4.971   4.125  16.181  0.00  0.00    +0.000 C 
ATOM      9  N   UNL     1       4.863   3.039  18.383  0.00  0.00    +0.000 N 
ATOM     10  C   UNL     1       4.287   2.490  19.519  0.00  0.00    +0.000 C 
ATOM     11  O   UNL     1       4.954   2.029  20.434  0.00  0.00    +0.000 OA
ATOM     12  H   UNL     1       5.874   3.109  18.404  0.00  0.00    +0.000 HD
ENDROOT
BRANCH   1  14
ATOM     13  C   UNL     1       2.614   5.951  19.961  0.00  0.00    +0.000 C 
ATOM     14  C   UNL     1       1.814   4.796  20.455  0.00  0.00    +0.000 C 
ATOM     15  O   UNL     1       0.593   4.845  20.575  0.00  0.00    +0.000 OA
ENDBRANCH   1  14
TORSDOF 1
ENDMDL
MODEL 5
REMARK VINA RESULT:      -6.3      1.599      2.810
REMARK  Name = 
REMARK  3 active torsions:
REMARK  status: ('A' for Active; 'I' for Inactive)
REMARK    1  A    between atoms: C_1  and  C_2
REMARK    2  A    between atoms: C_2  and  C_4
REMARK    3  A    between atoms: C_10  and  C_11
REMARK                            x       y       z     vdW  Elec       q    Type
REMARK                         _______ _______ _______ _____ _____    ______ ____
ROOT
ATOM      1  C   UNL     1       7.277   5.687  16.738  0.00  0.00    +0.000 C 
ATOM      2  O   UNL     1       7.849   4.603  17.457  0.00  0.00    +0.000 OA
ATOM      3  C   UNL     1       6.411   4.657  17.504  0.00  0.00    +0.000 C 
ATOM      4  C   UNL     1       5.902   4.945  18.871  0.00  0.00    +0.000 C 
ATOM      5  O   UNL     1       6.636   5.141  19.832  0.00  0.00    +0.000 OA
ATOM      6  C   UNL     1       4.445   5.080  18.985  0.00  0.00    +0.000 C 
ATOM      7  C   UNL     1       3.658   4.760  17.955  0.00  0.00    +0.000 C 
ATOM      8  C   UNL     1       2.174   4.987  18.001  0.00  0.00    +0.000 C 
ATOM      9  N   UNL     1       4.166   4.199  16.798  0.00  0.00    +0.000 N 
ATOM     10  C   UNL     1       5.513   3.976  16.548  0.00  0.00    +0.000 C 
ATOM     11  O   UNL     1       5.905   3.401  15.543  0.00  0.00    +0.000 OA
ATOM     12  H   UNL     1       3.538   3.927  16.051  0.00  0.00    +0.000 HD
ENDROOT
BRANCH   1  14
ATOM     13  C   UNL     1       8.082   7.700  18.098  0.00  0.00    +0.000 C 
ATOM     14  C   UNL     1       7.056   7.051  17.235  0.00  0.00    +0.000 C 
ATOM     15  O   UNL     1       6.008   7.612  16.924  0.00  0.00    +0.000 OA
ENDBRANCH   1  14
TORSDOF 1
ENDMDL
MODEL 6
REMARK VINA RESULT:      -6.3      2.002      4.059
REMARK  Name = 
REMARK  3 active torsions:
REMARK  status: ('A' for Active; 'I' for Inactive)
REMARK    1  A    between atoms: C_1  and  C_2
REMARK    2  A    between atoms: C_2  and  C_4
REMARK    3  A    between atoms: C_10  and  C_11
REMARK                            x       y       z     vdW  Elec       q    Type
REMARK                         _______ _______ _______ _____ _____    ______ ____
ROOT
ATOM      1  C   UNL     1       5.264   5.389  18.999  0.00  0.00    +0.000 C 
ATOM      2  O   UNL     1       5.335   4.032  19.416  0.00  0.00    +0.000 OA
ATOM      3  C   UNL     1       5.848   4.278  18.093  0.00  0.00    +0.000 C 
ATOM      4  C   UNL     1       5.022   3.630  17.040  0.00  0.00    +0.000 C 
ATOM      5  O   UNL     1       4.007   2.989  17.283  0.00  0.00    +0.000 OA
ATOM      6  C   UNL     1       5.447   3.890  15.659  0.00  0.00    +0.000 C 
ATOM      7  C   UNL     1       6.610   4.499  15.417  0.00  0.00    +0.000 C 
ATOM      8  C   UNL     1       7.024   4.876  14.023  0.00  0.00    +0.000 C 
ATOM      9  N   UNL     1       7.494   4.808  16.434  0.00  0.00    +0.000 N 
ATOM     10  C   UNL     1       7.257   4.598  17.785  0.00  0.00    +0.000 C 
ATOM     11  O   UNL     1       8.106   4.813  18.639  0.00  0.00    +0.000 OA
ATOM     12  H   UNL     1       8.388   5.231  16.214  0.00  0.00    +0.000 HD
ENDROOT
BRANCH   1  14
ATOM     13  C   UNL     1       4.348   7.070  17.300  0.00  0.00    +0.000 C 
ATOM     14  C   UNL     1       4.118   6.054  18.365  0.00  0.00    +0.000 C 
ATOM     15  O   UNL     1       2.993   5.750  18.752  0.00  0.00    +0.000 OA
ENDBRANCH   1  14
TORSDOF 1
ENDMDL
MODEL 7
REMARK VINA RESULT:      -6.2      2.833      4.919
REMARK  Name = 
REMARK  3 active torsions:
REMARK  status: ('A' for Active; 'I' for Inactive)
REMARK    1  A    between atoms: C_1  and  C_2
REMARK    2  A    between atoms: C_2  and  C_4
REMARK    3  A    between atoms: C_10  and  C_11
REMARK                            x       y       z     vdW  Elec       q    Type
REMARK                         _______ _______ _______ _____ _____    ______ ____
ROOT
ATOM      1  C   UNL     1       3.704   2.799  20.103  0.00  0.00    +0.000 C 
ATOM      2  O   UNL     1       3.913   2.050  18.914  0.00  0.00    +0.000 OA
ATOM      3  C   UNL     1       3.768   3.467  18.708  0.00  0.00    +0.000 C 
ATOM      4  C   UNL     1       2.528   3.803  17.959  0.00  0.00    +0.000 C 
ATOM      5  O   UNL     1       1.718   2.961  17.591  0.00  0.00    +0.000 OA
ATOM      6  C   UNL     1       2.277   5.237  17.767  0.00  0.00    +0.000 C 
ATOM      7  C   UNL     1       3.218   6.131  18.079  0.00  0.00    +0.000 C 
ATOM      8  C   UNL     1       2.956   7.608  17.997  0.00  0.00    +0.000 C 
ATOM      9  N   UNL     1       4.482   5.745  18.488  0.00  0.00    +0.000 N 
ATOM     10  C   UNL     1       4.886   4.432  18.687  0.00  0.00    +0.000 C 
ATOM     11  O   UNL     1       6.039   4.139  18.968  0.00  0.00    +0.000 OA
ATOM     12  H   UNL     1       5.187   6.446  18.676  0.00  0.00    +0.000 HD
ENDROOT
BRANCH   1  14
ATOM     13  C   UNL     1       2.155   4.384  21.383  0.00  0.00    +0.000 C 
ATOM     14  C   UNL     1       2.418   3.055  20.765  0.00  0.00    +0.000 C 
ATOM     15  O   UNL     1       1.598   2.141  20.795  0.00  0.00    +0.000 OA
ENDBRANCH   1  14
TORSDOF 1
ENDMDL
MODEL 8
REMARK VINA RESULT:      -6.1      1.945      3.880
REMARK  Name = 
REMARK  3 active torsions:
REMARK  status: ('A' for Active; 'I' for Inactive)
REMARK    1  A    between atoms: C_1  and  C_2
REMARK    2  A    between atoms: C_2  and  C_4
REMARK    3  A    between atoms: C_10  and  C_11
REMARK                            x       y       z     vdW  Elec       q    Type
REMARK                         _______ _______ _______ _____ _____    ______ ____
ROOT
ATOM      1  C   UNL     1       4.453   4.890  18.872  0.00  0.00    +0.000 C 
ATOM      2  O   UNL     1       5.433   5.779  19.391  0.00  0.00    +0.000 OA
ATOM      3  C   UNL     1       5.571   5.494  17.987  0.00  0.00    +0.000 C 
ATOM      4  C   UNL     1       6.811   4.731  17.686  0.00  0.00    +0.000 C 
ATOM      5  O   UNL     1       7.601   4.368  18.549  0.00  0.00    +0.000 OA
ATOM      6  C   UNL     1       6.988   4.347  16.280  0.00  0.00    +0.000 C 
ATOM      7  C   UNL     1       6.177   4.841  15.342  0.00  0.00    +0.000 C 
ATOM      8  C   UNL     1       6.262   4.386  13.912  0.00  0.00    +0.000 C 
ATOM      9  N   UNL     1       5.222   5.797  15.635  0.00  0.00    +0.000 N 
ATOM     10  C   UNL     1       4.952   6.288  16.905  0.00  0.00    +0.000 C 
ATOM     11  O   UNL     1       4.155   7.193  17.099  0.00  0.00    +0.000 OA
ATOM     12  H   UNL     1       4.651   6.184  14.893  0.00  0.00    +0.000 HD
ENDROOT
BRANCH   1  14
ATOM     13  C   UNL     1       3.901   2.653  17.756  0.00  0.00    +0.000 C 
ATOM     14  C   UNL     1       4.507   3.422  18.879  0.00  0.00    +0.000 C 
ATOM     15  O   UNL     1       5.049   2.874  19.836  0.00  0.00    +0.000 OA
ENDBRANCH   1  14
TORSDOF 1
ENDMDL
MODEL 9
REMARK VINA RESULT:      -6.1      1.873      2.496
REMARK  Name = 
REMARK  3 active torsions:
REMARK  status: ('A' for Active; 'I' for Inactive)
REMARK    1  A    between atoms: C_1  and  C_2
REMARK    2  A    between atoms: C_2  and  C_4
REMARK    3  A    between atoms: C_10  and  C_11
REMARK                            x       y       z     vdW  Elec       q    Type
REMARK                         _______ _______ _______ _____ _____    ______ ____
ROOT
ATOM      1  C   UNL     1       6.559   6.059  16.631  0.00  0.00    +0.000 C 
ATOM      2  O   UNL     1       6.423   7.119  17.568  0.00  0.00    +0.000 OA
ATOM      3  C   UNL     1       5.808   5.883  17.974  0.00  0.00    +0.000 C 
ATOM      4  C   UNL     1       4.327   5.987  18.047  0.00  0.00    +0.000 C 
ATOM      5  O   UNL     1       3.712   7.008  17.763  0.00  0.00    +0.000 OA
ATOM      6  C   UNL     1       3.624   4.746  18.392  0.00  0.00    +0.000 C 
ATOM      7  C   UNL     1       4.311   3.676  18.800  0.00  0.00    +0.000 C 
ATOM      8  C   UNL     1       3.635   2.360  19.057  0.00  0.00    +0.000 C 
ATOM      9  N   UNL     1       5.676   3.726  19.013  0.00  0.00    +0.000 N 
ATOM     10  C   UNL     1       6.479   4.831  18.766  0.00  0.00    +0.000 C 
ATOM     11  O   UNL     1       7.668   4.851  19.049  0.00  0.00    +0.000 OA
ATOM     12  H   UNL     1       6.163   2.910  19.364  0.00  0.00    +0.000 HD
ENDROOT
BRANCH   1  14
ATOM     13  C   UNL     1       5.462   4.378  15.043  0.00  0.00    +0.000 C 
ATOM     14  C   UNL     1       5.683   5.784  15.485  0.00  0.00    +0.000 C 
ATOM     15  O   UNL     1       5.166   6.742  14.915  0.00  0.00    +0.000 OA
ENDBRANCH   1  14
TORSDOF 1
ENDMDL
