MODEL 1
REMARK VINA RESULT:      -7.3      0.000      0.000
REMARK  Name = 
REMARK  7 active torsions:
REMARK  status: ('A' for Active; 'I' for Inactive)
REMARK    1  A    between atoms: C_2  and  N_3
REMARK    2  A    between atoms: C_2  and  N_12
REMARK    3  A    between atoms: N_3  and  C_4
REMARK    4  A    between atoms: C_4  and  C_5
REMARK    5  A    between atoms: C_5  and  C_6
REMARK    6  A    between atoms: N_12  and  N_13
REMARK    7  A    between atoms: C_14  and  C_15
REMARK                            x       y       z     vdW  Elec       q    Type
REMARK                         _______ _______ _______ _____ _____    ______ ____
ROOT
ATOM      1  S   UNL     1       7.771   5.717  19.072  0.00  0.00    +0.000 S 
ATOM      2  C   UNL     1       7.311   6.239  17.556  0.00  0.00    +0.000 C 
ENDROOT
BRANCH   2   3
ATOM      3  N   UNL     1       6.670   5.505  16.592  0.00  0.00    +0.000 N 
ATOM      4  H   UNL     1       7.336   5.120  15.928  0.00  0.00    +0.000 HD
BRANCH   3   5
ATOM      5  C   UNL     1       5.288   5.701  16.171  0.00  0.00    +0.000 C 
BRANCH   5   6
ATOM      6  C   UNL     1       4.345   5.921  17.353  0.00  0.00    +0.000 C 
BRANCH   6   7
ATOM      7  C   UNL     1       3.513   4.693  17.642  0.00  0.00    +0.000 A 
ATOM      8  C   UNL     1       4.086   3.416  17.599  0.00  0.00    +0.000 A 
ATOM      9  C   UNL     1       3.308   2.282  17.844  0.00  0.00    +0.000 A 
ATOM     10  C   UNL     1       1.952   2.410  18.131  0.00  0.00    +0.000 A 
ATOM     11  C   UNL     1       1.369   3.674  18.172  0.00  0.00    +0.000 A 
ATOM     12  C   UNL     1       2.147   4.810  17.926  0.00  0.00    +0.000 A 
ENDBRANCH   6   7
ENDBRANCH   5   6
ENDBRANCH   3   5
ENDBRANCH   2   3
BRANCH   2  13
ATOM     13  N   UNL     1       7.579   7.539  17.187  0.00  0.00    +0.000 N 
ATOM     14  H   UNL     1       7.628   7.710  16.187  0.00  0.00    +0.000 HD
BRANCH  13  15
ATOM     15  N   UNL     1       8.210   8.403  18.046  0.00  0.00    +0.000 NA
ATOM     16  C   UNL     1       8.152   9.644  17.671  0.00  0.00    +0.000 C 
BRANCH  16  17
ATOM     17  C   UNL     1       8.871  10.724  18.377  0.00  0.00    +0.000 A 
ATOM     18  C   UNL     1       8.923  12.019  17.851  0.00  0.00    +0.000 A 
ATOM     19  C   UNL     1       9.577  13.031  18.558  0.00  0.00    +0.000 A 
ATOM     20  C   UNL     1      10.179  12.746  19.784  0.00  0.00    +0.000 A 
ATOM     21 CL   UNL     1      10.992  13.991  20.649  0.00  0.00    +0.000 Cl
ATOM     22  C   UNL     1      10.122  11.457  20.316  0.00  0.00    +0.000 A 
ATOM     23  C   UNL     1       9.464  10.443  19.614  0.00  0.00    +0.000 A 
ENDBRANCH  16  17
ENDBRANCH  13  15
ENDBRANCH   2  13
TORSDOF 7
ENDMDL
MODEL 2
REMARK VINA RESULT:      -7.2      3.657      9.596
REMARK  Name = 
REMARK  7 active torsions:
REMARK  status: ('A' for Active; 'I' for Inactive)
REMARK    1  A    between atoms: C_2  and  N_3
REMARK    2  A    between atoms: C_2  and  N_12
REMARK    3  A    between atoms: N_3  and  C_4
REMARK    4  A    between atoms: C_4  and  C_5
REMARK    5  A    between atoms: C_5  and  C_6
REMARK    6  A    between atoms: N_12  and  N_13
REMARK    7  A    between atoms: C_14  and  C_15
REMARK                            x       y       z     vdW  Elec       q    Type
REMARK                         _______ _______ _______ _____ _____    ______ ____
ROOT
ATOM      1  S   UNL     1       7.807   6.174  18.754  0.00  0.00    +0.000 S 
ATOM      2  C   UNL     1       7.473   7.262  17.534  0.00  0.00    +0.000 C 
ENDROOT
BRANCH   2   3
ATOM      3  N   UNL     1       8.185   8.390  17.217  0.00  0.00    +0.000 N 
ATOM      4  H   UNL     1       9.045   8.150  16.732  0.00  0.00    +0.000 HD
BRANCH   3   5
ATOM      5  C   UNL     1       8.110   9.656  17.936  0.00  0.00    +0.000 C 
BRANCH   5   6
ATOM      6  C   UNL     1       9.084   9.718  19.111  0.00  0.00    +0.000 C 
BRANCH   6   7
ATOM      7  C   UNL     1       9.956  10.951  19.052  0.00  0.00    +0.000 A 
ATOM      8  C   UNL     1      10.299  11.639  20.221  0.00  0.00    +0.000 A 
ATOM      9  C   UNL     1      11.086  12.792  20.161  0.00  0.00    +0.000 A 
ATOM     10  C   UNL     1      11.534  13.271  18.933  0.00  0.00    +0.000 A 
ATOM     11  C   UNL     1      11.197  12.599  17.762  0.00  0.00    +0.000 A 
ATOM     12  C   UNL     1      10.408  11.445  17.821  0.00  0.00    +0.000 A 
ENDBRANCH   6   7
ENDBRANCH   5   6
ENDBRANCH   3   5
ENDBRANCH   2   3
BRANCH   2  13
ATOM     13  N   UNL     1       6.377   7.046  16.728  0.00  0.00    +0.000 N 
ATOM     14  H   UNL     1       5.979   7.876  16.296  0.00  0.00    +0.000 HD
BRANCH  13  15
ATOM     15  N   UNL     1       5.593   5.930  16.881  0.00  0.00    +0.000 NA
ATOM     16  C   UNL     1       4.379   6.194  17.257  0.00  0.00    +0.000 C 
BRANCH  16  17
ATOM     17  C   UNL     1       3.406   5.139  17.606  0.00  0.00    +0.000 A 
ATOM     18  C   UNL     1       3.515   3.853  17.067  0.00  0.00    +0.000 A 
ATOM     19  C   UNL     1       2.603   2.862  17.443  0.00  0.00    +0.000 A 
ATOM     20  C   UNL     1       1.588   3.161  18.352  0.00  0.00    +0.000 A 
ATOM     21 CL   UNL     1       0.462   1.943  18.807  0.00  0.00    +0.000 Cl
ATOM     22  C   UNL     1       1.482   4.440  18.898  0.00  0.00    +0.000 A 
ATOM     23  C   UNL     1       2.395   5.432  18.528  0.00  0.00    +0.000 A 
ENDBRANCH  16  17
ENDBRANCH  13  15
ENDBRANCH   2  13
TORSDOF 7
ENDMDL
MODEL 3
REMARK VINA RESULT:      -7.1      5.460      6.163
REMARK  Name = 
REMARK  7 active torsions:
REMARK  status: ('A' for Active; 'I' for Inactive)
REMARK    1  A    between atoms: C_2  and  N_3
REMARK    2  A    between atoms: C_2  and  N_12
REMARK    3  A    between atoms: N_3  and  C_4
REMARK    4  A    between atoms: C_4  and  C_5
REMARK    5  A    between atoms: C_5  and  C_6
REMARK    6  A    between atoms: N_12  and  N_13
REMARK    7  A    between atoms: C_14  and  C_15
REMARK                            x       y       z     vdW  Elec       q    Type
REMARK                         _______ _______ _______ _____ _____    ______ ____
ROOT
ATOM      1  S   UNL     1       7.224   4.980  18.219  0.00  0.00    +0.000 S 
ATOM      2  C   UNL     1       5.697   4.648  17.635  0.00  0.00    +0.000 C 
ENDROOT
BRANCH   2   3
ATOM      3  N   UNL     1       5.170   3.412  17.361  0.00  0.00    +0.000 N 
ATOM      4  H   UNL     1       5.904   2.754  17.113  0.00  0.00    +0.000 HD
BRANCH   3   5
ATOM      5  C   UNL     1       3.813   3.166  16.890  0.00  0.00    +0.000 C 
BRANCH   5   6
ATOM      6  C   UNL     1       3.104   2.080  17.697  0.00  0.00    +0.000 C 
BRANCH   6   7
ATOM      7  C   UNL     1       2.520   2.627  18.979  0.00  0.00    +0.000 A 
ATOM      8  C   UNL     1       1.383   3.443  18.955  0.00  0.00    +0.000 A 
ATOM      9  C   UNL     1       0.860   3.965  20.140  0.00  0.00    +0.000 A 
ATOM     10  C   UNL     1       1.467   3.681  21.360  0.00  0.00    +0.000 A 
ATOM     11  C   UNL     1       2.601   2.874  21.398  0.00  0.00    +0.000 A 
ATOM     12  C   UNL     1       3.127   2.352  20.212  0.00  0.00    +0.000 A 
ENDBRANCH   6   7
ENDBRANCH   5   6
ENDBRANCH   3   5
ENDBRANCH   2   3
BRANCH   2  13
ATOM     13  N   UNL     1       4.833   5.693  17.389  0.00  0.00    +0.000 N 
ATOM     14  H   UNL     1       5.040   6.249  16.564  0.00  0.00    +0.000 HD
BRANCH  13  15
ATOM     15  N   UNL     1       4.083   6.244  18.397  0.00  0.00    +0.000 NA
ATOM     16  C   UNL     1       3.097   6.974  17.973  0.00  0.00    +0.000 C 
BRANCH  16  17
ATOM     17  C   UNL     1       2.242   7.763  18.882  0.00  0.00    +0.000 A 
ATOM     18  C   UNL     1       1.989   7.332  20.188  0.00  0.00    +0.000 A 
ATOM     19  C   UNL     1       1.207   8.117  21.041  0.00  0.00    +0.000 A 
ATOM     20  C   UNL     1       0.681   9.325  20.584  0.00  0.00    +0.000 A 
ATOM     21 CL   UNL     1      -0.289  10.286  21.632  0.00  0.00    +0.000 Cl
ATOM     22  C   UNL     1       0.938   9.763  19.285  0.00  0.00    +0.000 A 
ATOM     23  C   UNL     1       1.724   8.983  18.431  0.00  0.00    +0.000 A 
ENDBRANCH  16  17
ENDBRANCH  13  15
ENDBRANCH   2  13
TORSDOF 7
ENDMDL
MODEL 4
REMARK VINA RESULT:      -7.0      5.045      5.805
REMARK  Name = 
REMARK  7 active torsions:
REMARK  status: ('A' for Active; 'I' for Inactive)
REMARK    1  A    between atoms: C_2  and  N_3
REMARK    2  A    between atoms: C_2  and  N_12
REMARK    3  A    between atoms: N_3  and  C_4
REMARK    4  A    between atoms: C_4  and  C_5
REMARK    5  A    between atoms: C_5  and  C_6
REMARK    6  A    between atoms: N_12  and  N_13
REMARK    7  A    between atoms: C_14  and  C_15
REMARK                            x       y       z     vdW  Elec       q    Type
REMARK                         _______ _______ _______ _____ _____    ______ ____
ROOT
ATOM      1  S   UNL     1       7.370   6.827  17.378  0.00  0.00    +0.000 S 
ATOM      2  C   UNL     1       6.192   5.689  17.063  0.00  0.00    +0.000 C 
ENDROOT
BRANCH   2   3
ATOM      3  N   UNL     1       6.230   4.355  17.377  0.00  0.00    +0.000 N 
ATOM      4  H   UNL     1       6.539   3.805  16.580  0.00  0.00    +0.000 HD
BRANCH   3   5
ATOM      5  C   UNL     1       5.421   3.714  18.405  0.00  0.00    +0.000 C 
BRANCH   5   6
ATOM      6  C   UNL     1       4.135   3.109  17.843  0.00  0.00    +0.000 C 
BRANCH   6   7
ATOM      7  C   UNL     1       2.968   3.302  18.782  0.00  0.00    +0.000 A 
ATOM      8  C   UNL     1       3.170   3.772  20.085  0.00  0.00    +0.000 A 
ATOM      9  C   UNL     1       2.090   3.928  20.958  0.00  0.00    +0.000 A 
ATOM     10  C   UNL     1       0.800   3.614  20.541  0.00  0.00    +0.000 A 
ATOM     11  C   UNL     1       0.585   3.142  19.249  0.00  0.00    +0.000 A 
ATOM     12  C   UNL     1       1.666   2.984  18.374  0.00  0.00    +0.000 A 
ENDBRANCH   6   7
ENDBRANCH   5   6
ENDBRANCH   3   5
ENDBRANCH   2   3
BRANCH   2  13
ATOM     13  N   UNL     1       5.036   6.083  16.424  0.00  0.00    +0.000 N 
ATOM     14  H   UNL     1       4.970   5.831  15.442  0.00  0.00    +0.000 HD
BRANCH  13  15
ATOM     15  N   UNL     1       4.284   7.128  16.900  0.00  0.00    +0.000 NA
ATOM     16  C   UNL     1       3.553   6.818  17.926  0.00  0.00    +0.000 C 
BRANCH  16  17
ATOM     17  C   UNL     1       2.573   7.752  18.517  0.00  0.00    +0.000 A 
ATOM     18  C   UNL     1       2.021   8.790  17.759  0.00  0.00    +0.000 A 
ATOM     19  C   UNL     1       1.067   9.637  18.332  0.00  0.00    +0.000 A 
ATOM     20  C   UNL     1       0.672   9.444  19.655  0.00  0.00    +0.000 A 
ATOM     21 CL   UNL     1      -0.496  10.492  20.361  0.00  0.00    +0.000 Cl
ATOM     22  C   UNL     1       1.214   8.404  20.411  0.00  0.00    +0.000 A 
ATOM     23  C   UNL     1       2.165   7.553  19.841  0.00  0.00    +0.000 A 
ENDBRANCH  16  17
ENDBRANCH  13  15
ENDBRANCH   2  13
TORSDOF 7
ENDMDL
MODEL 5
REMARK VINA RESULT:      -7.0      0.655      1.640
REMARK  Name = 
REMARK  7 active torsions:
REMARK  status: ('A' for Active; 'I' for Inactive)
REMARK    1  A    between atoms: C_2  and  N_3
REMARK    2  A    between atoms: C_2  and  N_12
REMARK    3  A    between atoms: N_3  and  C_4
REMARK    4  A    between atoms: C_4  and  C_5
REMARK    5  A    between atoms: C_5  and  C_6
REMARK    6  A    between atoms: N_12  and  N_13
REMARK    7  A    between atoms: C_14  and  C_15
REMARK                            x       y       z     vdW  Elec       q    Type
REMARK                         _______ _______ _______ _____ _____    ______ ____
ROOT
ATOM      1  S   UNL     1       7.053   5.715  18.832  0.00  0.00    +0.000 S 
ATOM      2  C   UNL     1       6.881   6.654  17.464  0.00  0.00    +0.000 C 
ENDROOT
BRANCH   2   3
ATOM      3  N   UNL     1       5.872   6.584  16.538  0.00  0.00    +0.000 N 
ATOM      4  H   UNL     1       5.952   7.335  15.858  0.00  0.00    +0.000 HD
BRANCH   3   5
ATOM      5  C   UNL     1       4.567   5.976  16.767  0.00  0.00    +0.000 C 
BRANCH   5   6
ATOM      6  C   UNL     1       4.585   4.462  16.562  0.00  0.00    +0.000 C 
BRANCH   6   7
ATOM      7  C   UNL     1       3.507   3.775  17.367  0.00  0.00    +0.000 A 
ATOM      8  C   UNL     1       2.321   4.444  17.690  0.00  0.00    +0.000 A 
ATOM      9  C   UNL     1       1.336   3.813  18.454  0.00  0.00    +0.000 A 
ATOM     10  C   UNL     1       1.527   2.510  18.906  0.00  0.00    +0.000 A 
ATOM     11  C   UNL     1       2.704   1.834  18.596  0.00  0.00    +0.000 A 
ATOM     12  C   UNL     1       3.691   2.466  17.832  0.00  0.00    +0.000 A 
ENDBRANCH   6   7
ENDBRANCH   5   6
ENDBRANCH   3   5
ENDBRANCH   2   3
BRANCH   2  13
ATOM     13  N   UNL     1       7.825   7.619  17.192  0.00  0.00    +0.000 N 
ATOM     14  H   UNL     1       8.453   7.414  16.419  0.00  0.00    +0.000 HD
BRANCH  13  15
ATOM     15  N   UNL     1       8.217   8.517  18.153  0.00  0.00    +0.000 NA
ATOM     16  C   UNL     1       8.403   9.718  17.699  0.00  0.00    +0.000 C 
BRANCH  16  17
ATOM     17  C   UNL     1       8.949  10.809  18.531  0.00  0.00    +0.000 A 
ATOM     18  C   UNL     1       9.507  10.547  19.787  0.00  0.00    +0.000 A 
ATOM     19  C   UNL     1      10.051  11.593  20.538  0.00  0.00    +0.000 A 
ATOM     20  C   UNL     1      10.033  12.893  20.033  0.00  0.00    +0.000 A 
ATOM     21 CL   UNL     1      10.695  14.180  20.963  0.00  0.00    +0.000 Cl
ATOM     22  C   UNL     1       9.485  13.157  18.778  0.00  0.00    +0.000 A 
ATOM     23  C   UNL     1       8.945  12.113  18.021  0.00  0.00    +0.000 A 
ENDBRANCH  16  17
ENDBRANCH  13  15
ENDBRANCH   2  13
TORSDOF 7
ENDMDL
MODEL 6
REMARK VINA RESULT:      -7.0      1.079      1.843
REMARK  Name = 
REMARK  7 active torsions:
REMARK  status: ('A' for Active; 'I' for Inactive)
REMARK    1  A    between atoms: C_2  and  N_3
REMARK    2  A    between atoms: C_2  and  N_12
REMARK    3  A    between atoms: N_3  and  C_4
REMARK    4  A    between atoms: C_4  and  C_5
REMARK    5  A    between atoms: C_5  and  C_6
REMARK    6  A    between atoms: N_12  and  N_13
REMARK    7  A    between atoms: C_14  and  C_15
REMARK                            x       y       z     vdW  Elec       q    Type
REMARK                         _______ _______ _______ _____ _____    ______ ____
ROOT
ATOM      1  S   UNL     1       6.796   5.598  19.162  0.00  0.00    +0.000 S 
ATOM      2  C   UNL     1       6.665   6.014  17.552  0.00  0.00    +0.000 C 
ENDROOT
BRANCH   2   3
ATOM      3  N   UNL     1       5.932   5.367  16.590  0.00  0.00    +0.000 N 
ATOM      4  H   UNL     1       6.281   5.586  15.661  0.00  0.00    +0.000 HD
BRANCH   3   5
ATOM      5  C   UNL     1       4.547   4.939  16.741  0.00  0.00    +0.000 C 
BRANCH   5   6
ATOM      6  C   UNL     1       3.718   5.924  17.562  0.00  0.00    +0.000 C 
BRANCH   6   7
ATOM      7  C   UNL     1       2.743   5.214  18.472  0.00  0.00    +0.000 A 
ATOM      8  C   UNL     1       2.413   5.750  19.722  0.00  0.00    +0.000 A 
ATOM      9  C   UNL     1       1.529   5.079  20.571  0.00  0.00    +0.000 A 
ATOM     10  C   UNL     1       0.968   3.866  20.181  0.00  0.00    +0.000 A 
ATOM     11  C   UNL     1       1.291   3.319  18.942  0.00  0.00    +0.000 A 
ATOM     12  C   UNL     1       2.178   3.990  18.093  0.00  0.00    +0.000 A 
ENDBRANCH   6   7
ENDBRANCH   5   6
ENDBRANCH   3   5
ENDBRANCH   2   3
BRANCH   2  13
ATOM     13  N   UNL     1       7.346   7.119  17.090  0.00  0.00    +0.000 N 
ATOM     14  H   UNL     1       7.633   7.083  16.116  0.00  0.00    +0.000 HD
BRANCH  13  15
ATOM     15  N   UNL     1       8.011   7.953  17.953  0.00  0.00    +0.000 NA
ATOM     16  C   UNL     1       7.917   9.209  17.639  0.00  0.00    +0.000 C 
BRANCH  16  17
ATOM     17  C   UNL     1       8.659  10.267  18.355  0.00  0.00    +0.000 A 
ATOM     18  C   UNL     1       9.252  10.016  19.597  0.00  0.00    +0.000 A 
ATOM     19  C   UNL     1       9.981  11.023  20.235  0.00  0.00    +0.000 A 
ATOM     20  C   UNL     1      10.112  12.274  19.633  0.00  0.00    +0.000 A 
ATOM     21 CL   UNL     1      11.003  13.515  20.424  0.00  0.00    +0.000 Cl
ATOM     22  C   UNL     1       9.530  12.526  18.391  0.00  0.00    +0.000 A 
ATOM     23  C   UNL     1       8.804  11.519  17.747  0.00  0.00    +0.000 A 
ENDBRANCH  16  17
ENDBRANCH  13  15
ENDBRANCH   2  13
TORSDOF 7
ENDMDL
MODEL 7
REMARK VINA RESULT:      -7.0      5.338      5.910
REMARK  Name = 
REMARK  7 active torsions:
REMARK  status: ('A' for Active; 'I' for Inactive)
REMARK    1  A    between atoms: C_2  and  N_3
REMARK    2  A    between atoms: C_2  and  N_12
REMARK    3  A    between atoms: N_3  and  C_4
REMARK    4  A    between atoms: C_4  and  C_5
REMARK    5  A    between atoms: C_5  and  C_6
REMARK    6  A    between atoms: N_12  and  N_13
REMARK    7  A    between atoms: C_14  and  C_15
REMARK                            x       y       z     vdW  Elec       q    Type
REMARK                         _______ _______ _______ _____ _____    ______ ____
ROOT
ATOM      1  S   UNL     1       6.557   4.559  14.763  0.00  0.00    +0.000 S 
ATOM      2  C   UNL     1       5.777   5.226  16.078  0.00  0.00    +0.000 C 
ENDROOT
BRANCH   2   3
ATOM      3  N   UNL     1       5.273   4.556  17.163  0.00  0.00    +0.000 N 
ATOM      4  H   UNL     1       5.755   4.833  18.014  0.00  0.00    +0.000 HD
BRANCH   3   5
ATOM      5  C   UNL     1       4.618   3.255  17.114  0.00  0.00    +0.000 C 
BRANCH   5   6
ATOM      6  C   UNL     1       3.096   3.366  17.166  0.00  0.00    +0.000 C 
BRANCH   6   7
ATOM      7  C   UNL     1       2.579   3.325  18.585  0.00  0.00    +0.000 A 
ATOM      8  C   UNL     1       1.362   3.931  18.919  0.00  0.00    +0.000 A 
ATOM      9  C   UNL     1       0.898   3.911  20.237  0.00  0.00    +0.000 A 
ATOM     10  C   UNL     1       1.645   3.290  21.234  0.00  0.00    +0.000 A 
ATOM     11  C   UNL     1       2.859   2.688  20.916  0.00  0.00    +0.000 A 
ATOM     12  C   UNL     1       3.325   2.708  19.597  0.00  0.00    +0.000 A 
ENDBRANCH   6   7
ENDBRANCH   5   6
ENDBRANCH   3   5
ENDBRANCH   2   3
BRANCH   2  13
ATOM     13  N   UNL     1       5.596   6.590  16.127  0.00  0.00    +0.000 N 
ATOM     14  H   UNL     1       6.248   7.140  15.575  0.00  0.00    +0.000 HD
BRANCH  13  15
ATOM     15  N   UNL     1       4.948   7.182  17.183  0.00  0.00    +0.000 NA
ATOM     16  C   UNL     1       3.664   6.993  17.177  0.00  0.00    +0.000 C 
BRANCH  16  17
ATOM     17  C   UNL     1       2.759   7.645  18.145  0.00  0.00    +0.000 A 
ATOM     18  C   UNL     1       2.538   7.091  19.410  0.00  0.00    +0.000 A 
ATOM     19  C   UNL     1       1.706   7.748  20.321  0.00  0.00    +0.000 A 
ATOM     20  C   UNL     1       1.099   8.952  19.964  0.00  0.00    +0.000 A 
ATOM     21 CL   UNL     1       0.070   9.755  21.084  0.00  0.00    +0.000 Cl
ATOM     22  C   UNL     1       1.324   9.512  18.707  0.00  0.00    +0.000 A 
ATOM     23  C   UNL     1       2.159   8.860  17.794  0.00  0.00    +0.000 A 
ENDBRANCH  16  17
ENDBRANCH  13  15
ENDBRANCH   2  13
TORSDOF 7
ENDMDL
MODEL 8
REMARK VINA RESULT:      -6.9      5.485      6.048
REMARK  Name = 
REMARK  7 active torsions:
REMARK  status: ('A' for Active; 'I' for Inactive)
REMARK    1  A    between atoms: C_2  and  N_3
REMARK    2  A    between atoms: C_2  and  N_12
REMARK    3  A    between atoms: N_3  and  C_4
REMARK    4  A    between atoms: C_4  and  C_5
REMARK    5  A    between atoms: C_5  and  C_6
REMARK    6  A    between atoms: N_12  and  N_13
REMARK    7  A    between atoms: C_14  and  C_15
REMARK                            x       y       z     vdW  Elec       q    Type
REMARK                         _______ _______ _______ _____ _____    ______ ____
ROOT
ATOM      1  S   UNL     1       5.657   5.443  15.356  0.00  0.00    +0.000 S 
ATOM      2  C   UNL     1       5.407   4.487  16.699  0.00  0.00    +0.000 C 
ENDROOT
BRANCH   2   3
ATOM      3  N   UNL     1       5.026   3.170  16.714  0.00  0.00    +0.000 N 
ATOM      4  H   UNL     1       5.688   2.596  16.200  0.00  0.00    +0.000 HD
BRANCH   3   5
ATOM      5  C   UNL     1       3.657   2.697  16.874  0.00  0.00    +0.000 C 
BRANCH   5   6
ATOM      6  C   UNL     1       3.495   1.776  18.082  0.00  0.00    +0.000 C 
BRANCH   6   7
ATOM      7  C   UNL     1       2.737   2.450  19.202  0.00  0.00    +0.000 A 
ATOM      8  C   UNL     1       3.265   2.492  20.497  0.00  0.00    +0.000 A 
ATOM      9  C   UNL     1       2.551   3.096  21.535  0.00  0.00    +0.000 A 
ATOM     10  C   UNL     1       1.302   3.659  21.291  0.00  0.00    +0.000 A 
ATOM     11  C   UNL     1       0.762   3.621  20.009  0.00  0.00    +0.000 A 
ATOM     12  C   UNL     1       1.476   3.015  18.969  0.00  0.00    +0.000 A 
ENDBRANCH   6   7
ENDBRANCH   5   6
ENDBRANCH   3   5
ENDBRANCH   2   3
BRANCH   2  13
ATOM     13  N   UNL     1       5.593   5.031  17.951  0.00  0.00    +0.000 N 
ATOM     14  H   UNL     1       5.931   4.390  18.663  0.00  0.00    +0.000 HD
BRANCH  13  15
ATOM     15  N   UNL     1       4.927   6.168  18.335  0.00  0.00    +0.000 NA
ATOM     16  C   UNL     1       3.673   5.971  18.605  0.00  0.00    +0.000 C 
BRANCH  16  17
ATOM     17  C   UNL     1       2.741   7.075  18.913  0.00  0.00    +0.000 A 
ATOM     18  C   UNL     1       2.148   7.186  20.174  0.00  0.00    +0.000 A 
ATOM     19  C   UNL     1       1.300   8.262  20.451  0.00  0.00    +0.000 A 
ATOM     20  C   UNL     1       1.047   9.218  19.468  0.00  0.00    +0.000 A 
ATOM     21 CL   UNL     1      -0.005  10.537  19.808  0.00  0.00    +0.000 Cl
ATOM     22  C   UNL     1       1.643   9.115  18.211  0.00  0.00    +0.000 A 
ATOM     23  C   UNL     1       2.497   8.043  17.932  0.00  0.00    +0.000 A 
ENDBRANCH  16  17
ENDBRANCH  13  15
ENDBRANCH   2  13
TORSDOF 7
ENDMDL
MODEL 9
REMARK VINA RESULT:      -6.9      1.582      1.977
REMARK  Name = 
REMARK  7 active torsions:
REMARK  status: ('A' for Active; 'I' for Inactive)
REMARK    1  A    between atoms: C_2  and  N_3
REMARK    2  A    between atoms: C_2  and  N_12
REMARK    3  A    between atoms: N_3  and  C_4
REMARK    4  A    between atoms: C_4  and  C_5
REMARK    5  A    between atoms: C_5  and  C_6
REMARK    6  A    between atoms: N_12  and  N_13
REMARK    7  A    between atoms: C_14  and  C_15
REMARK                            x       y       z     vdW  Elec       q    Type
REMARK                         _______ _______ _______ _____ _____    ______ ____
ROOT
ATOM      1  S   UNL     1       5.007   6.886  16.612  0.00  0.00    +0.000 S 
ATOM      2  C   UNL     1       6.425   6.586  17.438  0.00  0.00    +0.000 C 
ENDROOT
BRANCH   2   3
ATOM      3  N   UNL     1       6.630   5.634  18.404  0.00  0.00    +0.000 N 
ATOM      4  H   UNL     1       7.392   5.013  18.144  0.00  0.00    +0.000 HD
BRANCH   3   5
ATOM      5  C   UNL     1       5.618   5.156  19.337  0.00  0.00    +0.000 C 
BRANCH   5   6
ATOM      6  C   UNL     1       4.870   3.933  18.810  0.00  0.00    +0.000 C 
BRANCH   6   7
ATOM      7  C   UNL     1       3.438   3.900  19.292  0.00  0.00    +0.000 A 
ATOM      8  C   UNL     1       2.943   4.910  20.126  0.00  0.00    +0.000 A 
ATOM      9  C   UNL     1       1.625   4.864  20.588  0.00  0.00    +0.000 A 
ATOM     10  C   UNL     1       0.791   3.810  20.226  0.00  0.00    +0.000 A 
ATOM     11  C   UNL     1       1.272   2.797  19.401  0.00  0.00    +0.000 A 
ATOM     12  C   UNL     1       2.592   2.842  18.938  0.00  0.00    +0.000 A 
ENDBRANCH   6   7
ENDBRANCH   5   6
ENDBRANCH   3   5
ENDBRANCH   2   3
BRANCH   2  13
ATOM     13  N   UNL     1       7.538   7.346  17.155  0.00  0.00    +0.000 N 
ATOM     14  H   UNL     1       8.163   6.965  16.450  0.00  0.00    +0.000 HD
BRANCH  13  15
ATOM     15  N   UNL     1       8.026   8.254  18.062  0.00  0.00    +0.000 NA
ATOM     16  C   UNL     1       8.190   9.444  17.571  0.00  0.00    +0.000 C 
BRANCH  16  17
ATOM     17  C   UNL     1       8.823  10.539  18.333  0.00  0.00    +0.000 A 
ATOM     18  C   UNL     1       8.811  11.852  17.851  0.00  0.00    +0.000 A 
ATOM     19  C   UNL     1       9.384  12.877  18.610  0.00  0.00    +0.000 A 
ATOM     20  C   UNL     1       9.966  12.585  19.844  0.00  0.00    +0.000 A 
ATOM     21 CL   UNL     1      10.677  13.846  20.773  0.00  0.00    +0.000 Cl
ATOM     22  C   UNL     1       9.971  11.278  20.332  0.00  0.00    +0.000 A 
ATOM     23  C   UNL     1       9.395  10.252  19.578  0.00  0.00    +0.000 A 
ENDBRANCH  16  17
ENDBRANCH  13  15
ENDBRANCH   2  13
TORSDOF 7
ENDMDL
