MODEL 1
REMARK VINA RESULT:      -7.1      0.000      0.000
REMARK  Name = 
REMARK  8 active torsions:
REMARK  status: ('A' for Active; 'I' for Inactive)
REMARK    1  A    between atoms: C_1  and  C_2
REMARK    2  A    between atoms: C_9  and  C_10
REMARK    3  A    between atoms: C_10  and  C_11
REMARK    4  A    between atoms: C_11  and  O_12
REMARK    5  A    between atoms: C_15  and  C_16
REMARK    6  A    between atoms: C_22  and  C_23
REMARK    7  A    between atoms: C_23  and  C_24
REMARK    8  A    between atoms: C_23  and  O_25
REMARK                            x       y       z     vdW  Elec       q    Type
REMARK                         _______ _______ _______ _____ _____    ______ ____
ROOT
ATOM      1  C   UNL     1       4.363   7.777  17.489  0.00  0.00    +0.000 C 
ATOM      2  C   UNL     1       4.258   6.394  16.846  0.00  0.00    +0.000 C 
ATOM      3  C   UNL     1       5.711   5.929  16.499  0.00  0.00    +0.000 C 
ATOM      4  N   UNL     1       5.733   4.617  15.828  0.00  0.00    +0.000 N 
ATOM      5  C   UNL     1       6.211   4.472  14.541  0.00  0.00    +0.000 A 
ATOM      6  C   UNL     1       7.306   5.188  14.096  0.00  0.00    +0.000 A 
ATOM      7  C   UNL     1       7.741   4.959  12.811  0.00  0.00    +0.000 A 
ATOM      8  N   UNL     1       7.158   4.092  11.976  0.00  0.00    +0.000 NA
ATOM      9  C   UNL     1       6.099   3.429  12.472  0.00  0.00    +0.000 A 
ATOM     10  N   UNL     1       5.609   3.588  13.723  0.00  0.00    +0.000 NA
ATOM     11  C   UNL     1       4.918   3.561  16.445  0.00  0.00    +0.000 C 
ATOM     12  C   UNL     1       3.484   4.059  16.783  0.00  0.00    +0.000 C 
ATOM     13  C   UNL     1       2.644   2.894  17.301  0.00  0.00    +0.000 C 
ATOM     14  N   UNL     1       3.585   5.299  17.627  0.00  0.00    +0.000 N 
ATOM     15  C   UNL     1       2.940   5.515  18.825  0.00  0.00    +0.000 A 
ATOM     16  C   UNL     1       2.869   4.543  19.806  0.00  0.00    +0.000 A 
ATOM     17  C   UNL     1       2.206   4.834  20.979  0.00  0.00    +0.000 A 
ATOM     18  N   UNL     1       1.700   6.039  21.261  0.00  0.00    +0.000 NA
ATOM     19  C   UNL     1       1.861   6.962  20.295  0.00  0.00    +0.000 A 
ATOM     20  N   UNL     1       2.422   6.727  19.090  0.00  0.00    +0.000 NA
ENDROOT
BRANCH  19  21
ATOM     21  C   UNL     1       1.466   8.387  20.648  0.00  0.00    +0.000 C 
ATOM     22  C   UNL     1       1.172   9.206  19.403  0.00  0.00    +0.000 C 
BRANCH  21  23
ATOM     23  O   UNL     1       0.284   8.404  21.472  0.00  0.00    +0.000 OA
ATOM     24  H   UNL     1      -0.347   8.980  20.996  0.00  0.00    +0.000 HD
ENDBRANCH  21  23
ENDBRANCH  19  21
BRANCH   9  25
ATOM     25  C   UNL     1       5.377   2.508  11.522  0.00  0.00    +0.000 C 
BRANCH  25  26
ATOM     26  C   UNL     1       6.119   1.208  11.230  0.00  0.00    +0.000 C 
BRANCH  26  27
ATOM     27  O   UNL     1       7.533   1.377  11.319  0.00  0.00    +0.000 OA
ATOM     28  H   UNL     1       7.913   0.505  11.082  0.00  0.00    +0.000 HD
ENDBRANCH  26  27
ENDBRANCH  25  26
ENDBRANCH   9  25
TORSDOF 5
ENDMDL
MODEL 2
REMARK VINA RESULT:      -7.0      4.225      6.449
REMARK  Name = 
REMARK  8 active torsions:
REMARK  status: ('A' for Active; 'I' for Inactive)
REMARK    1  A    between atoms: C_1  and  C_2
REMARK    2  A    between atoms: C_9  and  C_10
REMARK    3  A    between atoms: C_10  and  C_11
REMARK    4  A    between atoms: C_11  and  O_12
REMARK    5  A    between atoms: C_15  and  C_16
REMARK    6  A    between atoms: C_22  and  C_23
REMARK    7  A    between atoms: C_23  and  C_24
REMARK    8  A    between atoms: C_23  and  O_25
REMARK                            x       y       z     vdW  Elec       q    Type
REMARK                         _______ _______ _______ _____ _____    ______ ____
ROOT
ATOM      1  C   UNL     1       0.603   8.279  22.179  0.00  0.00    +0.000 C 
ATOM      2  C   UNL     1       1.494   8.151  20.943  0.00  0.00    +0.000 C 
ATOM      3  C   UNL     1       1.404   6.667  20.454  0.00  0.00    +0.000 C 
ATOM      4  N   UNL     1       2.262   6.409  19.285  0.00  0.00    +0.000 N 
ATOM      5  C   UNL     1       3.311   5.513  19.342  0.00  0.00    +0.000 A 
ATOM      6  C   UNL     1       3.208   4.333  20.054  0.00  0.00    +0.000 A 
ATOM      7  C   UNL     1       4.285   3.476  20.030  0.00  0.00    +0.000 A 
ATOM      8  N   UNL     1       5.418   3.730  19.366  0.00  0.00    +0.000 NA
ATOM      9  C   UNL     1       5.450   4.894  18.695  0.00  0.00    +0.000 A 
ATOM     10  N   UNL     1       4.437   5.790  18.659  0.00  0.00    +0.000 NA
ATOM     11  C   UNL     1       2.174   7.387  18.190  0.00  0.00    +0.000 C 
ATOM     12  C   UNL     1       2.260   8.850  18.711  0.00  0.00    +0.000 C 
ATOM     13  C   UNL     1       2.293   9.815  17.529  0.00  0.00    +0.000 C 
ATOM     14  N   UNL     1       1.214   9.052  19.771  0.00  0.00    +0.000 N 
ATOM     15  C   UNL     1       0.292  10.075  19.811  0.00  0.00    +0.000 A 
ATOM     16  C   UNL     1      -0.402  10.482  18.686  0.00  0.00    +0.000 A 
ATOM     17  C   UNL     1      -1.309  11.512  18.805  0.00  0.00    +0.000 A 
ATOM     18  N   UNL     1      -1.623  12.087  19.970  0.00  0.00    +0.000 NA
ATOM     19  C   UNL     1      -0.965  11.601  21.038  0.00  0.00    +0.000 A 
ATOM     20  N   UNL     1      -0.005  10.655  20.987  0.00  0.00    +0.000 NA
ENDROOT
BRANCH  19  21
ATOM     21  C   UNL     1      -1.426  12.097  22.400  0.00  0.00    +0.000 C 
ATOM     22  C   UNL     1      -2.915  12.395  22.407  0.00  0.00    +0.000 C 
BRANCH  21  23
ATOM     23  O   UNL     1      -1.172  11.112  23.419  0.00  0.00    +0.000 OA
ATOM     24  H   UNL     1      -1.277  11.591  24.266  0.00  0.00    +0.000 HD
ENDBRANCH  21  23
ENDBRANCH  19  21
BRANCH   9  25
ATOM     25  C   UNL     1       6.747   5.238  18.007  0.00  0.00    +0.000 C 
BRANCH  25  26
ATOM     26  C   UNL     1       7.753   5.960  18.896  0.00  0.00    +0.000 C 
BRANCH  26  27
ATOM     27  O   UNL     1       7.713   5.475  20.238  0.00  0.00    +0.000 OA
ATOM     28  H   UNL     1       6.858   5.002  20.316  0.00  0.00    +0.000 HD
ENDBRANCH  26  27
ENDBRANCH  25  26
ENDBRANCH   9  25
TORSDOF 5
ENDMDL
MODEL 3
REMARK VINA RESULT:      -6.8      5.047      8.336
REMARK  Name = 
REMARK  8 active torsions:
REMARK  status: ('A' for Active; 'I' for Inactive)
REMARK    1  A    between atoms: C_1  and  C_2
REMARK    2  A    between atoms: C_9  and  C_10
REMARK    3  A    between atoms: C_10  and  C_11
REMARK    4  A    between atoms: C_11  and  O_12
REMARK    5  A    between atoms: C_15  and  C_16
REMARK    6  A    between atoms: C_22  and  C_23
REMARK    7  A    between atoms: C_23  and  C_24
REMARK    8  A    between atoms: C_23  and  O_25
REMARK                            x       y       z     vdW  Elec       q    Type
REMARK                         _______ _______ _______ _____ _____    ______ ____
ROOT
ATOM      1  C   UNL     1      -1.283  10.878  18.734  0.00  0.00    +0.000 C 
ATOM      2  C   UNL     1      -0.661   9.956  19.784  0.00  0.00    +0.000 C 
ATOM      3  C   UNL     1       0.801   9.643  19.321  0.00  0.00    +0.000 C 
ATOM      4  N   UNL     1       1.493   8.720  20.238  0.00  0.00    +0.000 N 
ATOM      5  C   UNL     1       1.921   7.475  19.823  0.00  0.00    +0.000 A 
ATOM      6  C   UNL     1       2.447   7.281  18.559  0.00  0.00    +0.000 A 
ATOM      7  C   UNL     1       2.884   6.018  18.236  0.00  0.00    +0.000 A 
ATOM      8  N   UNL     1       2.820   4.976  19.072  0.00  0.00    +0.000 NA
ATOM      9  C   UNL     1       2.299   5.234  20.284  0.00  0.00    +0.000 A 
ATOM     10  N   UNL     1       1.851   6.445  20.687  0.00  0.00    +0.000 NA
ATOM     11  C   UNL     1       1.393   9.036  21.670  0.00  0.00    +0.000 C 
ATOM     12  C   UNL     1      -0.071   9.349  22.094  0.00  0.00    +0.000 C 
ATOM     13  C   UNL     1      -0.138   9.543  23.606  0.00  0.00    +0.000 C 
ATOM     14  N   UNL     1      -0.613  10.436  21.208  0.00  0.00    +0.000 N 
ATOM     15  C   UNL     1      -1.225  11.594  21.634  0.00  0.00    +0.000 A 
ATOM     16  C   UNL     1      -0.726  12.344  22.684  0.00  0.00    +0.000 A 
ATOM     17  C   UNL     1      -1.394  13.492  23.052  0.00  0.00    +0.000 A 
ATOM     18  N   UNL     1      -2.453  13.973  22.393  0.00  0.00    +0.000 NA
ATOM     19  C   UNL     1      -2.848  13.236  21.340  0.00  0.00    +0.000 A 
ATOM     20  N   UNL     1      -2.298  12.059  20.971  0.00  0.00    +0.000 NA
ENDROOT
BRANCH  19  21
ATOM     21  C   UNL     1      -3.928  13.841  20.457  0.00  0.00    +0.000 C 
ATOM     22  C   UNL     1      -4.777  12.766  19.803  0.00  0.00    +0.000 C 
BRANCH  21  23
ATOM     23  O   UNL     1      -4.806  14.686  21.225  0.00  0.00    +0.000 OA
ATOM     24  H   UNL     1      -4.505  15.599  21.038  0.00  0.00    +0.000 HD
ENDBRANCH  21  23
ENDBRANCH  19  21
BRANCH   9  25
ATOM     25  C   UNL     1       2.142   4.057  21.213  0.00  0.00    +0.000 C 
BRANCH  25  26
ATOM     26  C   UNL     1       1.492   2.837  20.570  0.00  0.00    +0.000 C 
BRANCH  26  27
ATOM     27  O   UNL     1       0.298   3.184  19.869  0.00  0.00    +0.000 OA
ATOM     28  H   UNL     1      -0.274   3.619  20.535  0.00  0.00    +0.000 HD
ENDBRANCH  26  27
ENDBRANCH  25  26
ENDBRANCH   9  25
TORSDOF 5
ENDMDL
MODEL 4
REMARK VINA RESULT:      -6.7      3.643      6.261
REMARK  Name = 
REMARK  8 active torsions:
REMARK  status: ('A' for Active; 'I' for Inactive)
REMARK    1  A    between atoms: C_1  and  C_2
REMARK    2  A    between atoms: C_9  and  C_10
REMARK    3  A    between atoms: C_10  and  C_11
REMARK    4  A    between atoms: C_11  and  O_12
REMARK    5  A    between atoms: C_15  and  C_16
REMARK    6  A    between atoms: C_22  and  C_23
REMARK    7  A    between atoms: C_23  and  C_24
REMARK    8  A    between atoms: C_23  and  O_25
REMARK                            x       y       z     vdW  Elec       q    Type
REMARK                         _______ _______ _______ _____ _____    ______ ____
ROOT
ATOM      1  C   UNL     1       0.761   8.411  22.348  0.00  0.00    +0.000 C 
ATOM      2  C   UNL     1       1.536   8.361  21.030  0.00  0.00    +0.000 C 
ATOM      3  C   UNL     1       1.470   6.888  20.506  0.00  0.00    +0.000 C 
ATOM      4  N   UNL     1       2.225   6.705  19.254  0.00  0.00    +0.000 N 
ATOM      5  C   UNL     1       3.315   5.861  19.185  0.00  0.00    +0.000 A 
ATOM      6  C   UNL     1       3.337   4.659  19.866  0.00  0.00    +0.000 A 
ATOM      7  C   UNL     1       4.445   3.858  19.715  0.00  0.00    +0.000 A 
ATOM      8  N   UNL     1       5.497   4.186  18.956  0.00  0.00    +0.000 NA
ATOM      9  C   UNL     1       5.411   5.368  18.322  0.00  0.00    +0.000 A 
ATOM     10  N   UNL     1       4.357   6.213  18.408  0.00  0.00    +0.000 NA
ATOM     11  C   UNL     1       1.987   7.706  18.204  0.00  0.00    +0.000 C 
ATOM     12  C   UNL     1       2.053   9.157  18.759  0.00  0.00    +0.000 C 
ATOM     13  C   UNL     1       1.927  10.154  17.611  0.00  0.00    +0.000 C 
ATOM     14  N   UNL     1       1.104   9.278  19.919  0.00  0.00    +0.000 N 
ATOM     15  C   UNL     1       0.142  10.252  20.077  0.00  0.00    +0.000 A 
ATOM     16  C   UNL     1      -0.674  10.653  19.034  0.00  0.00    +0.000 A 
ATOM     17  C   UNL     1      -1.614  11.634  19.270  0.00  0.00    +0.000 A 
ATOM     18  N   UNL     1      -1.843  12.161  20.477  0.00  0.00    +0.000 NA
ATOM     19  C   UNL     1      -1.064  11.680  21.463  0.00  0.00    +0.000 A 
ATOM     20  N   UNL     1      -0.069  10.784  21.293  0.00  0.00    +0.000 NA
ENDROOT
BRANCH  19  21
ATOM     21  C   UNL     1      -1.416  12.116  22.877  0.00  0.00    +0.000 C 
ATOM     22  C   UNL     1      -1.115  13.589  23.094  0.00  0.00    +0.000 C 
BRANCH  21  23
ATOM     23  O   UNL     1      -2.817  11.912  23.144  0.00  0.00    +0.000 OA
ATOM     24  H   UNL     1      -2.858  11.644  24.084  0.00  0.00    +0.000 HD
ENDBRANCH  21  23
ENDBRANCH  19  21
BRANCH   9  25
ATOM     25  C   UNL     1       6.618   5.794  17.526  0.00  0.00    +0.000 C 
BRANCH  25  26
ATOM     26  C   UNL     1       7.342   4.647  16.828  0.00  0.00    +0.000 C 
BRANCH  26  27
ATOM     27  O   UNL     1       8.288   4.017  17.691  0.00  0.00    +0.000 OA
ATOM     28  H   UNL     1       7.795   3.291  18.127  0.00  0.00    +0.000 HD
ENDBRANCH  26  27
ENDBRANCH  25  26
ENDBRANCH   9  25
TORSDOF 5
ENDMDL
MODEL 5
REMARK VINA RESULT:      -6.7      0.968      1.060
REMARK  Name = 
REMARK  8 active torsions:
REMARK  status: ('A' for Active; 'I' for Inactive)
REMARK    1  A    between atoms: C_1  and  C_2
REMARK    2  A    between atoms: C_9  and  C_10
REMARK    3  A    between atoms: C_10  and  C_11
REMARK    4  A    between atoms: C_11  and  O_12
REMARK    5  A    between atoms: C_15  and  C_16
REMARK    6  A    between atoms: C_22  and  C_23
REMARK    7  A    between atoms: C_23  and  C_24
REMARK    8  A    between atoms: C_23  and  O_25
REMARK                            x       y       z     vdW  Elec       q    Type
REMARK                         _______ _______ _______ _____ _____    ______ ____
ROOT
ATOM      1  C   UNL     1       4.388   7.762  17.503  0.00  0.00    +0.000 C 
ATOM      2  C   UNL     1       4.303   6.387  16.839  0.00  0.00    +0.000 C 
ATOM      3  C   UNL     1       5.764   5.945  16.492  0.00  0.00    +0.000 C 
ATOM      4  N   UNL     1       5.806   4.644  15.802  0.00  0.00    +0.000 N 
ATOM      5  C   UNL     1       6.291   4.524  14.516  0.00  0.00    +0.000 A 
ATOM      6  C   UNL     1       7.380   5.260  14.087  0.00  0.00    +0.000 A 
ATOM      7  C   UNL     1       7.824   5.055  12.801  0.00  0.00    +0.000 A 
ATOM      8  N   UNL     1       7.255   4.194  11.950  0.00  0.00    +0.000 NA
ATOM      9  C   UNL     1       6.202   3.510  12.431  0.00  0.00    +0.000 A 
ATOM     10  N   UNL     1       5.705   3.644  13.682  0.00  0.00    +0.000 NA
ATOM     11  C   UNL     1       5.002   3.569  16.401  0.00  0.00    +0.000 C 
ATOM     12  C   UNL     1       3.560   4.043  16.739  0.00  0.00    +0.000 C 
ATOM     13  C   UNL     1       2.733   2.861  17.236  0.00  0.00    +0.000 C 
ATOM     14  N   UNL     1       3.641   5.272  17.601  0.00  0.00    +0.000 N 
ATOM     15  C   UNL     1       2.988   5.463  18.799  0.00  0.00    +0.000 A 
ATOM     16  C   UNL     1       2.925   4.475  19.766  0.00  0.00    +0.000 A 
ATOM     17  C   UNL     1       2.253   4.741  20.939  0.00  0.00    +0.000 A 
ATOM     18  N   UNL     1       1.730   5.935  21.236  0.00  0.00    +0.000 NA
ATOM     19  C   UNL     1       1.884   6.874  20.284  0.00  0.00    +0.000 A 
ATOM     20  N   UNL     1       2.453   6.664  19.079  0.00  0.00    +0.000 NA
ENDROOT
BRANCH  19  21
ATOM     21  C   UNL     1       1.469   8.289  20.656  0.00  0.00    +0.000 C 
ATOM     22  C   UNL     1       1.271   9.151  19.422  0.00  0.00    +0.000 C 
BRANCH  21  23
ATOM     23  O   UNL     1       0.230   8.285  21.391  0.00  0.00    +0.000 OA
ATOM     24  H   UNL     1       0.144   9.193  21.746  0.00  0.00    +0.000 HD
ENDBRANCH  21  23
ENDBRANCH  19  21
BRANCH   9  25
ATOM     25  C   UNL     1       5.497   2.593  11.465  0.00  0.00    +0.000 C 
BRANCH  25  26
ATOM     26  C   UNL     1       4.004   2.869  11.321  0.00  0.00    +0.000 C 
BRANCH  26  27
ATOM     27  O   UNL     1       3.752   3.950  10.424  0.00  0.00    +0.000 OA
ATOM     28  H   UNL     1       3.293   4.629  10.961  0.00  0.00    +0.000 HD
ENDBRANCH  26  27
ENDBRANCH  25  26
ENDBRANCH   9  25
TORSDOF 5
ENDMDL
MODEL 6
REMARK VINA RESULT:      -6.3      5.336     11.725
REMARK  Name = 
REMARK  8 active torsions:
REMARK  status: ('A' for Active; 'I' for Inactive)
REMARK    1  A    between atoms: C_1  and  C_2
REMARK    2  A    between atoms: C_9  and  C_10
REMARK    3  A    between atoms: C_10  and  C_11
REMARK    4  A    between atoms: C_11  and  O_12
REMARK    5  A    between atoms: C_15  and  C_16
REMARK    6  A    between atoms: C_22  and  C_23
REMARK    7  A    between atoms: C_23  and  C_24
REMARK    8  A    between atoms: C_23  and  O_25
REMARK                            x       y       z     vdW  Elec       q    Type
REMARK                         _______ _______ _______ _____ _____    ______ ____
ROOT
ATOM      1  C   UNL     1       1.006   8.900  22.296  0.00  0.00    +0.000 C 
ATOM      2  C   UNL     1      -0.040   9.657  21.477  0.00  0.00    +0.000 C 
ATOM      3  C   UNL     1      -0.056  11.134  21.993  0.00  0.00    +0.000 C 
ATOM      4  N   UNL     1      -1.065  11.957  21.303  0.00  0.00    +0.000 N 
ATOM      5  C   UNL     1      -2.123  12.525  21.984  0.00  0.00    +0.000 A 
ATOM      6  C   UNL     1      -1.964  13.039  23.257  0.00  0.00    +0.000 A 
ATOM      7  C   UNL     1      -3.059  13.621  23.853  0.00  0.00    +0.000 A 
ATOM      8  N   UNL     1      -4.260  13.706  23.271  0.00  0.00    +0.000 NA
ATOM      9  C   UNL     1      -4.345  13.187  22.034  0.00  0.00    +0.000 A 
ATOM     10  N   UNL     1      -3.319  12.604  21.372  0.00  0.00    +0.000 NA
ATOM     11  C   UNL     1      -1.090  11.854  19.837  0.00  0.00    +0.000 C 
ATOM     12  C   UNL     1      -1.066  10.374  19.359  0.00  0.00    +0.000 C 
ATOM     13  C   UNL     1      -1.223  10.321  17.842  0.00  0.00    +0.000 C 
ATOM     14  N   UNL     1       0.113   9.680  19.981  0.00  0.00    +0.000 N 
ATOM     15  C   UNL     1       1.062   8.941  19.309  0.00  0.00    +0.000 A 
ATOM     16  C   UNL     1       1.617   9.369  18.116  0.00  0.00    +0.000 A 
ATOM     17  C   UNL     1       2.561   8.575  17.504  0.00  0.00    +0.000 A 
ATOM     18  N   UNL     1       3.039   7.448  18.042  0.00  0.00    +0.000 NA
ATOM     19  C   UNL     1       2.510   7.121  19.235  0.00  0.00    +0.000 A 
ATOM     20  N   UNL     1       1.524   7.803  19.855  0.00  0.00    +0.000 NA
ENDROOT
BRANCH  19  21
ATOM     21  C   UNL     1       3.156   5.953  19.964  0.00  0.00    +0.000 C 
ATOM     22  C   UNL     1       2.117   5.084  20.649  0.00  0.00    +0.000 C 
BRANCH  21  23
ATOM     23  O   UNL     1       3.891   5.118  19.048  0.00  0.00    +0.000 OA
ATOM     24  H   UNL     1       3.454   5.249  18.182  0.00  0.00    +0.000 HD
ENDBRANCH  21  23
ENDBRANCH  19  21
BRANCH   9  25
ATOM     25  C   UNL     1      -5.709  13.200  21.392  0.00  0.00    +0.000 C 
BRANCH  25  26
ATOM     26  C   UNL     1      -6.866  13.139  22.384  0.00  0.00    +0.000 C 
BRANCH  26  27
ATOM     27  O   UNL     1      -6.720  12.051  23.296  0.00  0.00    +0.000 OA
ATOM     28  H   UNL     1      -6.558  11.264  22.735  0.00  0.00    +0.000 HD
ENDBRANCH  26  27
ENDBRANCH  25  26
ENDBRANCH   9  25
TORSDOF 5
ENDMDL
MODEL 7
REMARK VINA RESULT:      -6.3      5.280     11.337
REMARK  Name = 
REMARK  8 active torsions:
REMARK  status: ('A' for Active; 'I' for Inactive)
REMARK    1  A    between atoms: C_1  and  C_2
REMARK    2  A    between atoms: C_9  and  C_10
REMARK    3  A    between atoms: C_10  and  C_11
REMARK    4  A    between atoms: C_11  and  O_12
REMARK    5  A    between atoms: C_15  and  C_16
REMARK    6  A    between atoms: C_22  and  C_23
REMARK    7  A    between atoms: C_23  and  C_24
REMARK    8  A    between atoms: C_23  and  O_25
REMARK                            x       y       z     vdW  Elec       q    Type
REMARK                         _______ _______ _______ _____ _____    ______ ____
ROOT
ATOM      1  C   UNL     1       1.100   8.903  22.288  0.00  0.00    +0.000 C 
ATOM      2  C   UNL     1       0.058   9.660  21.463  0.00  0.00    +0.000 C 
ATOM      3  C   UNL     1       0.068  11.147  21.950  0.00  0.00    +0.000 C 
ATOM      4  N   UNL     1      -0.935  11.970  21.252  0.00  0.00    +0.000 N 
ATOM      5  C   UNL     1      -1.978  12.567  21.930  0.00  0.00    +0.000 A 
ATOM      6  C   UNL     1      -1.802  13.103  23.192  0.00  0.00    +0.000 A 
ATOM      7  C   UNL     1      -2.883  13.713  23.785  0.00  0.00    +0.000 A 
ATOM      8  N   UNL     1      -4.088  13.804  23.211  0.00  0.00    +0.000 NA
ATOM      9  C   UNL     1      -4.190  13.263  21.985  0.00  0.00    +0.000 A 
ATOM     10  N   UNL     1      -3.179  12.652  21.326  0.00  0.00    +0.000 NA
ATOM     11  C   UNL     1      -0.974  11.840  19.788  0.00  0.00    +0.000 C 
ATOM     12  C   UNL     1      -0.975  10.351  19.339  0.00  0.00    +0.000 C 
ATOM     13  C   UNL     1      -1.144  10.270  17.824  0.00  0.00    +0.000 C 
ATOM     14  N   UNL     1       0.199   9.652  19.965  0.00  0.00    +0.000 N 
ATOM     15  C   UNL     1       1.132   8.886  19.301  0.00  0.00    +0.000 A 
ATOM     16  C   UNL     1       1.683   9.283  18.095  0.00  0.00    +0.000 A 
ATOM     17  C   UNL     1       2.611   8.462  17.491  0.00  0.00    +0.000 A 
ATOM     18  N   UNL     1       3.077   7.340  18.047  0.00  0.00    +0.000 NA
ATOM     19  C   UNL     1       2.553   7.043  19.250  0.00  0.00    +0.000 A 
ATOM     20  N   UNL     1       1.582   7.751  19.865  0.00  0.00    +0.000 NA
ENDROOT
BRANCH  19  21
ATOM     21  C   UNL     1       3.188   5.881  19.997  0.00  0.00    +0.000 C 
ATOM     22  C   UNL     1       2.137   5.005  20.656  0.00  0.00    +0.000 C 
BRANCH  21  23
ATOM     23  O   UNL     1       3.951   5.050  19.101  0.00  0.00    +0.000 OA
ATOM     24  H   UNL     1       4.842   4.996  19.503  0.00  0.00    +0.000 HD
ENDBRANCH  21  23
ENDBRANCH  19  21
BRANCH   9  25
ATOM     25  C   UNL     1      -5.559  13.283  21.353  0.00  0.00    +0.000 C 
BRANCH  25  26
ATOM     26  C   UNL     1      -5.677  12.433  20.093  0.00  0.00    +0.000 C 
BRANCH  26  27
ATOM     27  O   UNL     1      -4.986  13.024  18.993  0.00  0.00    +0.000 OA
ATOM     28  H   UNL     1      -5.611  12.976  18.239  0.00  0.00    +0.000 HD
ENDBRANCH  26  27
ENDBRANCH  25  26
ENDBRANCH   9  25
TORSDOF 5
ENDMDL
MODEL 8
REMARK VINA RESULT:      -6.1      4.824      7.414
REMARK  Name = 
REMARK  8 active torsions:
REMARK  status: ('A' for Active; 'I' for Inactive)
REMARK    1  A    between atoms: C_1  and  C_2
REMARK    2  A    between atoms: C_9  and  C_10
REMARK    3  A    between atoms: C_10  and  C_11
REMARK    4  A    between atoms: C_11  and  O_12
REMARK    5  A    between atoms: C_15  and  C_16
REMARK    6  A    between atoms: C_22  and  C_23
REMARK    7  A    between atoms: C_23  and  C_24
REMARK    8  A    between atoms: C_23  and  O_25
REMARK                            x       y       z     vdW  Elec       q    Type
REMARK                         _______ _______ _______ _____ _____    ______ ____
ROOT
ATOM      1  C   UNL     1       1.224  10.445  17.807  0.00  0.00    +0.000 C 
ATOM      2  C   UNL     1       0.998   9.335  18.835  0.00  0.00    +0.000 C 
ATOM      3  C   UNL     1       2.354   8.573  19.003  0.00  0.00    +0.000 C 
ATOM      4  N   UNL     1       2.247   7.444  19.943  0.00  0.00    +0.000 N 
ATOM      5  C   UNL     1       2.457   6.142  19.536  0.00  0.00    +0.000 A 
ATOM      6  C   UNL     1       3.437   5.827  18.613  0.00  0.00    +0.000 A 
ATOM      7  C   UNL     1       3.606   4.501  18.287  0.00  0.00    +0.000 A 
ATOM      8  N   UNL     1       2.870   3.511  18.806  0.00  0.00    +0.000 NA
ATOM      9  C   UNL     1       1.936   3.887  19.697  0.00  0.00    +0.000 A 
ATOM     10  N   UNL     1       1.707   5.164  20.080  0.00  0.00    +0.000 NA
ATOM     11  C   UNL     1       1.579   7.727  21.222  0.00  0.00    +0.000 C 
ATOM     12  C   UNL     1       0.239   8.491  21.018  0.00  0.00    +0.000 C 
ATOM     13  C   UNL     1      -0.473   8.646  22.359  0.00  0.00    +0.000 C 
ATOM     14  N   UNL     1       0.501   9.725  20.200  0.00  0.00    +0.000 N 
ATOM     15  C   UNL     1       0.110  11.006  20.522  0.00  0.00    +0.000 A 
ATOM     16  C   UNL     1       0.242  11.514  21.802  0.00  0.00    +0.000 A 
ATOM     17  C   UNL     1      -0.172  12.805  22.047  0.00  0.00    +0.000 A 
ATOM     18  N   UNL     1      -0.618  13.630  21.095  0.00  0.00    +0.000 NA
ATOM     19  C   UNL     1      -0.659  13.100  19.859  0.00  0.00    +0.000 A 
ATOM     20  N   UNL     1      -0.350  11.821  19.557  0.00  0.00    +0.000 NA
ENDROOT
BRANCH  19  21
ATOM     21  C   UNL     1      -0.982  14.057  18.722  0.00  0.00    +0.000 C 
ATOM     22  C   UNL     1      -0.087  15.284  18.760  0.00  0.00    +0.000 C 
BRANCH  21  23
ATOM     23  O   UNL     1      -0.796  13.419  17.444  0.00  0.00    +0.000 OA
ATOM     24  H   UNL     1      -1.508  13.779  16.877  0.00  0.00    +0.000 HD
ENDBRANCH  21  23
ENDBRANCH  19  21
BRANCH   9  25
ATOM     25  C   UNL     1       1.043   2.798  20.233  0.00  0.00    +0.000 C 
BRANCH  25  26
ATOM     26  C   UNL     1       1.325   2.417  21.683  0.00  0.00    +0.000 C 
BRANCH  26  27
ATOM     27  O   UNL     1       2.639   2.804  22.083  0.00  0.00    +0.000 OA
ATOM     28  H   UNL     1       2.569   3.754  22.315  0.00  0.00    +0.000 HD
ENDBRANCH  26  27
ENDBRANCH  25  26
ENDBRANCH   9  25
TORSDOF 5
ENDMDL
MODEL 9
REMARK VINA RESULT:      -6.1      5.042      8.616
REMARK  Name = 
REMARK  8 active torsions:
REMARK  status: ('A' for Active; 'I' for Inactive)
REMARK    1  A    between atoms: C_1  and  C_2
REMARK    2  A    between atoms: C_9  and  C_10
REMARK    3  A    between atoms: C_10  and  C_11
REMARK    4  A    between atoms: C_11  and  O_12
REMARK    5  A    between atoms: C_15  and  C_16
REMARK    6  A    between atoms: C_22  and  C_23
REMARK    7  A    between atoms: C_23  and  C_24
REMARK    8  A    between atoms: C_23  and  O_25
REMARK                            x       y       z     vdW  Elec       q    Type
REMARK                         _______ _______ _______ _____ _____    ______ ____
ROOT
ATOM      1  C   UNL     1      -1.833  11.502  18.413  0.00  0.00    +0.000 C 
ATOM      2  C   UNL     1      -1.078  10.602  19.394  0.00  0.00    +0.000 C 
ATOM      3  C   UNL     1       0.410  10.537  18.915  0.00  0.00    +0.000 C 
ATOM      4  N   UNL     1       1.232   9.657  19.763  0.00  0.00    +0.000 N 
ATOM      5  C   UNL     1       1.831   8.520  19.258  0.00  0.00    +0.000 A 
ATOM      6  C   UNL     1       2.371   8.498  17.986  0.00  0.00    +0.000 A 
ATOM      7  C   UNL     1       2.983   7.338  17.571  0.00  0.00    +0.000 A 
ATOM      8  N   UNL     1       3.073   6.238  18.326  0.00  0.00    +0.000 NA
ATOM      9  C   UNL     1       2.528   6.328  19.552  0.00  0.00    +0.000 A 
ATOM     10  N   UNL     1       1.915   7.429  20.042  0.00  0.00    +0.000 NA
ATOM     11  C   UNL     1       1.097   9.847  21.215  0.00  0.00    +0.000 C 
ATOM     12  C   UNL     1      -0.394   9.914  21.655  0.00  0.00    +0.000 C 
ATOM     13  C   UNL     1      -0.478   9.983  23.177  0.00  0.00    +0.000 C 
ATOM     14  N   UNL     1      -1.091  10.976  20.851  0.00  0.00    +0.000 N 
ATOM     15  C   UNL     1      -1.859  12.000  21.359  0.00  0.00    +0.000 A 
ATOM     16  C   UNL     1      -1.466  12.732  22.465  0.00  0.00    +0.000 A 
ATOM     17  C   UNL     1      -2.289  13.743  22.915  0.00  0.00    +0.000 A 
ATOM     18  N   UNL     1      -3.410  14.115  22.290  0.00  0.00    +0.000 NA
ATOM     19  C   UNL     1      -3.702  13.410  21.182  0.00  0.00    +0.000 A 
ATOM     20  N   UNL     1      -2.992  12.355  20.729  0.00  0.00    +0.000 NA
ENDROOT
BRANCH  19  21
ATOM     21  C   UNL     1      -4.863  13.919  20.342  0.00  0.00    +0.000 C 
ATOM     22  C   UNL     1      -5.423  12.826  19.449  0.00  0.00    +0.000 C 
BRANCH  21  23
ATOM     23  O   UNL     1      -5.935  14.392  21.180  0.00  0.00    +0.000 OA
ATOM     24  H   UNL     1      -5.915  15.367  21.090  0.00  0.00    +0.000 HD
ENDBRANCH  21  23
ENDBRANCH  19  21
BRANCH   9  25
ATOM     25  C   UNL     1       2.547   5.074  20.389  0.00  0.00    +0.000 C 
BRANCH  25  26
ATOM     26  C   UNL     1       1.183   4.412  20.551  0.00  0.00    +0.000 C 
BRANCH  26  27
ATOM     27  O   UNL     1       1.268   2.993  20.426  0.00  0.00    +0.000 OA
ATOM     28  H   UNL     1       1.220   2.649  21.342  0.00  0.00    +0.000 HD
ENDBRANCH  26  27
ENDBRANCH  25  26
ENDBRANCH   9  25
TORSDOF 5
ENDMDL
