MODEL 1
REMARK VINA RESULT:      -7.5      0.000      0.000
REMARK  Name = 
REMARK  11 active torsions:
REMARK  status: ('A' for Active; 'I' for Inactive)
REMARK    1  A    between atoms: C_1  and  C_2
REMARK    2  A    between atoms: C_2  and  O_3
REMARK    3  A    between atoms: O_3  and  P_4
REMARK    4  A    between atoms: P_4  and  C_6
REMARK    5  A    between atoms: P_4  and  O_25
REMARK    6  A    between atoms: C_6  and  C_7
REMARK    7  A    between atoms: C_10  and  C_11
REMARK    8  A    between atoms: C_13  and  O_14
REMARK    9  A    between atoms: O_14  and  C_15
REMARK   10  A    between atoms: O_25  and  C_26
REMARK   11  A    between atoms: C_26  and  C_27
REMARK                            x       y       z     vdW  Elec       q    Type
REMARK                         _______ _______ _______ _____ _____    ______ ____
ROOT
ATOM      1  C   UNL     1       4.259   5.484  18.191  0.00  0.00    +0.000 A 
ATOM      2  C   UNL     1       3.409   5.310  19.295  0.00  0.00    +0.000 A 
ATOM      3  C   UNL     1       2.475   6.296  19.701  0.00  0.00    +0.000 A 
ATOM      4  C   UNL     1       2.335   7.520  19.027  0.00  0.00    +0.000 A 
ATOM      5  C   UNL     1       3.135   7.671  17.888  0.00  0.00    +0.000 A 
ATOM      6  C   UNL     1       4.086   6.698  17.500  0.00  0.00    +0.000 A 
ENDROOT
BRANCH   4   7
ATOM      7  C   UNL     1       1.480   8.620  19.545  0.00  0.00    +0.000 A 
ATOM      8  N   UNL     1       1.474   8.811  20.868  0.00  0.00    +0.000 NA
ATOM      9  C   UNL     1       0.874   9.932  21.308  0.00  0.00    +0.000 A 
ATOM     10  C   UNL     1       0.345  10.923  20.486  0.00  0.00    +0.000 A 
ATOM     11  C   UNL     1      -0.139  12.185  20.931  0.00  0.00    +0.000 A 
ATOM     12  C   UNL     1      -0.737  13.063  20.034  0.00  0.00    +0.000 A 
ATOM     13  C   UNL     1      -0.883  12.671  18.709  0.00  0.00    +0.000 A 
ATOM     14  C   UNL     1      -0.366  11.440  18.276  0.00  0.00    +0.000 A 
ATOM     15  C   UNL     1       0.292  10.566  19.141  0.00  0.00    +0.000 A 
ATOM     16  N   UNL     1       0.853   9.433  18.667  0.00  0.00    +0.000 NA
BRANCH   9  17
ATOM     17  O   UNL     1       0.731  10.072  22.676  0.00  0.00    +0.000 OA
ATOM     18  C   UNL     1      -0.433   9.362  23.109  0.00  0.00    +0.000 C 
ENDBRANCH   9  17
ENDBRANCH   4   7
BRANCH   1  19
ATOM     19  C   UNL     1       5.459   4.595  17.762  0.00  0.00    +0.000 C 
BRANCH  19  20
ATOM     20  P   UNL     1       7.297   5.199  17.237  0.00  0.00    +0.000 P 
ATOM     21  O   UNL     1       8.262   4.139  17.797  0.00  0.00    +0.000 OA
BRANCH  20  22
ATOM     22  O   UNL     1       7.335   6.031  18.754  0.00  0.00    +0.000 OA
BRANCH  22  24
ATOM     23  C   UNL     1       7.746   8.135  17.605  0.00  0.00    +0.000 C 
ATOM     24  C   UNL     1       8.209   7.157  18.663  0.00  0.00    +0.000 C 
ENDBRANCH  22  24
ENDBRANCH  20  22
BRANCH  20  25
ATOM     25  O   UNL     1       7.258   4.366  15.722  0.00  0.00    +0.000 OA
BRANCH  25  26
ATOM     26  C   UNL     1       5.977   3.983  15.251  0.00  0.00    +0.000 C 
ATOM     27  C   UNL     1       6.038   3.920  13.737  0.00  0.00    +0.000 C 
ENDBRANCH  25  26
ENDBRANCH  20  25
ENDBRANCH  19  20
ENDBRANCH   1  19
TORSDOF 8
ENDMDL
MODEL 2
REMARK VINA RESULT:      -7.5      1.498      3.533
REMARK  Name = 
REMARK  11 active torsions:
REMARK  status: ('A' for Active; 'I' for Inactive)
REMARK    1  A    between atoms: C_1  and  C_2
REMARK    2  A    between atoms: C_2  and  O_3
REMARK    3  A    between atoms: O_3  and  P_4
REMARK    4  A    between atoms: P_4  and  C_6
REMARK    5  A    between atoms: P_4  and  O_25
REMARK    6  A    between atoms: C_6  and  C_7
REMARK    7  A    between atoms: C_10  and  C_11
REMARK    8  A    between atoms: C_13  and  O_14
REMARK    9  A    between atoms: O_14  and  C_15
REMARK   10  A    between atoms: O_25  and  C_26
REMARK   11  A    between atoms: C_26  and  C_27
REMARK                            x       y       z     vdW  Elec       q    Type
REMARK                         _______ _______ _______ _____ _____    ______ ____
ROOT
ATOM      1  C   UNL     1       3.943   5.132  17.377  0.00  0.00    +0.000 A 
ATOM      2  C   UNL     1       2.936   4.945  18.338  0.00  0.00    +0.000 A 
ATOM      3  C   UNL     1       2.238   6.027  18.932  0.00  0.00    +0.000 A 
ATOM      4  C   UNL     1       2.508   7.365  18.603  0.00  0.00    +0.000 A 
ATOM      5  C   UNL     1       3.467   7.553  17.599  0.00  0.00    +0.000 A 
ATOM      6  C   UNL     1       4.180   6.475  17.027  0.00  0.00    +0.000 A 
ENDROOT
BRANCH   4   7
ATOM      7  C   UNL     1       1.901   8.504  19.341  0.00  0.00    +0.000 A 
ATOM      8  N   UNL     1       1.669   9.621  18.645  0.00  0.00    +0.000 NA
ATOM      9  C   UNL     1       0.929  10.565  19.257  0.00  0.00    +0.000 A 
ATOM     10  C   UNL     1       0.335  10.418  20.507  0.00  0.00    +0.000 A 
ATOM     11  C   UNL     1      -0.583  11.336  21.090  0.00  0.00    +0.000 A 
ATOM     12  C   UNL     1      -1.043  11.138  22.388  0.00  0.00    +0.000 A 
ATOM     13  C   UNL     1      -0.564  10.053  23.111  0.00  0.00    +0.000 A 
ATOM     14  C   UNL     1       0.311   9.135  22.509  0.00  0.00    +0.000 A 
ATOM     15  C   UNL     1       0.741   9.274  21.190  0.00  0.00    +0.000 A 
ATOM     16  N   UNL     1       1.511   8.323  20.621  0.00  0.00    +0.000 NA
BRANCH   9  17
ATOM     17  O   UNL     1       0.804  11.781  18.612  0.00  0.00    +0.000 OA
ATOM     18  C   UNL     1       2.092  12.393  18.495  0.00  0.00    +0.000 C 
ENDBRANCH   9  17
ENDBRANCH   4   7
BRANCH   1  19
ATOM     19  C   UNL     1       4.922   4.071  16.804  0.00  0.00    +0.000 C 
BRANCH  19  20
ATOM     20  P   UNL     1       6.634   4.401  15.814  0.00  0.00    +0.000 P 
ATOM     21  O   UNL     1       6.445   5.744  15.087  0.00  0.00    +0.000 OA
BRANCH  20  22
ATOM     22  O   UNL     1       5.893   3.579  14.484  0.00  0.00    +0.000 OA
BRANCH  22  24
ATOM     23  C   UNL     1       5.913   3.274  12.071  0.00  0.00    +0.000 C 
ATOM     24  C   UNL     1       6.456   4.043  13.257  0.00  0.00    +0.000 C 
ENDBRANCH  22  24
ENDBRANCH  20  22
BRANCH  20  25
ATOM     25  O   UNL     1       7.374   5.223  17.144  0.00  0.00    +0.000 OA
BRANCH  25  26
ATOM     26  C   UNL     1       7.427   6.636  17.055  0.00  0.00    +0.000 C 
ATOM     27  C   UNL     1       7.919   7.168  18.387  0.00  0.00    +0.000 C 
ENDBRANCH  25  26
ENDBRANCH  20  25
ENDBRANCH  19  20
ENDBRANCH   1  19
TORSDOF 8
ENDMDL
MODEL 3
REMARK VINA RESULT:      -7.5      2.687      4.314
REMARK  Name = 
REMARK  11 active torsions:
REMARK  status: ('A' for Active; 'I' for Inactive)
REMARK    1  A    between atoms: C_1  and  C_2
REMARK    2  A    between atoms: C_2  and  O_3
REMARK    3  A    between atoms: O_3  and  P_4
REMARK    4  A    between atoms: P_4  and  C_6
REMARK    5  A    between atoms: P_4  and  O_25
REMARK    6  A    between atoms: C_6  and  C_7
REMARK    7  A    between atoms: C_10  and  C_11
REMARK    8  A    between atoms: C_13  and  O_14
REMARK    9  A    between atoms: O_14  and  C_15
REMARK   10  A    between atoms: O_25  and  C_26
REMARK   11  A    between atoms: C_26  and  C_27
REMARK                            x       y       z     vdW  Elec       q    Type
REMARK                         _______ _______ _______ _____ _____    ______ ____
ROOT
ATOM      1  C   UNL     1       2.778   6.517  18.537  0.00  0.00    +0.000 A 
ATOM      2  C   UNL     1       2.518   7.632  17.724  0.00  0.00    +0.000 A 
ATOM      3  C   UNL     1       1.850   8.786  18.203  0.00  0.00    +0.000 A 
ATOM      4  C   UNL     1       1.396   8.895  19.528  0.00  0.00    +0.000 A 
ATOM      5  C   UNL     1       1.709   7.812  20.358  0.00  0.00    +0.000 A 
ATOM      6  C   UNL     1       2.353   6.650  19.872  0.00  0.00    +0.000 A 
ENDROOT
BRANCH   4   7
ATOM      7  C   UNL     1       0.551  10.028  19.988  0.00  0.00    +0.000 A 
ATOM      8  N   UNL     1       0.086  10.857  19.049  0.00  0.00    +0.000 NA
ATOM      9  C   UNL     1      -0.845  11.746  19.443  0.00  0.00    +0.000 A 
ATOM     10  C   UNL     1      -1.401  11.797  20.718  0.00  0.00    +0.000 A 
ATOM     11  C   UNL     1      -2.501  12.617  21.100  0.00  0.00    +0.000 A 
ATOM     12  C   UNL     1      -2.915  12.661  22.426  0.00  0.00    +0.000 A 
ATOM     13  C   UNL     1      -2.216  11.922  23.372  0.00  0.00    +0.000 A 
ATOM     14  C   UNL     1      -1.158  11.089  22.975  0.00  0.00    +0.000 A 
ATOM     15  C   UNL     1      -0.761  10.977  21.643  0.00  0.00    +0.000 A 
ATOM     16  N   UNL     1       0.201  10.098  21.291  0.00  0.00    +0.000 NA
BRANCH   9  17
ATOM     17  O   UNL     1      -1.228  12.704  18.523  0.00  0.00    +0.000 OA
ATOM     18  C   UNL     1      -0.199  13.691  18.406  0.00  0.00    +0.000 C 
ENDBRANCH   9  17
ENDBRANCH   4   7
BRANCH   1  19
ATOM     19  C   UNL     1       3.305   5.122  18.102  0.00  0.00    +0.000 C 
BRANCH  19  20
ATOM     20  P   UNL     1       3.564   3.503  19.255  0.00  0.00    +0.000 P 
ATOM     21  O   UNL     1       3.869   2.344  18.290  0.00  0.00    +0.000 OA
BRANCH  20  22
ATOM     22  O   UNL     1       1.869   3.224  19.053  0.00  0.00    +0.000 OA
BRANCH  22  24
ATOM     23  C   UNL     1       2.099   2.869  21.447  0.00  0.00    +0.000 C 
ATOM     24  C   UNL     1       1.208   3.333  20.314  0.00  0.00    +0.000 C 
ENDBRANCH  22  24
ENDBRANCH  20  22
BRANCH  20  25
ATOM     25  O   UNL     1       5.259   3.782  19.458  0.00  0.00    +0.000 OA
BRANCH  25  26
ATOM     26  C   UNL     1       5.894   4.540  18.442  0.00  0.00    +0.000 C 
ATOM     27  C   UNL     1       6.831   5.525  19.114  0.00  0.00    +0.000 C 
ENDBRANCH  25  26
ENDBRANCH  20  25
ENDBRANCH  19  20
ENDBRANCH   1  19
TORSDOF 8
ENDMDL
MODEL 4
REMARK VINA RESULT:      -7.4      1.144      2.930
REMARK  Name = 
REMARK  11 active torsions:
REMARK  status: ('A' for Active; 'I' for Inactive)
REMARK    1  A    between atoms: C_1  and  C_2
REMARK    2  A    between atoms: C_2  and  O_3
REMARK    3  A    between atoms: O_3  and  P_4
REMARK    4  A    between atoms: P_4  and  C_6
REMARK    5  A    between atoms: P_4  and  O_25
REMARK    6  A    between atoms: C_6  and  C_7
REMARK    7  A    between atoms: C_10  and  C_11
REMARK    8  A    between atoms: C_13  and  O_14
REMARK    9  A    between atoms: O_14  and  C_15
REMARK   10  A    between atoms: O_25  and  C_26
REMARK   11  A    between atoms: C_26  and  C_27
REMARK                            x       y       z     vdW  Elec       q    Type
REMARK                         _______ _______ _______ _____ _____    ______ ____
ROOT
ATOM      1  C   UNL     1       4.184   5.653  17.420  0.00  0.00    +0.000 A 
ATOM      2  C   UNL     1       4.204   7.015  17.077  0.00  0.00    +0.000 A 
ATOM      3  C   UNL     1       3.363   7.971  17.700  0.00  0.00    +0.000 A 
ATOM      4  C   UNL     1       2.447   7.623  18.706  0.00  0.00    +0.000 A 
ATOM      5  C   UNL     1       2.469   6.278  19.096  0.00  0.00    +0.000 A 
ATOM      6  C   UNL     1       3.289   5.321  18.455  0.00  0.00    +0.000 A 
ENDROOT
BRANCH   4   7
ATOM      7  C   UNL     1       1.450   8.587  19.242  0.00  0.00    +0.000 A 
ATOM      8  N   UNL     1       1.564   8.921  20.531  0.00  0.00    +0.000 NA
ATOM      9  C   UNL     1       0.801   9.947  20.952  0.00  0.00    +0.000 A 
ATOM     10  C   UNL     1      -0.018  10.715  20.130  0.00  0.00    +0.000 A 
ATOM     11  C   UNL     1      -0.697  11.901  20.528  0.00  0.00    +0.000 A 
ATOM     12  C   UNL     1      -1.568  12.538  19.651  0.00  0.00    +0.000 A 
ATOM     13  C   UNL     1      -1.787  11.977  18.398  0.00  0.00    +0.000 A 
ATOM     14  C   UNL     1      -1.081  10.830  18.006  0.00  0.00    +0.000 A 
ATOM     15  C   UNL     1      -0.156  10.205  18.841  0.00  0.00    +0.000 A 
ATOM     16  N   UNL     1       0.567   9.157  18.394  0.00  0.00    +0.000 NA
BRANCH   9  17
ATOM     17  O   UNL     1       0.798  10.210  22.309  0.00  0.00    +0.000 OA
ATOM     18  C   UNL     1      -0.124   9.334  22.963  0.00  0.00    +0.000 C 
ENDBRANCH   9  17
ENDBRANCH   4   7
BRANCH   1  19
ATOM     19  C   UNL     1       4.885   4.475  16.690  0.00  0.00    +0.000 C 
BRANCH  19  20
ATOM     20  P   UNL     1       6.608   4.528  15.667  0.00  0.00    +0.000 P 
ATOM     21  O   UNL     1       6.501   5.741  14.727  0.00  0.00    +0.000 OA
BRANCH  20  22
ATOM     22  O   UNL     1       5.809   3.545  14.488  0.00  0.00    +0.000 OA
BRANCH  22  24
ATOM     23  C   UNL     1       5.499   3.181  12.104  0.00  0.00    +0.000 C 
ATOM     24  C   UNL     1       6.330   3.831  13.190  0.00  0.00    +0.000 C 
ENDBRANCH  22  24
ENDBRANCH  20  22
BRANCH  20  25
ATOM     25  O   UNL     1       7.407   5.510  16.846  0.00  0.00    +0.000 OA
BRANCH  25  26
ATOM     26  C   UNL     1       7.678   4.893  18.093  0.00  0.00    +0.000 C 
ATOM     27  C   UNL     1       7.844   5.990  19.127  0.00  0.00    +0.000 C 
ENDBRANCH  25  26
ENDBRANCH  20  25
ENDBRANCH  19  20
ENDBRANCH   1  19
TORSDOF 8
ENDMDL
MODEL 5
REMARK VINA RESULT:      -7.3      2.182      3.469
REMARK  Name = 
REMARK  11 active torsions:
REMARK  status: ('A' for Active; 'I' for Inactive)
REMARK    1  A    between atoms: C_1  and  C_2
REMARK    2  A    between atoms: C_2  and  O_3
REMARK    3  A    between atoms: O_3  and  P_4
REMARK    4  A    between atoms: P_4  and  C_6
REMARK    5  A    between atoms: P_4  and  O_25
REMARK    6  A    between atoms: C_6  and  C_7
REMARK    7  A    between atoms: C_10  and  C_11
REMARK    8  A    between atoms: C_13  and  O_14
REMARK    9  A    between atoms: O_14  and  C_15
REMARK   10  A    between atoms: O_25  and  C_26
REMARK   11  A    between atoms: C_26  and  C_27
REMARK                            x       y       z     vdW  Elec       q    Type
REMARK                         _______ _______ _______ _____ _____    ______ ____
ROOT
ATOM      1  C   UNL     1       3.106   6.740  18.374  0.00  0.00    +0.000 A 
ATOM      2  C   UNL     1       2.895   7.875  17.574  0.00  0.00    +0.000 A 
ATOM      3  C   UNL     1       2.127   8.984  18.011  0.00  0.00    +0.000 A 
ATOM      4  C   UNL     1       1.518   9.024  19.276  0.00  0.00    +0.000 A 
ATOM      5  C   UNL     1       1.778   7.923  20.100  0.00  0.00    +0.000 A 
ATOM      6  C   UNL     1       2.522   6.806  19.654  0.00  0.00    +0.000 A 
ENDROOT
BRANCH   4   7
ATOM      7  C   UNL     1       0.578  10.105  19.672  0.00  0.00    +0.000 A 
ATOM      8  N   UNL     1      -0.117  10.693  18.692  0.00  0.00    +0.000 NA
ATOM      9  C   UNL     1      -1.114  11.512  19.074  0.00  0.00    +0.000 A 
ATOM     10  C   UNL     1      -1.510  11.717  20.393  0.00  0.00    +0.000 A 
ATOM     11  C   UNL     1      -2.663  12.446  20.798  0.00  0.00    +0.000 A 
ATOM     12  C   UNL     1      -2.912  12.671  22.147  0.00  0.00    +0.000 A 
ATOM     13  C   UNL     1      -2.000  12.203  23.085  0.00  0.00    +0.000 A 
ATOM     14  C   UNL     1      -0.888  11.452  22.673  0.00  0.00    +0.000 A 
ATOM     15  C   UNL     1      -0.646  11.159  21.332  0.00  0.00    +0.000 A 
ATOM     16  N   UNL     1       0.385  10.359  20.984  0.00  0.00    +0.000 NA
BRANCH   9  17
ATOM     17  O   UNL     1      -1.744  12.239  18.081  0.00  0.00    +0.000 OA
ATOM     18  C   UNL     1      -2.448  11.347  17.212  0.00  0.00    +0.000 C 
ENDBRANCH   9  17
ENDBRANCH   4   7
BRANCH   1  19
ATOM     19  C   UNL     1       3.738   5.384  17.957  0.00  0.00    +0.000 C 
BRANCH  19  20
ATOM     20  P   UNL     1       5.601   4.743  18.327  0.00  0.00    +0.000 P 
ATOM     21  O   UNL     1       5.978   5.321  19.702  0.00  0.00    +0.000 OA
BRANCH  20  22
ATOM     22  O   UNL     1       6.134   6.204  17.569  0.00  0.00    +0.000 OA
BRANCH  22  24
ATOM     23  C   UNL     1       7.801   7.972  17.676  0.00  0.00    +0.000 C 
ATOM     24  C   UNL     1       7.430   6.554  18.056  0.00  0.00    +0.000 C 
ENDBRANCH  22  24
ENDBRANCH  20  22
BRANCH  20  25
ATOM     25  O   UNL     1       5.067   3.283  19.084  0.00  0.00    +0.000 OA
BRANCH  25  26
ATOM     26  C   UNL     1       3.951   3.399  19.951  0.00  0.00    +0.000 C 
ATOM     27  C   UNL     1       2.965   2.306  19.588  0.00  0.00    +0.000 C 
ENDBRANCH  25  26
ENDBRANCH  20  25
ENDBRANCH  19  20
ENDBRANCH   1  19
TORSDOF 8
ENDMDL
MODEL 6
REMARK VINA RESULT:      -7.3      2.790      4.103
REMARK  Name = 
REMARK  11 active torsions:
REMARK  status: ('A' for Active; 'I' for Inactive)
REMARK    1  A    between atoms: C_1  and  C_2
REMARK    2  A    between atoms: C_2  and  O_3
REMARK    3  A    between atoms: O_3  and  P_4
REMARK    4  A    between atoms: P_4  and  C_6
REMARK    5  A    between atoms: P_4  and  O_25
REMARK    6  A    between atoms: C_6  and  C_7
REMARK    7  A    between atoms: C_10  and  C_11
REMARK    8  A    between atoms: C_13  and  O_14
REMARK    9  A    between atoms: O_14  and  C_15
REMARK   10  A    between atoms: O_25  and  C_26
REMARK   11  A    between atoms: C_26  and  C_27
REMARK                            x       y       z     vdW  Elec       q    Type
REMARK                         _______ _______ _______ _____ _____    ______ ____
ROOT
ATOM      1  C   UNL     1       3.004   6.411  19.240  0.00  0.00    +0.000 A 
ATOM      2  C   UNL     1       2.155   7.012  20.183  0.00  0.00    +0.000 A 
ATOM      3  C   UNL     1       1.500   8.246  19.943  0.00  0.00    +0.000 A 
ATOM      4  C   UNL     1       1.658   8.958  18.743  0.00  0.00    +0.000 A 
ATOM      5  C   UNL     1       2.453   8.332  17.776  0.00  0.00    +0.000 A 
ATOM      6  C   UNL     1       3.126   7.114  18.026  0.00  0.00    +0.000 A 
ENDROOT
BRANCH   4   7
ATOM      7  C   UNL     1       1.110  10.327  18.553  0.00  0.00    +0.000 A 
ATOM      8  N   UNL     1      -0.219  10.457  18.585  0.00  0.00    +0.000 NA
ATOM      9  C   UNL     1      -0.697  11.715  18.628  0.00  0.00    +0.000 A 
ATOM     10  C   UNL     1       0.091  12.858  18.722  0.00  0.00    +0.000 A 
ATOM     11  C   UNL     1      -0.400  14.177  18.936  0.00  0.00    +0.000 A 
ATOM     12  C   UNL     1       0.470  15.261  18.917  0.00  0.00    +0.000 A 
ATOM     13  C   UNL     1       1.815  15.037  18.652  0.00  0.00    +0.000 A 
ATOM     14  C   UNL     1       2.292  13.728  18.481  0.00  0.00    +0.000 A 
ATOM     15  C   UNL     1       1.453  12.617  18.556  0.00  0.00    +0.000 A 
ATOM     16  N   UNL     1       1.965  11.370  18.475  0.00  0.00    +0.000 NA
BRANCH   9  17
ATOM     17  O   UNL     1      -2.066  11.871  18.515  0.00  0.00    +0.000 OA
ATOM     18  C   UNL     1      -2.499  11.373  17.246  0.00  0.00    +0.000 C 
ENDBRANCH   9  17
ENDBRANCH   4   7
BRANCH   1  19
ATOM     19  C   UNL     1       3.939   5.187  19.442  0.00  0.00    +0.000 C 
BRANCH  19  20
ATOM     20  P   UNL     1       3.445   3.246  19.341  0.00  0.00    +0.000 P 
ATOM     21  O   UNL     1       4.726   2.469  19.692  0.00  0.00    +0.000 OA
BRANCH  20  22
ATOM     22  O   UNL     1       3.947   3.320  17.686  0.00  0.00    +0.000 OA
BRANCH  22  24
ATOM     23  C   UNL     1       5.629   4.169  16.148  0.00  0.00    +0.000 C 
ATOM     24  C   UNL     1       5.181   4.032  17.588  0.00  0.00    +0.000 C 
ENDBRANCH  22  24
ENDBRANCH  20  22
BRANCH  20  25
ATOM     25  O   UNL     1       2.945   3.173  20.995  0.00  0.00    +0.000 OA
BRANCH  25  26
ATOM     26  C   UNL     1       1.547   3.207  21.227  0.00  0.00    +0.000 C 
ATOM     27  C   UNL     1       0.851   3.181  19.879  0.00  0.00    +0.000 C 
ENDBRANCH  25  26
ENDBRANCH  20  25
ENDBRANCH  19  20
ENDBRANCH   1  19
TORSDOF 8
ENDMDL
MODEL 7
REMARK VINA RESULT:      -7.3      1.298      3.377
REMARK  Name = 
REMARK  11 active torsions:
REMARK  status: ('A' for Active; 'I' for Inactive)
REMARK    1  A    between atoms: C_1  and  C_2
REMARK    2  A    between atoms: C_2  and  O_3
REMARK    3  A    between atoms: O_3  and  P_4
REMARK    4  A    between atoms: P_4  and  C_6
REMARK    5  A    between atoms: P_4  and  O_25
REMARK    6  A    between atoms: C_6  and  C_7
REMARK    7  A    between atoms: C_10  and  C_11
REMARK    8  A    between atoms: C_13  and  O_14
REMARK    9  A    between atoms: O_14  and  C_15
REMARK   10  A    between atoms: O_25  and  C_26
REMARK   11  A    between atoms: C_26  and  C_27
REMARK                            x       y       z     vdW  Elec       q    Type
REMARK                         _______ _______ _______ _____ _____    ______ ____
ROOT
ATOM      1  C   UNL     1       3.948   5.789  18.011  0.00  0.00    +0.000 A 
ATOM      2  C   UNL     1       3.261   5.673  19.230  0.00  0.00    +0.000 A 
ATOM      3  C   UNL     1       2.428   6.702  19.737  0.00  0.00    +0.000 A 
ATOM      4  C   UNL     1       2.233   7.914  19.056  0.00  0.00    +0.000 A 
ATOM      5  C   UNL     1       2.865   8.008  17.810  0.00  0.00    +0.000 A 
ATOM      6  C   UNL     1       3.717   6.993  17.318  0.00  0.00    +0.000 A 
ENDROOT
BRANCH   4   7
ATOM      7  C   UNL     1       1.498   9.057  19.659  0.00  0.00    +0.000 A 
ATOM      8  N   UNL     1       1.163  10.060  18.843  0.00  0.00    +0.000 NA
ATOM      9  C   UNL     1       0.319  10.982  19.343  0.00  0.00    +0.000 A 
ATOM     10  C   UNL     1      -0.277  10.912  20.598  0.00  0.00    +0.000 A 
ATOM     11  C   UNL     1      -1.295  11.787  21.072  0.00  0.00    +0.000 A 
ATOM     12  C   UNL     1      -1.752  11.687  22.381  0.00  0.00    +0.000 A 
ATOM     13  C   UNL     1      -1.175  10.745  23.223  0.00  0.00    +0.000 A 
ATOM     14  C   UNL     1      -0.199   9.863  22.731  0.00  0.00    +0.000 A 
ATOM     15  C   UNL     1       0.235   9.900  21.407  0.00  0.00    +0.000 A 
ATOM     16  N   UNL     1       1.109   8.978  20.950  0.00  0.00    +0.000 NA
BRANCH   9  17
ATOM     17  O   UNL     1       0.078  12.100  18.565  0.00  0.00    +0.000 OA
ATOM     18  C   UNL     1       1.226  12.953  18.587  0.00  0.00    +0.000 C 
ENDBRANCH   9  17
ENDBRANCH   4   7
BRANCH   1  19
ATOM     19  C   UNL     1       5.043   4.847  17.440  0.00  0.00    +0.000 C 
BRANCH  19  20
ATOM     20  P   UNL     1       6.955   5.300  17.045  0.00  0.00    +0.000 P 
ATOM     21  O   UNL     1       6.919   6.265  15.848  0.00  0.00    +0.000 OA
BRANCH  20  22
ATOM     22  O   UNL     1       6.933   3.954  15.958  0.00  0.00    +0.000 OA
BRANCH  22  24
ATOM     23  C   UNL     1       6.029   3.851  13.703  0.00  0.00    +0.000 C 
ATOM     24  C   UNL     1       5.734   3.981  15.182  0.00  0.00    +0.000 C 
ENDBRANCH  22  24
ENDBRANCH  20  22
BRANCH  20  25
ATOM     25  O   UNL     1       6.977   6.645  18.132  0.00  0.00    +0.000 OA
BRANCH  25  26
ATOM     26  C   UNL     1       7.350   7.894  17.574  0.00  0.00    +0.000 C 
ATOM     27  C   UNL     1       8.458   8.474  18.432  0.00  0.00    +0.000 C 
ENDBRANCH  25  26
ENDBRANCH  20  25
ENDBRANCH  19  20
ENDBRANCH   1  19
TORSDOF 8
ENDMDL
MODEL 8
REMARK VINA RESULT:      -7.3      2.698      4.095
REMARK  Name = 
REMARK  11 active torsions:
REMARK  status: ('A' for Active; 'I' for Inactive)
REMARK    1  A    between atoms: C_1  and  C_2
REMARK    2  A    between atoms: C_2  and  O_3
REMARK    3  A    between atoms: O_3  and  P_4
REMARK    4  A    between atoms: P_4  and  C_6
REMARK    5  A    between atoms: P_4  and  O_25
REMARK    6  A    between atoms: C_6  and  C_7
REMARK    7  A    between atoms: C_10  and  C_11
REMARK    8  A    between atoms: C_13  and  O_14
REMARK    9  A    between atoms: O_14  and  C_15
REMARK   10  A    between atoms: O_25  and  C_26
REMARK   11  A    between atoms: C_26  and  C_27
REMARK                            x       y       z     vdW  Elec       q    Type
REMARK                         _______ _______ _______ _____ _____    ______ ____
ROOT
ATOM      1  C   UNL     1       3.134   6.223  19.008  0.00  0.00    +0.000 A 
ATOM      2  C   UNL     1       2.979   7.114  17.934  0.00  0.00    +0.000 A 
ATOM      3  C   UNL     1       2.187   8.287  18.024  0.00  0.00    +0.000 A 
ATOM      4  C   UNL     1       1.497   8.638  19.195  0.00  0.00    +0.000 A 
ATOM      5  C   UNL     1       1.699   7.786  20.287  0.00  0.00    +0.000 A 
ATOM      6  C   UNL     1       2.468   6.603  20.189  0.00  0.00    +0.000 A 
ENDROOT
BRANCH   4   7
ATOM      7  C   UNL     1       0.535   9.771  19.242  0.00  0.00    +0.000 A 
ATOM      8  N   UNL     1      -0.205   9.983  18.149  0.00  0.00    +0.000 NA
ATOM      9  C   UNL     1      -1.215  10.863  18.272  0.00  0.00    +0.000 A 
ATOM     10  C   UNL     1      -1.580  11.490  19.460  0.00  0.00    +0.000 A 
ATOM     11  C   UNL     1      -2.743  12.290  19.641  0.00  0.00    +0.000 A 
ATOM     12  C   UNL     1      -2.960  12.949  20.846  0.00  0.00    +0.000 A 
ATOM     13  C   UNL     1      -2.008  12.839  21.851  0.00  0.00    +0.000 A 
ATOM     14  C   UNL     1      -0.885  12.016  21.673  0.00  0.00    +0.000 A 
ATOM     15  C   UNL     1      -0.672  11.295  20.499  0.00  0.00    +0.000 A 
ATOM     16  N   UNL     1       0.372  10.446  20.401  0.00  0.00    +0.000 NA
BRANCH   9  17
ATOM     17  O   UNL     1      -1.896  11.203  17.118  0.00  0.00    +0.000 OA
ATOM     18  C   UNL     1      -2.393  10.017  16.491  0.00  0.00    +0.000 C 
ENDBRANCH   9  17
ENDBRANCH   4   7
BRANCH   1  19
ATOM     19  C   UNL     1       3.789   4.815  18.991  0.00  0.00    +0.000 C 
BRANCH  19  20
ATOM     20  P   UNL     1       3.419   3.314  17.715  0.00  0.00    +0.000 P 
ATOM     21  O   UNL     1       2.022   3.592  17.133  0.00  0.00    +0.000 OA
BRANCH  20  22
ATOM     22  O   UNL     1       2.695   2.498  19.058  0.00  0.00    +0.000 OA
BRANCH  22  24
ATOM     23  C   UNL     1       1.092   3.173  20.758  0.00  0.00    +0.000 C 
ATOM     24  C   UNL     1       1.381   3.010  19.281  0.00  0.00    +0.000 C 
ENDBRANCH  22  24
ENDBRANCH  20  22
BRANCH  20  25
ATOM     25  O   UNL     1       4.143   4.130  16.372  0.00  0.00    +0.000 OA
BRANCH  25  26
ATOM     26  C   UNL     1       5.560   4.174  16.357  0.00  0.00    +0.000 C 
ATOM     27  C   UNL     1       6.018   3.895  14.939  0.00  0.00    +0.000 C 
ENDBRANCH  25  26
ENDBRANCH  20  25
ENDBRANCH  19  20
ENDBRANCH   1  19
TORSDOF 8
ENDMDL
MODEL 9
REMARK VINA RESULT:      -7.2      2.218      3.706
REMARK  Name = 
REMARK  11 active torsions:
REMARK  status: ('A' for Active; 'I' for Inactive)
REMARK    1  A    between atoms: C_1  and  C_2
REMARK    2  A    between atoms: C_2  and  O_3
REMARK    3  A    between atoms: O_3  and  P_4
REMARK    4  A    between atoms: P_4  and  C_6
REMARK    5  A    between atoms: P_4  and  O_25
REMARK    6  A    between atoms: C_6  and  C_7
REMARK    7  A    between atoms: C_10  and  C_11
REMARK    8  A    between atoms: C_13  and  O_14
REMARK    9  A    between atoms: O_14  and  C_15
REMARK   10  A    between atoms: O_25  and  C_26
REMARK   11  A    between atoms: C_26  and  C_27
REMARK                            x       y       z     vdW  Elec       q    Type
REMARK                         _______ _______ _______ _____ _____    ______ ____
ROOT
ATOM      1  C   UNL     1       2.813   6.692  18.445  0.00  0.00    +0.000 A 
ATOM      2  C   UNL     1       2.598   7.855  17.688  0.00  0.00    +0.000 A 
ATOM      3  C   UNL     1       1.917   8.986  18.204  0.00  0.00    +0.000 A 
ATOM      4  C   UNL     1       1.406   9.023  19.511  0.00  0.00    +0.000 A 
ATOM      5  C   UNL     1       1.674   7.890  20.290  0.00  0.00    +0.000 A 
ATOM      6  C   UNL     1       2.330   6.752  19.766  0.00  0.00    +0.000 A 
ENDROOT
BRANCH   4   7
ATOM      7  C   UNL     1       0.549  10.135  20.000  0.00  0.00    +0.000 A 
ATOM      8  N   UNL     1       0.096  10.997  19.084  0.00  0.00    +0.000 NA
ATOM      9  C   UNL     1      -0.845  11.867  19.496  0.00  0.00    +0.000 A 
ATOM     10  C   UNL     1      -1.421  11.870  20.763  0.00  0.00    +0.000 A 
ATOM     11  C   UNL     1      -2.529  12.672  21.157  0.00  0.00    +0.000 A 
ATOM     12  C   UNL     1      -2.963  12.667  22.478  0.00  0.00    +0.000 A 
ATOM     13  C   UNL     1      -2.276  11.896  23.407  0.00  0.00    +0.000 A 
ATOM     14  C   UNL     1      -1.209  11.081  22.996  0.00  0.00    +0.000 A 
ATOM     15  C   UNL     1      -0.791  11.019  21.668  0.00  0.00    +0.000 A 
ATOM     16  N   UNL     1       0.180  10.157  21.299  0.00  0.00    +0.000 NA
BRANCH   9  17
ATOM     17  O   UNL     1      -1.217  12.857  18.605  0.00  0.00    +0.000 OA
ATOM     18  C   UNL     1      -0.179  13.838  18.521  0.00  0.00    +0.000 C 
ENDBRANCH   9  17
ENDBRANCH   4   7
BRANCH   1  19
ATOM     19  C   UNL     1       3.349   5.319  17.953  0.00  0.00    +0.000 C 
BRANCH  19  20
ATOM     20  P   UNL     1       5.040   4.400  18.511  0.00  0.00    +0.000 P 
ATOM     21  O   UNL     1       5.659   5.287  19.605  0.00  0.00    +0.000 OA
BRANCH  20  22
ATOM     22  O   UNL     1       5.826   5.352  17.298  0.00  0.00    +0.000 OA
BRANCH  22  24
ATOM     23  C   UNL     1       5.686   4.886  14.915  0.00  0.00    +0.000 C 
ATOM     24  C   UNL     1       6.294   4.504  16.249  0.00  0.00    +0.000 C 
ENDBRANCH  22  24
ENDBRANCH  20  22
BRANCH  20  25
ATOM     25  O   UNL     1       4.255   3.449  19.723  0.00  0.00    +0.000 OA
BRANCH  25  26
ATOM     26  C   UNL     1       3.103   2.734  19.308  0.00  0.00    +0.000 C 
ATOM     27  C   UNL     1       3.539   1.705  18.282  0.00  0.00    +0.000 C 
ENDBRANCH  25  26
ENDBRANCH  20  25
ENDBRANCH  19  20
ENDBRANCH   1  19
TORSDOF 8
ENDMDL
