MODEL 1
REMARK VINA RESULT:      -8.2      0.000      0.000
REMARK  Name = 
REMARK  8 active torsions:
REMARK  status: ('A' for Active; 'I' for Inactive)
REMARK    1  A    between atoms: C_1  and  O_2
REMARK    2  A    between atoms: O_2  and  C_3
REMARK    3  A    between atoms: C_8  and  O_9
REMARK    4  A    between atoms: O_9  and  C_10
REMARK    5  A    between atoms: C_13  and  C_14
REMARK    6  A    between atoms: C_14  and  C_15
REMARK    7  A    between atoms: N_18  and  C_19
REMARK    8  A    between atoms: C_19  and  C_20
REMARK                            x       y       z     vdW  Elec       q    Type
REMARK                         _______ _______ _______ _____ _____    ______ ____
ROOT
ATOM      1  C   UNL     1       3.222   6.361  17.412  0.00  0.00    +0.000 C 
ENDROOT
BRANCH   1  10
ATOM      2  C   UNL     1      -0.252  10.640  19.762  0.00  0.00    +0.000 A 
ATOM      3  C   UNL     1       0.591  10.412  18.658  0.00  0.00    +0.000 A 
ATOM      4  C   UNL     1       1.437   9.320  18.685  0.00  0.00    +0.000 A 
ATOM      5  C   UNL     1       1.449   8.501  19.799  0.00  0.00    +0.000 A 
ATOM      6  C   UNL     1       0.709   8.744  20.940  0.00  0.00    +0.000 A 
ATOM      7  C   UNL     1      -0.158   9.837  20.930  0.00  0.00    +0.000 A 
ATOM      8  C   UNL     1       2.320   7.371  19.528  0.00  0.00    +0.000 C 
ATOM      9  O   UNL     1       2.379   6.385  20.241  0.00  0.00    +0.000 OA
ATOM     10  C   UNL     1       3.101   7.638  18.252  0.00  0.00    +0.000 C 
ATOM     11  C   UNL     1       2.326   8.806  17.595  0.00  0.00    +0.000 C 
BRANCH   2  13
ATOM     12  C   UNL     1      -1.972  11.660  18.543  0.00  0.00    +0.000 C 
ATOM     13  O   UNL     1      -1.195  11.641  19.743  0.00  0.00    +0.000 OA
ENDBRANCH   2  13
BRANCH   7  14
ATOM     14  O   UNL     1      -0.976  10.164  21.985  0.00  0.00    +0.000 OA
ATOM     15  C   UNL     1      -0.467   9.909  23.292  0.00  0.00    +0.000 C 
ENDBRANCH   7  14
ENDBRANCH   1  10
BRANCH   1  16
ATOM     16  C   UNL     1       4.663   5.955  17.025  0.00  0.00    +0.000 C 
ATOM     17  C   UNL     1       4.797   4.572  16.387  0.00  0.00    +0.000 C 
ATOM     18  C   UNL     1       4.461   3.450  17.366  0.00  0.00    +0.000 C 
ATOM     19  N   UNL     1       5.271   3.497  18.597  0.00  0.00    +0.000 NA
ATOM     20  C   UNL     1       5.269   4.826  19.232  0.00  0.00    +0.000 C 
ATOM     21  C   UNL     1       5.581   5.969  18.259  0.00  0.00    +0.000 C 
BRANCH  19  22
ATOM     22  C   UNL     1       4.769   2.497  19.575  0.00  0.00    +0.000 C 
BRANCH  22  23
ATOM     23  C   UNL     1       3.315   2.694  19.970  0.00  0.00    +0.000 A 
ATOM     24  C   UNL     1       2.994   3.046  21.282  0.00  0.00    +0.000 A 
ATOM     25  C   UNL     1       1.656   3.117  21.653  0.00  0.00    +0.000 A 
ATOM     26  C   UNL     1       0.678   2.851  20.697  0.00  0.00    +0.000 A 
ATOM     27  C   UNL     1       1.084   2.518  19.417  0.00  0.00    +0.000 A 
ATOM     28  F   UNL     1       0.140   2.257  18.499  0.00  0.00    +0.000 F 
ATOM     29  N   UNL     1       2.371   2.431  19.028  0.00  0.00    +0.000 NA
ENDBRANCH  22  23
ENDBRANCH  19  22
ENDBRANCH   1  16
TORSDOF 6
ENDMDL
MODEL 2
REMARK VINA RESULT:      -8.0      0.927      1.209
REMARK  Name = 
REMARK  8 active torsions:
REMARK  status: ('A' for Active; 'I' for Inactive)
REMARK    1  A    between atoms: C_1  and  O_2
REMARK    2  A    between atoms: O_2  and  C_3
REMARK    3  A    between atoms: C_8  and  O_9
REMARK    4  A    between atoms: O_9  and  C_10
REMARK    5  A    between atoms: C_13  and  C_14
REMARK    6  A    between atoms: C_14  and  C_15
REMARK    7  A    between atoms: N_18  and  C_19
REMARK    8  A    between atoms: C_19  and  C_20
REMARK                            x       y       z     vdW  Elec       q    Type
REMARK                         _______ _______ _______ _____ _____    ______ ____
ROOT
ATOM      1  C   UNL     1       3.218   6.442  17.435  0.00  0.00    +0.000 C 
ENDROOT
BRANCH   1  10
ATOM      2  C   UNL     1      -0.343  10.648  19.784  0.00  0.00    +0.000 A 
ATOM      3  C   UNL     1       0.504  10.438  18.680  0.00  0.00    +0.000 A 
ATOM      4  C   UNL     1       1.372   9.363  18.708  0.00  0.00    +0.000 A 
ATOM      5  C   UNL     1       1.403   8.546  19.822  0.00  0.00    +0.000 A 
ATOM      6  C   UNL     1       0.658   8.774  20.963  0.00  0.00    +0.000 A 
ATOM      7  C   UNL     1      -0.232   9.848  20.953  0.00  0.00    +0.000 A 
ATOM      8  C   UNL     1       2.297   7.434  19.551  0.00  0.00    +0.000 C 
ATOM      9  O   UNL     1       2.376   6.449  20.264  0.00  0.00    +0.000 OA
ATOM     10  C   UNL     1       3.072   7.717  18.274  0.00  0.00    +0.000 C 
ATOM     11  C   UNL     1       2.272   8.868  17.617  0.00  0.00    +0.000 C 
BRANCH   2  13
ATOM     12  C   UNL     1      -1.839  11.871  18.461  0.00  0.00    +0.000 C 
ATOM     13  O   UNL     1      -1.307  11.630  19.766  0.00  0.00    +0.000 OA
ENDBRANCH   2  13
BRANCH   7  14
ATOM     14  O   UNL     1      -1.056  10.159  22.008  0.00  0.00    +0.000 OA
ATOM     15  C   UNL     1      -0.508  10.004  23.315  0.00  0.00    +0.000 C 
ENDBRANCH   7  14
ENDBRANCH   1  10
BRANCH   1  16
ATOM     16  C   UNL     1       4.669   6.053  17.068  0.00  0.00    +0.000 C 
ATOM     17  C   UNL     1       4.809   4.763  16.260  0.00  0.00    +0.000 C 
ATOM     18  C   UNL     1       4.403   3.531  17.066  0.00  0.00    +0.000 C 
ATOM     19  N   UNL     1       5.149   3.396  18.329  0.00  0.00    +0.000 NA
ATOM     20  C   UNL     1       5.141   4.630  19.133  0.00  0.00    +0.000 C 
ATOM     21  C   UNL     1       5.523   5.882  18.335  0.00  0.00    +0.000 C 
BRANCH  19  22
ATOM     22  C   UNL     1       4.579   2.290  19.142  0.00  0.00    +0.000 C 
BRANCH  22  23
ATOM     23  C   UNL     1       3.113   2.475  19.497  0.00  0.00    +0.000 A 
ATOM     24  C   UNL     1       2.163   2.592  18.481  0.00  0.00    +0.000 A 
ATOM     25  C   UNL     1       0.843   2.868  18.822  0.00  0.00    +0.000 A 
ATOM     26  C   UNL     1       0.510   3.004  20.167  0.00  0.00    +0.000 A 
ATOM     27  C   UNL     1       1.513   2.864  21.110  0.00  0.00    +0.000 A 
ATOM     28  F   UNL     1       1.191   3.000  22.405  0.00  0.00    +0.000 F 
ATOM     29  N   UNL     1       2.802   2.606  20.814  0.00  0.00    +0.000 NA
ENDBRANCH  22  23
ENDBRANCH  19  22
ENDBRANCH   1  16
TORSDOF 6
ENDMDL
MODEL 3
REMARK VINA RESULT:      -8.0      2.457      4.503
REMARK  Name = 
REMARK  8 active torsions:
REMARK  status: ('A' for Active; 'I' for Inactive)
REMARK    1  A    between atoms: C_1  and  O_2
REMARK    2  A    between atoms: O_2  and  C_3
REMARK    3  A    between atoms: C_8  and  O_9
REMARK    4  A    between atoms: O_9  and  C_10
REMARK    5  A    between atoms: C_13  and  C_14
REMARK    6  A    between atoms: C_14  and  C_15
REMARK    7  A    between atoms: N_18  and  C_19
REMARK    8  A    between atoms: C_19  and  C_20
REMARK                            x       y       z     vdW  Elec       q    Type
REMARK                         _______ _______ _______ _____ _____    ______ ____
ROOT
ATOM      1  C   UNL     1       2.570   5.740  20.280  0.00  0.00    +0.000 C 
ENDROOT
BRANCH   1  10
ATOM      2  C   UNL     1       0.779  11.437  20.761  0.00  0.00    +0.000 A 
ATOM      3  C   UNL     1       0.654  10.201  21.423  0.00  0.00    +0.000 A 
ATOM      4  C   UNL     1       1.032   9.052  20.756  0.00  0.00    +0.000 A 
ATOM      5  C   UNL     1       1.496   9.144  19.457  0.00  0.00    +0.000 A 
ATOM      6  C   UNL     1       1.544  10.324  18.740  0.00  0.00    +0.000 A 
ATOM      7  C   UNL     1       1.175  11.498  19.397  0.00  0.00    +0.000 A 
ATOM      8  C   UNL     1       1.939   7.828  19.033  0.00  0.00    +0.000 C 
ATOM      9  O   UNL     1       2.576   7.632  18.014  0.00  0.00    +0.000 OA
ATOM     10  C   UNL     1       1.482   6.796  20.052  0.00  0.00    +0.000 C 
ATOM     11  C   UNL     1       1.106   7.653  21.285  0.00  0.00    +0.000 C 
BRANCH   2  13
ATOM     12  C   UNL     1      -0.616  12.565  22.266  0.00  0.00    +0.000 C 
ATOM     13  O   UNL     1       0.529  12.623  21.412  0.00  0.00    +0.000 OA
ENDBRANCH   2  13
BRANCH   7  14
ATOM     14  O   UNL     1       1.214  12.740  18.810  0.00  0.00    +0.000 OA
ATOM     15  C   UNL     1       2.470  13.155  18.276  0.00  0.00    +0.000 C 
ENDBRANCH   7  14
ENDBRANCH   1  10
BRANCH   1  16
ATOM     16  C   UNL     1       2.155   4.283  19.966  0.00  0.00    +0.000 C 
ATOM     17  C   UNL     1       3.250   3.238  20.184  0.00  0.00    +0.000 C 
ATOM     18  C   UNL     1       4.406   3.400  19.199  0.00  0.00    +0.000 C 
ATOM     19  N   UNL     1       3.973   3.365  17.791  0.00  0.00    +0.000 NA
ATOM     20  C   UNL     1       2.856   4.282  17.513  0.00  0.00    +0.000 C 
ATOM     21  C   UNL     1       1.695   4.152  18.505  0.00  0.00    +0.000 C 
BRANCH  19  22
ATOM     22  C   UNL     1       5.112   3.710  16.900  0.00  0.00    +0.000 C 
BRANCH  22  23
ATOM     23  C   UNL     1       5.956   4.871  17.397  0.00  0.00    +0.000 A 
ATOM     24  C   UNL     1       5.774   6.144  16.855  0.00  0.00    +0.000 A 
ATOM     25  C   UNL     1       6.627   7.171  17.244  0.00  0.00    +0.000 A 
ATOM     26  C   UNL     1       7.626   6.898  18.175  0.00  0.00    +0.000 A 
ATOM     27  C   UNL     1       7.731   5.610  18.669  0.00  0.00    +0.000 A 
ATOM     28  F   UNL     1       8.698   5.348  19.562  0.00  0.00    +0.000 F 
ATOM     29  N   UNL     1       6.928   4.591  18.306  0.00  0.00    +0.000 NA
ENDBRANCH  22  23
ENDBRANCH  19  22
ENDBRANCH   1  16
TORSDOF 6
ENDMDL
MODEL 4
REMARK VINA RESULT:      -7.9      3.146      5.190
REMARK  Name = 
REMARK  8 active torsions:
REMARK  status: ('A' for Active; 'I' for Inactive)
REMARK    1  A    between atoms: C_1  and  O_2
REMARK    2  A    between atoms: O_2  and  C_3
REMARK    3  A    between atoms: C_8  and  O_9
REMARK    4  A    between atoms: O_9  and  C_10
REMARK    5  A    between atoms: C_13  and  C_14
REMARK    6  A    between atoms: C_14  and  C_15
REMARK    7  A    between atoms: N_18  and  C_19
REMARK    8  A    between atoms: C_19  and  C_20
REMARK                            x       y       z     vdW  Elec       q    Type
REMARK                         _______ _______ _______ _____ _____    ______ ____
ROOT
ATOM      1  C   UNL     1       3.419   6.670  18.165  0.00  0.00    +0.000 C 
ENDROOT
BRANCH   1  10
ATOM      2  C   UNL     1       0.344  10.630  21.444  0.00  0.00    +0.000 A 
ATOM      3  C   UNL     1       0.702   9.269  21.443  0.00  0.00    +0.000 A 
ATOM      4  C   UNL     1       1.210   8.720  20.281  0.00  0.00    +0.000 A 
ATOM      5  C   UNL     1       1.328   9.511  19.154  0.00  0.00    +0.000 A 
ATOM      6  C   UNL     1       0.899  10.822  19.087  0.00  0.00    +0.000 A 
ATOM      7  C   UNL     1       0.391  11.399  20.251  0.00  0.00    +0.000 A 
ATOM      8  C   UNL     1       1.995   8.739  18.120  0.00  0.00    +0.000 C 
ATOM      9  O   UNL     1       2.414   9.227  17.085  0.00  0.00    +0.000 OA
ATOM     10  C   UNL     1       2.069   7.284  18.553  0.00  0.00    +0.000 C 
ATOM     11  C   UNL     1       1.768   7.346  20.070  0.00  0.00    +0.000 C 
BRANCH   2  13
ATOM     12  C   UNL     1      -1.186  10.636  23.218  0.00  0.00    +0.000 C 
ATOM     13  O   UNL     1      -0.057  11.260  22.600  0.00  0.00    +0.000 OA
ENDBRANCH   2  13
BRANCH   7  14
ATOM     14  O   UNL     1      -0.032  12.704  20.327  0.00  0.00    +0.000 OA
ATOM     15  C   UNL     1       0.915  13.656  20.806  0.00  0.00    +0.000 C 
ENDBRANCH   7  14
ENDBRANCH   1  10
BRANCH   1  16
ATOM     16  C   UNL     1       3.582   5.167  18.488  0.00  0.00    +0.000 C 
ATOM     17  C   UNL     1       4.844   4.806  19.272  0.00  0.00    +0.000 C 
ATOM     18  C   UNL     1       6.115   5.038  18.457  0.00  0.00    +0.000 C 
ATOM     19  N   UNL     1       6.117   4.315  17.173  0.00  0.00    +0.000 NA
ATOM     20  C   UNL     1       4.890   4.537  16.390  0.00  0.00    +0.000 C 
ATOM     21  C   UNL     1       3.603   4.332  17.196  0.00  0.00    +0.000 C 
BRANCH  19  22
ATOM     22  C   UNL     1       7.289   4.729  16.358  0.00  0.00    +0.000 C 
BRANCH  22  23
ATOM     23  C   UNL     1       7.064   4.636  14.859  0.00  0.00    +0.000 A 
ATOM     24  C   UNL     1       6.234   3.639  14.342  0.00  0.00    +0.000 A 
ATOM     25  C   UNL     1       6.125   3.502  12.963  0.00  0.00    +0.000 A 
ATOM     26  C   UNL     1       6.834   4.374  12.141  0.00  0.00    +0.000 A 
ATOM     27  C   UNL     1       7.626   5.340  12.737  0.00  0.00    +0.000 A 
ATOM     28  F   UNL     1       8.313   6.176  11.943  0.00  0.00    +0.000 F 
ATOM     29  N   UNL     1       7.762   5.494  14.068  0.00  0.00    +0.000 NA
ENDBRANCH  22  23
ENDBRANCH  19  22
ENDBRANCH   1  16
TORSDOF 6
ENDMDL
MODEL 5
REMARK VINA RESULT:      -7.8      3.104      5.130
REMARK  Name = 
REMARK  8 active torsions:
REMARK  status: ('A' for Active; 'I' for Inactive)
REMARK    1  A    between atoms: C_1  and  O_2
REMARK    2  A    between atoms: O_2  and  C_3
REMARK    3  A    between atoms: C_8  and  O_9
REMARK    4  A    between atoms: O_9  and  C_10
REMARK    5  A    between atoms: C_13  and  C_14
REMARK    6  A    between atoms: C_14  and  C_15
REMARK    7  A    between atoms: N_18  and  C_19
REMARK    8  A    between atoms: C_19  and  C_20
REMARK                            x       y       z     vdW  Elec       q    Type
REMARK                         _______ _______ _______ _____ _____    ______ ____
ROOT
ATOM      1  C   UNL     1       3.087   5.885  19.729  0.00  0.00    +0.000 C 
ENDROOT
BRANCH   1  10
ATOM      2  C   UNL     1       0.440  11.073  21.134  0.00  0.00    +0.000 A 
ATOM      3  C   UNL     1       0.537   9.746  21.593  0.00  0.00    +0.000 A 
ATOM      4  C   UNL     1       1.066   8.790  20.747  0.00  0.00    +0.000 A 
ATOM      5  C   UNL     1       1.458   9.157  19.473  0.00  0.00    +0.000 A 
ATOM      6  C   UNL     1       1.291  10.425  18.953  0.00  0.00    +0.000 A 
ATOM      7  C   UNL     1       0.766  11.408  19.793  0.00  0.00    +0.000 A 
ATOM      8  C   UNL     1       2.086   8.011  18.839  0.00  0.00    +0.000 C 
ATOM      9  O   UNL     1       2.706   8.081  17.793  0.00  0.00    +0.000 OA
ATOM     10  C   UNL     1       1.838   6.774  19.687  0.00  0.00    +0.000 C 
ATOM     11  C   UNL     1       1.380   7.357  21.046  0.00  0.00    +0.000 C 
BRANCH   2  13
ATOM     12  C   UNL     1      -1.390  12.160  22.112  0.00  0.00    +0.000 C 
ATOM     13  O   UNL     1       0.031  12.088  21.969  0.00  0.00    +0.000 OA
ENDBRANCH   2  13
BRANCH   7  14
ATOM     14  O   UNL     1       0.587  12.715  19.410  0.00  0.00    +0.000 OA
ATOM     15  C   UNL     1       1.765  13.466  19.125  0.00  0.00    +0.000 C 
ENDBRANCH   7  14
ENDBRANCH   1  10
BRANCH   1  16
ATOM     16  C   UNL     1       2.938   4.500  19.060  0.00  0.00    +0.000 C 
ATOM     17  C   UNL     1       4.135   3.565  19.232  0.00  0.00    +0.000 C 
ATOM     18  C   UNL     1       5.376   4.076  18.503  0.00  0.00    +0.000 C 
ATOM     19  N   UNL     1       5.145   4.310  17.066  0.00  0.00    +0.000 NA
ATOM     20  C   UNL     1       3.952   5.133  16.805  0.00  0.00    +0.000 C 
ATOM     21  C   UNL     1       2.701   4.649  17.547  0.00  0.00    +0.000 C 
BRANCH  19  22
ATOM     22  C   UNL     1       6.329   4.976  16.462  0.00  0.00    +0.000 C 
BRANCH  22  23
ATOM     23  C   UNL     1       6.480   4.734  14.970  0.00  0.00    +0.000 A 
ATOM     24  C   UNL     1       5.782   3.689  14.362  0.00  0.00    +0.000 A 
ATOM     25  C   UNL     1       6.015   3.415  13.019  0.00  0.00    +0.000 A 
ATOM     26  C   UNL     1       6.924   4.204  12.319  0.00  0.00    +0.000 A 
ATOM     27  C   UNL     1       7.565   5.226  12.996  0.00  0.00    +0.000 A 
ATOM     28  F   UNL     1       8.445   5.981  12.321  0.00  0.00    +0.000 F 
ATOM     29  N   UNL     1       7.371   5.512  14.299  0.00  0.00    +0.000 NA
ENDBRANCH  22  23
ENDBRANCH  19  22
ENDBRANCH   1  16
TORSDOF 6
ENDMDL
MODEL 6
REMARK VINA RESULT:      -7.6      4.519      8.929
REMARK  Name = 
REMARK  8 active torsions:
REMARK  status: ('A' for Active; 'I' for Inactive)
REMARK    1  A    between atoms: C_1  and  O_2
REMARK    2  A    between atoms: O_2  and  C_3
REMARK    3  A    between atoms: C_8  and  O_9
REMARK    4  A    between atoms: O_9  and  C_10
REMARK    5  A    between atoms: C_13  and  C_14
REMARK    6  A    between atoms: C_14  and  C_15
REMARK    7  A    between atoms: N_18  and  C_19
REMARK    8  A    between atoms: C_19  and  C_20
REMARK                            x       y       z     vdW  Elec       q    Type
REMARK                         _______ _______ _______ _____ _____    ______ ____
ROOT
ATOM      1  C   UNL     1       1.529   9.587  19.433  0.00  0.00    +0.000 C 
ENDROOT
BRANCH   1  10
ATOM      2  C   UNL     1       5.212   5.119  17.894  0.00  0.00    +0.000 A 
ATOM      3  C   UNL     1       4.646   6.292  17.359  0.00  0.00    +0.000 A 
ATOM      4  C   UNL     1       3.586   6.878  18.023  0.00  0.00    +0.000 A 
ATOM      5  C   UNL     1       3.097   6.287  19.173  0.00  0.00    +0.000 A 
ATOM      6  C   UNL     1       3.561   5.087  19.677  0.00  0.00    +0.000 A 
ATOM      7  C   UNL     1       4.637   4.482  19.027  0.00  0.00    +0.000 A 
ATOM      8  C   UNL     1       2.080   7.155  19.738  0.00  0.00    +0.000 C 
ATOM      9  O   UNL     1       1.609   7.000  20.851  0.00  0.00    +0.000 OA
ATOM     10  C   UNL     1       1.734   8.240  18.730  0.00  0.00    +0.000 C 
ATOM     11  C   UNL     1       2.906   8.178  17.721  0.00  0.00    +0.000 C 
BRANCH   2  13
ATOM     12  C   UNL     1       6.142   4.096  16.004  0.00  0.00    +0.000 C 
ATOM     13  O   UNL     1       6.340   4.556  17.344  0.00  0.00    +0.000 OA
ENDBRANCH   2  13
BRANCH   7  14
ATOM     14  O   UNL     1       5.215   3.309  19.449  0.00  0.00    +0.000 OA
ATOM     15  C   UNL     1       4.329   2.277  19.874  0.00  0.00    +0.000 C 
ENDBRANCH   7  14
ENDBRANCH   1  10
BRANCH   1  16
ATOM     16  C   UNL     1       0.827  10.676  18.587  0.00  0.00    +0.000 C 
ATOM     17  C   UNL     1       1.334  12.100  18.816  0.00  0.00    +0.000 C 
ATOM     18  C   UNL     1       1.011  12.609  20.220  0.00  0.00    +0.000 C 
ATOM     19  N   UNL     1      -0.427  12.547  20.539  0.00  0.00    +0.000 NA
ATOM     20  C   UNL     1      -1.018  11.227  20.261  0.00  0.00    +0.000 C 
ATOM     21  C   UNL     1      -0.685  10.689  18.865  0.00  0.00    +0.000 C 
BRANCH  19  22
ATOM     22  C   UNL     1      -0.645  12.880  21.971  0.00  0.00    +0.000 C 
BRANCH  22  23
ATOM     23  C   UNL     1      -2.105  13.070  22.346  0.00  0.00    +0.000 A 
ATOM     24  C   UNL     1      -2.878  14.016  21.670  0.00  0.00    +0.000 A 
ATOM     25  C   UNL     1      -4.180  14.252  22.098  0.00  0.00    +0.000 A 
ATOM     26  C   UNL     1      -4.676  13.524  23.176  0.00  0.00    +0.000 A 
ATOM     27  C   UNL     1      -3.845  12.599  23.783  0.00  0.00    +0.000 A 
ATOM     28  F   UNL     1      -4.324  11.902  24.825  0.00  0.00    +0.000 F 
ATOM     29  N   UNL     1      -2.577  12.353  23.400  0.00  0.00    +0.000 NA
ENDBRANCH  22  23
ENDBRANCH  19  22
ENDBRANCH   1  16
TORSDOF 6
ENDMDL
MODEL 7
REMARK VINA RESULT:      -7.6      2.680      4.566
REMARK  Name = 
REMARK  8 active torsions:
REMARK  status: ('A' for Active; 'I' for Inactive)
REMARK    1  A    between atoms: C_1  and  O_2
REMARK    2  A    between atoms: O_2  and  C_3
REMARK    3  A    between atoms: C_8  and  O_9
REMARK    4  A    between atoms: O_9  and  C_10
REMARK    5  A    between atoms: C_13  and  C_14
REMARK    6  A    between atoms: C_14  and  C_15
REMARK    7  A    between atoms: N_18  and  C_19
REMARK    8  A    between atoms: C_19  and  C_20
REMARK                            x       y       z     vdW  Elec       q    Type
REMARK                         _______ _______ _______ _____ _____    ______ ____
ROOT
ATOM      1  C   UNL     1       3.017   5.749  19.723  0.00  0.00    +0.000 C 
ENDROOT
BRANCH   1  10
ATOM      2  C   UNL     1       0.701  11.152  20.880  0.00  0.00    +0.000 A 
ATOM      3  C   UNL     1       0.735   9.851  21.414  0.00  0.00    +0.000 A 
ATOM      4  C   UNL     1       1.188   8.819  20.613  0.00  0.00    +0.000 A 
ATOM      5  C   UNL     1       1.568   9.089  19.312  0.00  0.00    +0.000 A 
ATOM      6  C   UNL     1       1.458  10.332  18.722  0.00  0.00    +0.000 A 
ATOM      7  C   UNL     1       1.012  11.390  19.514  0.00  0.00    +0.000 A 
ATOM      8  C   UNL     1       2.114   7.874  18.733  0.00  0.00    +0.000 C 
ATOM      9  O   UNL     1       2.710   7.848  17.670  0.00  0.00    +0.000 OA
ATOM     10  C   UNL     1       1.819   6.704  19.657  0.00  0.00    +0.000 C 
ATOM     11  C   UNL     1       1.429   7.389  20.989  0.00  0.00    +0.000 C 
BRANCH   2  13
ATOM     12  C   UNL     1      -0.799  12.020  22.456  0.00  0.00    +0.000 C 
ATOM     13  O   UNL     1       0.371  12.236  21.662  0.00  0.00    +0.000 OA
ENDBRANCH   2  13
BRANCH   7  14
ATOM     14  O   UNL     1       0.896  12.682  19.059  0.00  0.00    +0.000 OA
ATOM     15  C   UNL     1       2.112  13.381  18.802  0.00  0.00    +0.000 C 
ENDBRANCH   7  14
ENDBRANCH   1  10
BRANCH   1  16
ATOM     16  C   UNL     1       2.739   4.304  19.250  0.00  0.00    +0.000 C 
ATOM     17  C   UNL     1       3.883   3.316  19.482  0.00  0.00    +0.000 C 
ATOM     18  C   UNL     1       5.107   3.641  18.629  0.00  0.00    +0.000 C 
ATOM     19  N   UNL     1       4.806   3.706  17.188  0.00  0.00    +0.000 NA
ATOM     20  C   UNL     1       3.654   4.571  16.883  0.00  0.00    +0.000 C 
ATOM     21  C   UNL     1       2.421   4.276  17.746  0.00  0.00    +0.000 C 
BRANCH  19  22
ATOM     22  C   UNL     1       5.991   4.203  16.442  0.00  0.00    +0.000 C 
BRANCH  22  23
ATOM     23  C   UNL     1       6.818   5.225  17.205  0.00  0.00    +0.000 A 
ATOM     24  C   UNL     1       7.526   4.834  18.342  0.00  0.00    +0.000 A 
ATOM     25  C   UNL     1       8.189   5.803  19.088  0.00  0.00    +0.000 A 
ATOM     26  C   UNL     1       8.138   7.129  18.667  0.00  0.00    +0.000 A 
ATOM     27  C   UNL     1       7.420   7.427  17.522  0.00  0.00    +0.000 A 
ATOM     28  F   UNL     1       7.367   8.707  17.120  0.00  0.00    +0.000 F 
ATOM     29  N   UNL     1       6.759   6.516  16.782  0.00  0.00    +0.000 NA
ENDBRANCH  22  23
ENDBRANCH  19  22
ENDBRANCH   1  16
TORSDOF 6
ENDMDL
MODEL 8
REMARK VINA RESULT:      -7.5      2.897      4.728
REMARK  Name = 
REMARK  8 active torsions:
REMARK  status: ('A' for Active; 'I' for Inactive)
REMARK    1  A    between atoms: C_1  and  O_2
REMARK    2  A    between atoms: O_2  and  C_3
REMARK    3  A    between atoms: C_8  and  O_9
REMARK    4  A    between atoms: O_9  and  C_10
REMARK    5  A    between atoms: C_13  and  C_14
REMARK    6  A    between atoms: C_14  and  C_15
REMARK    7  A    between atoms: N_18  and  C_19
REMARK    8  A    between atoms: C_19  and  C_20
REMARK                            x       y       z     vdW  Elec       q    Type
REMARK                         _______ _______ _______ _____ _____    ______ ____
ROOT
ATOM      1  C   UNL     1       2.546   5.801  17.901  0.00  0.00    +0.000 C 
ENDROOT
BRANCH   1  10
ATOM      2  C   UNL     1       0.510  11.102  19.812  0.00  0.00    +0.000 A 
ATOM      3  C   UNL     1       1.278  10.546  18.772  0.00  0.00    +0.000 A 
ATOM      4  C   UNL     1       1.736   9.250  18.907  0.00  0.00    +0.000 A 
ATOM      5  C   UNL     1       1.451   8.548  20.063  0.00  0.00    +0.000 A 
ATOM      6  C   UNL     1       0.785   9.089  21.145  0.00  0.00    +0.000 A 
ATOM      7  C   UNL     1       0.306  10.394  21.027  0.00  0.00    +0.000 A 
ATOM      8  C   UNL     1       1.933   7.188  19.904  0.00  0.00    +0.000 C 
ATOM      9  O   UNL     1       1.653   6.284  20.673  0.00  0.00    +0.000 OA
ATOM     10  C   UNL     1       2.803   7.108  18.661  0.00  0.00    +0.000 C 
ATOM     11  C   UNL     1       2.457   8.410  17.898  0.00  0.00    +0.000 C 
BRANCH   2  13
ATOM     12  C   UNL     1      -0.928  12.449  18.546  0.00  0.00    +0.000 C 
ATOM     13  O   UNL     1      -0.070  12.343  19.686  0.00  0.00    +0.000 OA
ENDBRANCH   2  13
BRANCH   7  14
ATOM     14  O   UNL     1      -0.405  11.033  22.015  0.00  0.00    +0.000 OA
ATOM     15  C   UNL     1      -0.836  10.231  23.112  0.00  0.00    +0.000 C 
ENDBRANCH   7  14
ENDBRANCH   1  10
BRANCH   1  16
ATOM     16  C   UNL     1       3.249   4.550  18.478  0.00  0.00    +0.000 C 
ATOM     17  C   UNL     1       4.504   4.835  19.303  0.00  0.00    +0.000 C 
ATOM     18  C   UNL     1       5.637   5.404  18.452  0.00  0.00    +0.000 C 
ATOM     19  N   UNL     1       5.991   4.540  17.311  0.00  0.00    +0.000 NA
ATOM     20  C   UNL     1       4.822   4.143  16.510  0.00  0.00    +0.000 C 
ATOM     21  C   UNL     1       3.664   3.591  17.350  0.00  0.00    +0.000 C 
BRANCH  19  22
ATOM     22  C   UNL     1       6.964   5.236  16.429  0.00  0.00    +0.000 C 
BRANCH  22  23
ATOM     23  C   UNL     1       6.853   4.853  14.963  0.00  0.00    +0.000 A 
ATOM     24  C   UNL     1       6.097   3.739  14.592  0.00  0.00    +0.000 A 
ATOM     25  C   UNL     1       6.094   3.341  13.260  0.00  0.00    +0.000 A 
ATOM     26  C   UNL     1       6.832   4.077  12.336  0.00  0.00    +0.000 A 
ATOM     27  C   UNL     1       7.545   5.173  12.787  0.00  0.00    +0.000 A 
ATOM     28  F   UNL     1       8.259   5.878  11.896  0.00  0.00    +0.000 F 
ATOM     29  N   UNL     1       7.577   5.580  14.071  0.00  0.00    +0.000 NA
ENDBRANCH  22  23
ENDBRANCH  19  22
ENDBRANCH   1  16
TORSDOF 6
ENDMDL
MODEL 9
REMARK VINA RESULT:      -7.5      2.645      4.369
REMARK  Name = 
REMARK  8 active torsions:
REMARK  status: ('A' for Active; 'I' for Inactive)
REMARK    1  A    between atoms: C_1  and  O_2
REMARK    2  A    between atoms: O_2  and  C_3
REMARK    3  A    between atoms: C_8  and  O_9
REMARK    4  A    between atoms: O_9  and  C_10
REMARK    5  A    between atoms: C_13  and  C_14
REMARK    6  A    between atoms: C_14  and  C_15
REMARK    7  A    between atoms: N_18  and  C_19
REMARK    8  A    between atoms: C_19  and  C_20
REMARK                            x       y       z     vdW  Elec       q    Type
REMARK                         _______ _______ _______ _____ _____    ______ ____
ROOT
ATOM      1  C   UNL     1       1.981   4.675  18.379  0.00  0.00    +0.000 C 
ENDROOT
BRANCH   1  10
ATOM      2  C   UNL     1       1.018  10.413  19.807  0.00  0.00    +0.000 A 
ATOM      3  C   UNL     1       1.538   9.629  18.760  0.00  0.00    +0.000 A 
ATOM      4  C   UNL     1       1.823   8.300  19.008  0.00  0.00    +0.000 A 
ATOM      5  C   UNL     1       1.616   7.788  20.275  0.00  0.00    +0.000 A 
ATOM      6  C   UNL     1       1.199   8.547  21.352  0.00  0.00    +0.000 A 
ATOM      7  C   UNL     1       0.897   9.889  21.122  0.00  0.00    +0.000 A 
ATOM      8  C   UNL     1       1.871   6.359  20.240  0.00  0.00    +0.000 C 
ATOM      9  O   UNL     1       1.583   5.605  21.152  0.00  0.00    +0.000 OA
ATOM     10  C   UNL     1       2.529   6.003  18.917  0.00  0.00    +0.000 C 
ATOM     11  C   UNL     1       2.262   7.248  18.037  0.00  0.00    +0.000 C 
BRANCH   2  13
ATOM     12  C   UNL     1      -0.676  11.794  18.965  0.00  0.00    +0.000 C 
ATOM     13  O   UNL     1       0.607  11.709  19.591  0.00  0.00    +0.000 OA
ENDBRANCH   2  13
BRANCH   7  14
ATOM     14  O   UNL     1       0.437  10.740  22.098  0.00  0.00    +0.000 OA
ATOM     15  C   UNL     1      -0.494  10.198  23.032  0.00  0.00    +0.000 C 
ENDBRANCH   7  14
ENDBRANCH   1  10
BRANCH   1  16
ATOM     16  C   UNL     1       2.851   3.431  18.673  0.00  0.00    +0.000 C 
ATOM     17  C   UNL     1       4.153   3.714  19.422  0.00  0.00    +0.000 C 
ATOM     18  C   UNL     1       5.135   4.530  18.584  0.00  0.00    +0.000 C 
ATOM     19  N   UNL     1       5.447   3.901  17.288  0.00  0.00    +0.000 NA
ATOM     20  C   UNL     1       4.242   3.513  16.536  0.00  0.00    +0.000 C 
ATOM     21  C   UNL     1       3.233   2.714  17.367  0.00  0.00    +0.000 C 
BRANCH  19  22
ATOM     22  C   UNL     1       6.256   4.829  16.454  0.00  0.00    +0.000 C 
BRANCH  22  23
ATOM     23  C   UNL     1       7.081   5.821  17.257  0.00  0.00    +0.000 A 
ATOM     24  C   UNL     1       7.707   5.411  18.435  0.00  0.00    +0.000 A 
ATOM     25  C   UNL     1       8.367   6.356  19.212  0.00  0.00    +0.000 A 
ATOM     26  C   UNL     1       8.397   7.680  18.780  0.00  0.00    +0.000 A 
ATOM     27  C   UNL     1       7.758   7.999  17.595  0.00  0.00    +0.000 A 
ATOM     28  F   UNL     1       7.783   9.276  17.183  0.00  0.00    +0.000 F 
ATOM     29  N   UNL     1       7.101   7.110  16.824  0.00  0.00    +0.000 NA
ENDBRANCH  22  23
ENDBRANCH  19  22
ENDBRANCH   1  16
TORSDOF 6
ENDMDL
