MODEL 1
REMARK VINA RESULT:      -7.4      0.000      0.000
REMARK  Name = 
REMARK  9 active torsions:
REMARK  status: ('A' for Active; 'I' for Inactive)
REMARK    1  A    between atoms: C_1  and  O_2
REMARK    2  A    between atoms: O_2  and  C_3
REMARK    3  A    between atoms: C_5  and  O_6
REMARK    4  A    between atoms: O_6  and  C_7
REMARK    5  A    between atoms: C_8  and  C_9
REMARK    6  A    between atoms: C_13  and  O_14
REMARK    7  A    between atoms: C_13  and  C_15
REMARK    8  A    between atoms: C_23  and  O_24
REMARK    9  A    between atoms: O_24  and  C_25
REMARK                            x       y       z     vdW  Elec       q    Type
REMARK                         _______ _______ _______ _____ _____    ______ ____
ROOT
ATOM      1  C   UNL     1       2.628   4.047  17.848  0.00  0.00    +0.000 C 
ATOM      2  O   UNL     1       1.812   3.141  17.691  0.00  0.00    +0.000 OA
ATOM      3  N   UNL     1       3.810   4.098  17.166  0.00  0.00    +0.000 N 
ATOM      4  C   UNL     1       4.305   3.164  16.164  0.00  0.00    +0.000 C 
ATOM      5  C   UNL     1       5.523   4.151  16.040  0.00  0.00    +0.000 C 
ATOM      6  C   UNL     1       4.483   5.225  16.521  0.00  0.00    +0.000 C 
ENDROOT
BRANCH   1  10
ATOM      7  C   UNL     1       1.775   7.384  20.420  0.00  0.00    +0.000 A 
ATOM      8  C   UNL     1       1.518   6.080  20.871  0.00  0.00    +0.000 A 
ATOM      9  C   UNL     1       1.797   4.953  20.086  0.00  0.00    +0.000 A 
ATOM     10  C   UNL     1       2.320   5.149  18.799  0.00  0.00    +0.000 A 
ATOM     11  C   UNL     1       2.484   6.452  18.311  0.00  0.00    +0.000 A 
ATOM     12  C   UNL     1       2.222   7.575  19.107  0.00  0.00    +0.000 A 
BRANCH   7  14
ATOM     13  C   UNL     1       0.201   8.864  21.406  0.00  0.00    +0.000 C 
ATOM     14  O   UNL     1       1.564   8.465  21.237  0.00  0.00    +0.000 OA
ENDBRANCH   7  14
BRANCH   9  15
ATOM     15  O   UNL     1       1.569   3.673  20.518  0.00  0.00    +0.000 OA
ATOM     16  C   UNL     1       2.364   3.197  21.600  0.00  0.00    +0.000 C 
ENDBRANCH   9  15
BRANCH  12  17
ATOM     17  O   UNL     1       2.480   8.742  18.442  0.00  0.00    +0.000 OA
ATOM     18  C   UNL     1       1.405   9.465  17.868  0.00  0.00    +0.000 C 
ENDBRANCH  12  17
ENDBRANCH   1  10
BRANCH   5  19
ATOM     19  C   UNL     1       6.175   4.337  14.587  0.00  0.00    +0.000 A 
ATOM     20  C   UNL     1       7.271   5.201  14.384  0.00  0.00    +0.000 A 
ATOM     21  C   UNL     1       7.918   5.305  13.149  0.00  0.00    +0.000 A 
ATOM     22  C   UNL     1       7.488   4.538  12.075  0.00  0.00    +0.000 A 
ATOM     23  C   UNL     1       6.406   3.683  12.229  0.00  0.00    +0.000 A 
ATOM     24  C   UNL     1       5.763   3.581  13.471  0.00  0.00    +0.000 A 
ENDBRANCH   5  19
BRANCH   5  25
ATOM     25  O   UNL     1       6.592   3.924  17.011  0.00  0.00    +0.000 OA
ATOM     26  H   UNL     1       6.286   3.151  17.525  0.00  0.00    +0.000 HD
ENDBRANCH   5  25
TORSDOF 6
ENDMDL
MODEL 2
REMARK VINA RESULT:      -7.3      0.465      1.066
REMARK  Name = 
REMARK  9 active torsions:
REMARK  status: ('A' for Active; 'I' for Inactive)
REMARK    1  A    between atoms: C_1  and  O_2
REMARK    2  A    between atoms: O_2  and  C_3
REMARK    3  A    between atoms: C_5  and  O_6
REMARK    4  A    between atoms: O_6  and  C_7
REMARK    5  A    between atoms: C_8  and  C_9
REMARK    6  A    between atoms: C_13  and  O_14
REMARK    7  A    between atoms: C_13  and  C_15
REMARK    8  A    between atoms: C_23  and  O_24
REMARK    9  A    between atoms: O_24  and  C_25
REMARK                            x       y       z     vdW  Elec       q    Type
REMARK                         _______ _______ _______ _____ _____    ______ ____
ROOT
ATOM      1  C   UNL     1       2.825   4.191  17.685  0.00  0.00    +0.000 C 
ATOM      2  O   UNL     1       1.985   3.313  17.503  0.00  0.00    +0.000 OA
ATOM      3  N   UNL     1       4.029   4.203  17.039  0.00  0.00    +0.000 N 
ATOM      4  C   UNL     1       4.522   3.254  16.051  0.00  0.00    +0.000 C 
ATOM      5  C   UNL     1       5.776   4.200  15.965  0.00  0.00    +0.000 C 
ATOM      6  C   UNL     1       4.757   5.308  16.418  0.00  0.00    +0.000 C 
ENDROOT
BRANCH   1  10
ATOM      7  C   UNL     1       1.943   7.545  20.226  0.00  0.00    +0.000 A 
ATOM      8  C   UNL     1       1.959   6.250  20.770  0.00  0.00    +0.000 A 
ATOM      9  C   UNL     1       2.262   5.123  19.995  0.00  0.00    +0.000 A 
ATOM     10  C   UNL     1       2.526   5.301  18.629  0.00  0.00    +0.000 A 
ATOM     11  C   UNL     1       2.414   6.579  18.066  0.00  0.00    +0.000 A 
ATOM     12  C   UNL     1       2.130   7.707  18.849  0.00  0.00    +0.000 A 
BRANCH   7  14
ATOM     13  C   UNL     1       0.373   8.818  21.472  0.00  0.00    +0.000 C 
ATOM     14  O   UNL     1       1.718   8.638  21.021  0.00  0.00    +0.000 OA
ENDBRANCH   7  14
BRANCH   9  15
ATOM     15  O   UNL     1       2.299   3.855  20.514  0.00  0.00    +0.000 OA
ATOM     16  C   UNL     1       1.054   3.245  20.841  0.00  0.00    +0.000 C 
ENDBRANCH   9  15
BRANCH  12  17
ATOM     17  O   UNL     1       2.099   8.851  18.100  0.00  0.00    +0.000 OA
ATOM     18  C   UNL     1       0.858   9.490  17.861  0.00  0.00    +0.000 C 
ENDBRANCH  12  17
ENDBRANCH   1  10
BRANCH   5  19
ATOM     19  C   UNL     1       6.477   4.366  14.533  0.00  0.00    +0.000 A 
ATOM     20  C   UNL     1       6.020   3.647  13.410  0.00  0.00    +0.000 A 
ATOM     21  C   UNL     1       6.551   3.848  12.131  0.00  0.00    +0.000 A 
ATOM     22  C   UNL     1       7.557   4.784  11.938  0.00  0.00    +0.000 A 
ATOM     23  C   UNL     1       8.044   5.506  13.020  0.00  0.00    +0.000 A 
ATOM     24  C   UNL     1       7.505   5.301  14.299  0.00  0.00    +0.000 A 
ENDBRANCH   5  19
BRANCH   5  25
ATOM     25  O   UNL     1       6.806   3.937  16.967  0.00  0.00    +0.000 OA
ATOM     26  H   UNL     1       7.605   4.371  16.608  0.00  0.00    +0.000 HD
ENDBRANCH   5  25
TORSDOF 6
ENDMDL
MODEL 3
REMARK VINA RESULT:      -7.3      2.302      7.412
REMARK  Name = 
REMARK  9 active torsions:
REMARK  status: ('A' for Active; 'I' for Inactive)
REMARK    1  A    between atoms: C_1  and  O_2
REMARK    2  A    between atoms: O_2  and  C_3
REMARK    3  A    between atoms: C_5  and  O_6
REMARK    4  A    between atoms: O_6  and  C_7
REMARK    5  A    between atoms: C_8  and  C_9
REMARK    6  A    between atoms: C_13  and  O_14
REMARK    7  A    between atoms: C_13  and  C_15
REMARK    8  A    between atoms: C_23  and  O_24
REMARK    9  A    between atoms: O_24  and  C_25
REMARK                            x       y       z     vdW  Elec       q    Type
REMARK                         _______ _______ _______ _____ _____    ______ ____
ROOT
ATOM      1  C   UNL     1       3.359   6.226  18.865  0.00  0.00    +0.000 C 
ATOM      2  O   UNL     1       3.335   5.697  19.974  0.00  0.00    +0.000 OA
ATOM      3  N   UNL     1       2.637   7.347  18.570  0.00  0.00    +0.000 N 
ATOM      4  C   UNL     1       1.765   8.108  19.455  0.00  0.00    +0.000 C 
ATOM      5  C   UNL     1       1.592   9.079  18.230  0.00  0.00    +0.000 C 
ATOM      6  C   UNL     1       3.015   8.548  17.826  0.00  0.00    +0.000 C 
ENDROOT
BRANCH   1  10
ATOM      7  C   UNL     1       6.014   4.699  15.849  0.00  0.00    +0.000 A 
ATOM      8  C   UNL     1       4.809   4.029  16.113  0.00  0.00    +0.000 A 
ATOM      9  C   UNL     1       3.895   4.493  17.069  0.00  0.00    +0.000 A 
ATOM     10  C   UNL     1       4.219   5.646  17.799  0.00  0.00    +0.000 A 
ATOM     11  C   UNL     1       5.463   6.259  17.605  0.00  0.00    +0.000 A 
ATOM     12  C   UNL     1       6.366   5.803  16.634  0.00  0.00    +0.000 A 
BRANCH   7  14
ATOM     13  C   UNL     1       6.234   3.918  13.617  0.00  0.00    +0.000 C 
ATOM     14  O   UNL     1       6.855   4.267  14.857  0.00  0.00    +0.000 OA
ENDBRANCH   7  14
BRANCH   9  15
ATOM     15  O   UNL     1       2.707   3.860  17.326  0.00  0.00    +0.000 OA
ATOM     16  C   UNL     1       2.768   2.504  17.758  0.00  0.00    +0.000 C 
ENDBRANCH   9  15
BRANCH  12  17
ATOM     17  O   UNL     1       7.500   6.566  16.596  0.00  0.00    +0.000 OA
ATOM     18  C   UNL     1       7.649   7.635  17.515  0.00  0.00    +0.000 C 
ENDBRANCH  12  17
ENDBRANCH   1  10
BRANCH   5  19
ATOM     19  C   UNL     1       1.439  10.644  18.546  0.00  0.00    +0.000 A 
ATOM     20  C   UNL     1       2.366  11.583  18.051  0.00  0.00    +0.000 A 
ATOM     21  C   UNL     1       2.199  12.960  18.230  0.00  0.00    +0.000 A 
ATOM     22  C   UNL     1       1.089  13.440  18.910  0.00  0.00    +0.000 A 
ATOM     23  C   UNL     1       0.157  12.548  19.424  0.00  0.00    +0.000 A 
ATOM     24  C   UNL     1       0.329  11.169  19.238  0.00  0.00    +0.000 A 
ENDBRANCH   5  19
BRANCH   5  25
ATOM     25  O   UNL     1       0.553   8.685  17.282  0.00  0.00    +0.000 OA
ATOM     26  H   UNL     1      -0.231   8.521  17.843  0.00  0.00    +0.000 HD
ENDBRANCH   5  25
TORSDOF 6
ENDMDL
MODEL 4
REMARK VINA RESULT:      -7.2      1.420      1.539
REMARK  Name = 
REMARK  9 active torsions:
REMARK  status: ('A' for Active; 'I' for Inactive)
REMARK    1  A    between atoms: C_1  and  O_2
REMARK    2  A    between atoms: O_2  and  C_3
REMARK    3  A    between atoms: C_5  and  O_6
REMARK    4  A    between atoms: O_6  and  C_7
REMARK    5  A    between atoms: C_8  and  C_9
REMARK    6  A    between atoms: C_13  and  O_14
REMARK    7  A    between atoms: C_13  and  C_15
REMARK    8  A    between atoms: C_23  and  O_24
REMARK    9  A    between atoms: O_24  and  C_25
REMARK                            x       y       z     vdW  Elec       q    Type
REMARK                         _______ _______ _______ _____ _____    ______ ____
ROOT
ATOM      1  C   UNL     1       4.826   4.254  19.056  0.00  0.00    +0.000 C 
ATOM      2  O   UNL     1       5.247   3.274  19.668  0.00  0.00    +0.000 OA
ATOM      3  N   UNL     1       5.370   4.675  17.877  0.00  0.00    +0.000 N 
ATOM      4  C   UNL     1       6.475   4.078  17.139  0.00  0.00    +0.000 C 
ATOM      5  C   UNL     1       6.185   5.193  16.067  0.00  0.00    +0.000 C 
ATOM      6  C   UNL     1       4.726   5.129  16.646  0.00  0.00    +0.000 C 
ENDROOT
BRANCH   1  10
ATOM      7  C   UNL     1       1.518   6.605  20.475  0.00  0.00    +0.000 A 
ATOM      8  C   UNL     1       1.651   5.272  20.898  0.00  0.00    +0.000 A 
ATOM      9  C   UNL     1       2.720   4.466  20.486  0.00  0.00    +0.000 A 
ATOM     10  C   UNL     1       3.664   5.008  19.600  0.00  0.00    +0.000 A 
ATOM     11  C   UNL     1       3.478   6.303  19.102  0.00  0.00    +0.000 A 
ATOM     12  C   UNL     1       2.418   7.113  19.531  0.00  0.00    +0.000 A 
BRANCH   7  14
ATOM     13  C   UNL     1       0.906   8.522  21.736  0.00  0.00    +0.000 C 
ATOM     14  O   UNL     1       0.505   7.395  20.952  0.00  0.00    +0.000 OA
ENDBRANCH   7  14
BRANCH   9  15
ATOM     15  O   UNL     1       2.875   3.170  20.904  0.00  0.00    +0.000 OA
ATOM     16  C   UNL     1       1.778   2.567  21.584  0.00  0.00    +0.000 C 
ENDBRANCH   9  15
BRANCH  12  17
ATOM     17  O   UNL     1       2.448   8.346  18.940  0.00  0.00    +0.000 OA
ATOM     18  C   UNL     1       2.594   8.437  17.534  0.00  0.00    +0.000 C 
ENDBRANCH  12  17
ENDBRANCH   1  10
BRANCH   5  19
ATOM     19  C   UNL     1       6.398   4.806  14.526  0.00  0.00    +0.000 A 
ATOM     20  C   UNL     1       7.460   5.352  13.778  0.00  0.00    +0.000 A 
ATOM     21  C   UNL     1       7.725   4.956  12.463  0.00  0.00    +0.000 A 
ATOM     22  C   UNL     1       6.932   3.992  11.857  0.00  0.00    +0.000 A 
ATOM     23  C   UNL     1       5.867   3.437  12.555  0.00  0.00    +0.000 A 
ATOM     24  C   UNL     1       5.610   3.837  13.874  0.00  0.00    +0.000 A 
ENDBRANCH   5  19
BRANCH   5  25
ATOM     25  O   UNL     1       6.840   6.473  16.328  0.00  0.00    +0.000 OA
ATOM     26  H   UNL     1       6.969   6.860  15.439  0.00  0.00    +0.000 HD
ENDBRANCH   5  25
TORSDOF 6
ENDMDL
MODEL 5
REMARK VINA RESULT:      -7.1      2.427      7.347
REMARK  Name = 
REMARK  9 active torsions:
REMARK  status: ('A' for Active; 'I' for Inactive)
REMARK    1  A    between atoms: C_1  and  O_2
REMARK    2  A    between atoms: O_2  and  C_3
REMARK    3  A    between atoms: C_5  and  O_6
REMARK    4  A    between atoms: O_6  and  C_7
REMARK    5  A    between atoms: C_8  and  C_9
REMARK    6  A    between atoms: C_13  and  O_14
REMARK    7  A    between atoms: C_13  and  C_15
REMARK    8  A    between atoms: C_23  and  O_24
REMARK    9  A    between atoms: O_24  and  C_25
REMARK                            x       y       z     vdW  Elec       q    Type
REMARK                         _______ _______ _______ _____ _____    ______ ____
ROOT
ATOM      1  C   UNL     1       2.546   6.586  19.369  0.00  0.00    +0.000 C 
ATOM      2  O   UNL     1       2.364   6.174  20.512  0.00  0.00    +0.000 OA
ATOM      3  N   UNL     1       2.051   7.781  18.930  0.00  0.00    +0.000 N 
ATOM      4  C   UNL     1       1.275   8.757  19.683  0.00  0.00    +0.000 C 
ATOM      5  C   UNL     1       1.349   9.626  18.374  0.00  0.00    +0.000 C 
ATOM      6  C   UNL     1       2.677   8.825  18.122  0.00  0.00    +0.000 C 
ENDROOT
BRANCH   1  10
ATOM      7  C   UNL     1       5.069   4.341  16.708  0.00  0.00    +0.000 A 
ATOM      8  C   UNL     1       3.718   3.984  16.846  0.00  0.00    +0.000 A 
ATOM      9  C   UNL     1       2.843   4.693  17.681  0.00  0.00    +0.000 A 
ATOM     10  C   UNL     1       3.352   5.772  18.420  0.00  0.00    +0.000 A 
ATOM     11  C   UNL     1       4.720   6.067  18.358  0.00  0.00    +0.000 A 
ATOM     12  C   UNL     1       5.587   5.368  17.506  0.00  0.00    +0.000 A 
BRANCH   7  14
ATOM     13  C   UNL     1       6.074   4.306  14.557  0.00  0.00    +0.000 C 
ATOM     14  O   UNL     1       5.884   3.679  15.828  0.00  0.00    +0.000 OA
ENDBRANCH   7  14
BRANCH   9  15
ATOM     15  O   UNL     1       1.519   4.368  17.813  0.00  0.00    +0.000 OA
ATOM     16  C   UNL     1       1.206   3.168  18.514  0.00  0.00    +0.000 C 
ENDBRANCH   9  15
BRANCH  12  17
ATOM     17  O   UNL     1       6.867   5.841  17.583  0.00  0.00    +0.000 OA
ATOM     18  C   UNL     1       7.107   7.225  17.393  0.00  0.00    +0.000 C 
ENDBRANCH  12  17
ENDBRANCH   1  10
BRANCH   5  19
ATOM     19  C   UNL     1       1.453  11.216  18.550  0.00  0.00    +0.000 A 
ATOM     20  C   UNL     1       2.563  11.933  18.057  0.00  0.00    +0.000 A 
ATOM     21  C   UNL     1       2.631  13.329  18.111  0.00  0.00    +0.000 A 
ATOM     22  C   UNL     1       1.581  14.052  18.658  0.00  0.00    +0.000 A 
ATOM     23  C   UNL     1       0.474  13.385  19.165  0.00  0.00    +0.000 A 
ATOM     24  C   UNL     1       0.411  11.985  19.105  0.00  0.00    +0.000 A 
ENDBRANCH   5  19
BRANCH   5  25
ATOM     25  O   UNL     1       0.314   9.327  17.387  0.00  0.00    +0.000 OA
ATOM     26  H   UNL     1      -0.307   8.740  17.862  0.00  0.00    +0.000 HD
ENDBRANCH   5  25
TORSDOF 6
ENDMDL
MODEL 6
REMARK VINA RESULT:      -7.0      1.982      3.337
REMARK  Name = 
REMARK  9 active torsions:
REMARK  status: ('A' for Active; 'I' for Inactive)
REMARK    1  A    between atoms: C_1  and  O_2
REMARK    2  A    between atoms: O_2  and  C_3
REMARK    3  A    between atoms: C_5  and  O_6
REMARK    4  A    between atoms: O_6  and  C_7
REMARK    5  A    between atoms: C_8  and  C_9
REMARK    6  A    between atoms: C_13  and  O_14
REMARK    7  A    between atoms: C_13  and  C_15
REMARK    8  A    between atoms: C_23  and  O_24
REMARK    9  A    between atoms: O_24  and  C_25
REMARK                            x       y       z     vdW  Elec       q    Type
REMARK                         _______ _______ _______ _____ _____    ______ ____
ROOT
ATOM      1  C   UNL     1       5.905   4.778  18.947  0.00  0.00    +0.000 C 
ATOM      2  O   UNL     1       6.930   4.876  19.619  0.00  0.00    +0.000 OA
ATOM      3  N   UNL     1       5.881   5.022  17.603  0.00  0.00    +0.000 N 
ATOM      4  C   UNL     1       6.994   5.401  16.744  0.00  0.00    +0.000 C 
ATOM      5  C   UNL     1       5.945   5.320  15.575  0.00  0.00    +0.000 C 
ATOM      6  C   UNL     1       5.227   4.290  16.520  0.00  0.00    +0.000 C 
ENDROOT
BRANCH   1  10
ATOM      7  C   UNL     1       2.158   3.785  20.806  0.00  0.00    +0.000 A 
ATOM      8  C   UNL     1       3.100   2.772  20.562  0.00  0.00    +0.000 A 
ATOM      9  C   UNL     1       4.346   3.040  19.980  0.00  0.00    +0.000 A 
ATOM     10  C   UNL     1       4.639   4.360  19.606  0.00  0.00    +0.000 A 
ATOM     11  C   UNL     1       3.663   5.353  19.758  0.00  0.00    +0.000 A 
ATOM     12  C   UNL     1       2.425   5.084  20.359  0.00  0.00    +0.000 A 
BRANCH   7  14
ATOM     13  C   UNL     1       0.997   2.390  22.337  0.00  0.00    +0.000 C 
ATOM     14  O   UNL     1       0.978   3.508  21.445  0.00  0.00    +0.000 OA
ENDBRANCH   7  14
BRANCH   9  15
ATOM     15  O   UNL     1       5.282   2.066  19.752  0.00  0.00    +0.000 OA
ATOM     16  C   UNL     1       5.303   0.956  20.644  0.00  0.00    +0.000 C 
ENDBRANCH   9  15
BRANCH  12  17
ATOM     17  O   UNL     1       1.642   6.202  20.433  0.00  0.00    +0.000 OA
ATOM     18  C   UNL     1       2.098   7.409  19.848  0.00  0.00    +0.000 C 
ENDBRANCH  12  17
ENDBRANCH   1  10
BRANCH   5  19
ATOM     19  C   UNL     1       6.465   4.795  14.153  0.00  0.00    +0.000 A 
ATOM     20  C   UNL     1       5.815   3.740  13.482  0.00  0.00    +0.000 A 
ATOM     21  C   UNL     1       6.190   3.331  12.198  0.00  0.00    +0.000 A 
ATOM     22  C   UNL     1       7.229   3.974  11.542  0.00  0.00    +0.000 A 
ATOM     23  C   UNL     1       7.904   5.012  12.171  0.00  0.00    +0.000 A 
ATOM     24  C   UNL     1       7.522   5.419  13.458  0.00  0.00    +0.000 A 
ENDBRANCH   5  19
BRANCH   5  25
ATOM     25  O   UNL     1       5.164   6.538  15.372  0.00  0.00    +0.000 OA
ATOM     26  H   UNL     1       5.106   6.935  16.263  0.00  0.00    +0.000 HD
ENDBRANCH   5  25
TORSDOF 6
ENDMDL
MODEL 7
REMARK VINA RESULT:      -6.8      2.864      8.058
REMARK  Name = 
REMARK  9 active torsions:
REMARK  status: ('A' for Active; 'I' for Inactive)
REMARK    1  A    between atoms: C_1  and  O_2
REMARK    2  A    between atoms: O_2  and  C_3
REMARK    3  A    between atoms: C_5  and  O_6
REMARK    4  A    between atoms: O_6  and  C_7
REMARK    5  A    between atoms: C_8  and  C_9
REMARK    6  A    between atoms: C_13  and  O_14
REMARK    7  A    between atoms: C_13  and  C_15
REMARK    8  A    between atoms: C_23  and  O_24
REMARK    9  A    between atoms: O_24  and  C_25
REMARK                            x       y       z     vdW  Elec       q    Type
REMARK                         _______ _______ _______ _____ _____    ______ ____
ROOT
ATOM      1  C   UNL     1       5.048   5.623  15.454  0.00  0.00    +0.000 C 
ATOM      2  O   UNL     1       4.811   6.814  15.268  0.00  0.00    +0.000 OA
ATOM      3  N   UNL     1       4.800   5.000  16.644  0.00  0.00    +0.000 N 
ATOM      4  C   UNL     1       4.222   5.575  17.850  0.00  0.00    +0.000 C 
ATOM      5  C   UNL     1       4.319   4.117  18.431  0.00  0.00    +0.000 C 
ATOM      6  C   UNL     1       4.209   3.693  16.922  0.00  0.00    +0.000 C 
ENDROOT
BRANCH   1  10
ATOM      7  C   UNL     1       6.452   3.259  12.149  0.00  0.00    +0.000 A 
ATOM      8  C   UNL     1       7.381   3.870  13.006  0.00  0.00    +0.000 A 
ATOM      9  C   UNL     1       6.982   4.632  14.112  0.00  0.00    +0.000 A 
ATOM     10  C   UNL     1       5.609   4.810  14.342  0.00  0.00    +0.000 A 
ATOM     11  C   UNL     1       4.684   4.283  13.431  0.00  0.00    +0.000 A 
ATOM     12  C   UNL     1       5.087   3.504  12.338  0.00  0.00    +0.000 A 
BRANCH   7  14
ATOM     13  C   UNL     1       6.459   1.088  11.187  0.00  0.00    +0.000 C 
ATOM     14  O   UNL     1       6.869   2.456  11.120  0.00  0.00    +0.000 OA
ENDBRANCH   7  14
BRANCH   9  15
ATOM     15  O   UNL     1       7.876   5.220  14.969  0.00  0.00    +0.000 OA
ATOM     16  C   UNL     1       7.849   4.802  16.330  0.00  0.00    +0.000 C 
ENDBRANCH   9  15
BRANCH  12  17
ATOM     17  O   UNL     1       4.020   3.070  11.602  0.00  0.00    +0.000 OA
ATOM     18  C   UNL     1       3.626   3.799  10.453  0.00  0.00    +0.000 C 
ENDBRANCH  12  17
ENDBRANCH   1  10
BRANCH   5  19
ATOM     19  C   UNL     1       3.157   3.643  19.429  0.00  0.00    +0.000 A 
ATOM     20  C   UNL     1       3.435   2.800  20.524  0.00  0.00    +0.000 A 
ATOM     21  C   UNL     1       2.459   2.454  21.464  0.00  0.00    +0.000 A 
ATOM     22  C   UNL     1       1.169   2.948  21.337  0.00  0.00    +0.000 A 
ATOM     23  C   UNL     1       0.849   3.773  20.266  0.00  0.00    +0.000 A 
ATOM     24  C   UNL     1       1.834   4.119  19.329  0.00  0.00    +0.000 A 
ENDBRANCH   5  19
BRANCH   5  25
ATOM     25  O   UNL     1       5.613   3.780  19.019  0.00  0.00    +0.000 OA
ATOM     26  H   UNL     1       6.132   4.605  18.942  0.00  0.00    +0.000 HD
ENDBRANCH   5  25
TORSDOF 6
ENDMDL
MODEL 8
REMARK VINA RESULT:      -6.7      2.922      8.274
REMARK  Name = 
REMARK  9 active torsions:
REMARK  status: ('A' for Active; 'I' for Inactive)
REMARK    1  A    between atoms: C_1  and  O_2
REMARK    2  A    between atoms: O_2  and  C_3
REMARK    3  A    between atoms: C_5  and  O_6
REMARK    4  A    between atoms: O_6  and  C_7
REMARK    5  A    between atoms: C_8  and  C_9
REMARK    6  A    between atoms: C_13  and  O_14
REMARK    7  A    between atoms: C_13  and  C_15
REMARK    8  A    between atoms: C_23  and  O_24
REMARK    9  A    between atoms: O_24  and  C_25
REMARK                            x       y       z     vdW  Elec       q    Type
REMARK                         _______ _______ _______ _____ _____    ______ ____
ROOT
ATOM      1  C   UNL     1       5.370   5.640  15.185  0.00  0.00    +0.000 C 
ATOM      2  O   UNL     1       5.259   6.852  15.009  0.00  0.00    +0.000 OA
ATOM      3  N   UNL     1       5.105   5.044  16.385  0.00  0.00    +0.000 N 
ATOM      4  C   UNL     1       4.646   5.676  17.615  0.00  0.00    +0.000 C 
ATOM      5  C   UNL     1       4.605   4.213  18.192  0.00  0.00    +0.000 C 
ATOM      6  C   UNL     1       4.385   3.810  16.690  0.00  0.00    +0.000 C 
ENDROOT
BRANCH   1  10
ATOM      7  C   UNL     1       6.356   3.107  11.855  0.00  0.00    +0.000 A 
ATOM      8  C   UNL     1       7.375   3.820  12.507  0.00  0.00    +0.000 A 
ATOM      9  C   UNL     1       7.116   4.643  13.611  0.00  0.00    +0.000 A 
ATOM     10  C   UNL     1       5.790   4.774  14.051  0.00  0.00    +0.000 A 
ATOM     11  C   UNL     1       4.762   4.142  13.341  0.00  0.00    +0.000 A 
ATOM     12  C   UNL     1       5.027   3.304  12.249  0.00  0.00    +0.000 A 
BRANCH   7  14
ATOM     13  C   UNL     1       6.521   0.856  11.116  0.00  0.00    +0.000 C 
ATOM     14  O   UNL     1       6.646   2.250  10.825  0.00  0.00    +0.000 OA
ENDBRANCH   7  14
BRANCH   9  15
ATOM     15  O   UNL     1       8.101   5.331  14.269  0.00  0.00    +0.000 OA
ATOM     16  C   UNL     1       9.104   5.957  13.475  0.00  0.00    +0.000 C 
ENDBRANCH   9  15
BRANCH  12  17
ATOM     17  O   UNL     1       3.882   2.769  11.728  0.00  0.00    +0.000 OA
ATOM     18  C   UNL     1       3.342   3.311  10.536  0.00  0.00    +0.000 C 
ENDBRANCH  12  17
ENDBRANCH   1  10
BRANCH   5  19
ATOM     19  C   UNL     1       3.441   3.868  19.239  0.00  0.00    +0.000 A 
ATOM     20  C   UNL     1       2.140   4.386  19.081  0.00  0.00    +0.000 A 
ATOM     21  C   UNL     1       1.085   4.020  19.924  0.00  0.00    +0.000 A 
ATOM     22  C   UNL     1       1.304   3.115  20.954  0.00  0.00    +0.000 A 
ATOM     23  C   UNL     1       2.574   2.590  21.152  0.00  0.00    +0.000 A 
ATOM     24  C   UNL     1       3.625   2.958  20.301  0.00  0.00    +0.000 A 
ENDBRANCH   5  19
BRANCH   5  25
ATOM     25  O   UNL     1       5.877   3.733  18.725  0.00  0.00    +0.000 OA
ATOM     26  H   UNL     1       6.355   3.402  17.940  0.00  0.00    +0.000 HD
ENDBRANCH   5  25
TORSDOF 6
ENDMDL
MODEL 9
REMARK VINA RESULT:      -6.5      1.513      2.056
REMARK  Name = 
REMARK  9 active torsions:
REMARK  status: ('A' for Active; 'I' for Inactive)
REMARK    1  A    between atoms: C_1  and  O_2
REMARK    2  A    between atoms: O_2  and  C_3
REMARK    3  A    between atoms: C_5  and  O_6
REMARK    4  A    between atoms: O_6  and  C_7
REMARK    5  A    between atoms: C_8  and  C_9
REMARK    6  A    between atoms: C_13  and  O_14
REMARK    7  A    between atoms: C_13  and  C_15
REMARK    8  A    between atoms: C_23  and  O_24
REMARK    9  A    between atoms: O_24  and  C_25
REMARK                            x       y       z     vdW  Elec       q    Type
REMARK                         _______ _______ _______ _____ _____    ______ ____
ROOT
ATOM      1  C   UNL     1       5.208   4.822  18.840  0.00  0.00    +0.000 C 
ATOM      2  O   UNL     1       6.002   4.236  19.572  0.00  0.00    +0.000 OA
ATOM      3  N   UNL     1       5.432   4.998  17.504  0.00  0.00    +0.000 N 
ATOM      4  C   UNL     1       6.571   4.540  16.721  0.00  0.00    +0.000 C 
ATOM      5  C   UNL     1       5.798   5.146  15.492  0.00  0.00    +0.000 C 
ATOM      6  C   UNL     1       4.525   4.854  16.367  0.00  0.00    +0.000 C 
ENDROOT
BRANCH   1  10
ATOM      7  C   UNL     1       1.572   6.535  20.366  0.00  0.00    +0.000 A 
ATOM      8  C   UNL     1       1.875   5.193  20.645  0.00  0.00    +0.000 A 
ATOM      9  C   UNL     1       3.056   4.588  20.195  0.00  0.00    +0.000 A 
ATOM     10  C   UNL     1       3.940   5.347  19.413  0.00  0.00    +0.000 A 
ATOM     11  C   UNL     1       3.592   6.655  19.052  0.00  0.00    +0.000 A 
ATOM     12  C   UNL     1       2.419   7.262  19.522  0.00  0.00    +0.000 A 
BRANCH   7  14
ATOM     13  C   UNL     1       0.655   8.335  21.612  0.00  0.00    +0.000 C 
ATOM     14  O   UNL     1       0.448   7.124  20.882  0.00  0.00    +0.000 OA
ENDBRANCH   7  14
BRANCH   9  15
ATOM     15  O   UNL     1       3.375   3.285  20.474  0.00  0.00    +0.000 OA
ATOM     16  C   UNL     1       2.707   2.273  19.726  0.00  0.00    +0.000 C 
ENDBRANCH   9  15
BRANCH  12  17
ATOM     17  O   UNL     1       2.295   8.547  19.070  0.00  0.00    +0.000 OA
ATOM     18  C   UNL     1       1.720   8.782  17.797  0.00  0.00    +0.000 C 
ENDBRANCH  12  17
ENDBRANCH   1  10
BRANCH   5  19
ATOM     19  C   UNL     1       5.933   4.383  14.088  0.00  0.00    +0.000 A 
ATOM     20  C   UNL     1       4.824   3.750  13.492  0.00  0.00    +0.000 A 
ATOM     21  C   UNL     1       4.893   3.164  12.224  0.00  0.00    +0.000 A 
ATOM     22  C   UNL     1       6.082   3.201  11.509  0.00  0.00    +0.000 A 
ATOM     23  C   UNL     1       7.202   3.805  12.064  0.00  0.00    +0.000 A 
ATOM     24  C   UNL     1       7.124   4.393  13.335  0.00  0.00    +0.000 A 
ENDBRANCH   5  19
BRANCH   5  25
ATOM     25  O   UNL     1       6.020   6.574  15.277  0.00  0.00    +0.000 OA
ATOM     26  H   UNL     1       5.836   6.703  14.325  0.00  0.00    +0.000 HD
ENDBRANCH   5  25
TORSDOF 6
ENDMDL
