MODEL 1
REMARK VINA RESULT:      -6.5      0.000      0.000
REMARK  Name = 
REMARK  3 active torsions:
REMARK  status: ('A' for Active; 'I' for Inactive)
REMARK    1  A    between atoms: C_1  and  S_2
REMARK    2  A    between atoms: S_2  and  S_3
REMARK    3  A    between atoms: S_3  and  C_6
REMARK                            x       y       z     vdW  Elec       q    Type
REMARK                         _______ _______ _______ _____ _____    ______ ____
ROOT
ATOM      1  C   UNL     1       3.073   4.584  18.242  0.00  0.00    +0.000 A 
ATOM      2  C   UNL     1       2.411   5.659  18.860  0.00  0.00    +0.000 A 
ATOM      3  C   UNL     1       2.745   6.962  18.518  0.00  0.00    +0.000 A 
ATOM      4  C   UNL     1       3.732   7.185  17.565  0.00  0.00    +0.000 A 
ATOM      5  C   UNL     1       4.397   6.106  16.954  0.00  0.00    +0.000 A 
ATOM      6  C   UNL     1       5.384   6.336  15.986  0.00  0.00    +0.000 A 
ATOM      7  C   UNL     1       6.036   5.266  15.388  0.00  0.00    +0.000 A 
ATOM      8  C   UNL     1       5.676   3.996  15.780  0.00  0.00    +0.000 A 
ATOM      9  N   UNL     1       4.723   3.740  16.702  0.00  0.00    +0.000 NA
ATOM     10  C   UNL     1       4.078   4.770  17.293  0.00  0.00    +0.000 A 
ENDROOT
BRANCH   1  11
ATOM     11  S   UNL     1       2.589   2.936  18.670  0.00  0.00    +0.000 S 
ATOM     12  O   UNL     1       3.680   2.353  19.433  0.00  0.00    +0.000 OA
ATOM     13  O   UNL     1       2.105   2.258  17.485  0.00  0.00    +0.000 OA
BRANCH  11  15
ATOM     14  C   UNL     1       1.876   2.865  21.586  0.00  0.00    +0.000 C 
ATOM     15  S   UNL     1       1.016   3.153  20.034  0.00  0.00    +0.000 S 
ENDBRANCH  11  15
ENDBRANCH   1  11
TORSDOF 2
ENDMDL
MODEL 2
REMARK VINA RESULT:      -6.5      1.454      1.462
REMARK  Name = 
REMARK  3 active torsions:
REMARK  status: ('A' for Active; 'I' for Inactive)
REMARK    1  A    between atoms: C_1  and  S_2
REMARK    2  A    between atoms: S_2  and  S_3
REMARK    3  A    between atoms: S_3  and  C_6
REMARK                            x       y       z     vdW  Elec       q    Type
REMARK                         _______ _______ _______ _____ _____    ______ ____
ROOT
ATOM      1  C   UNL     1       3.742   4.370  18.542  0.00  0.00    +0.000 A 
ATOM      2  C   UNL     1       2.542   5.100  18.506  0.00  0.00    +0.000 A 
ATOM      3  C   UNL     1       2.550   6.418  18.070  0.00  0.00    +0.000 A 
ATOM      4  C   UNL     1       3.750   6.998  17.674  0.00  0.00    +0.000 A 
ATOM      5  C   UNL     1       4.950   6.265  17.718  0.00  0.00    +0.000 A 
ATOM      6  C   UNL     1       6.155   6.851  17.308  0.00  0.00    +0.000 A 
ATOM      7  C   UNL     1       7.335   6.122  17.354  0.00  0.00    +0.000 A 
ATOM      8  C   UNL     1       7.270   4.825  17.813  0.00  0.00    +0.000 A 
ATOM      9  N   UNL     1       6.124   4.228  18.205  0.00  0.00    +0.000 NA
ATOM     10  C   UNL     1       4.966   4.923  18.166  0.00  0.00    +0.000 A 
ENDROOT
BRANCH   1  11
ATOM     11  S   UNL     1       3.685   2.678  19.059  0.00  0.00    +0.000 S 
ATOM     12  O   UNL     1       4.673   2.519  20.114  0.00  0.00    +0.000 OA
ATOM     13  O   UNL     1       3.743   1.820  17.893  0.00  0.00    +0.000 OA
BRANCH  11  15
ATOM     14  C   UNL     1       2.205   3.069  21.642  0.00  0.00    +0.000 C 
ATOM     15  S   UNL     1       1.830   2.444  19.998  0.00  0.00    +0.000 S 
ENDBRANCH  11  15
ENDBRANCH   1  11
TORSDOF 2
ENDMDL
MODEL 3
REMARK VINA RESULT:      -6.3      2.351      3.085
REMARK  Name = 
REMARK  3 active torsions:
REMARK  status: ('A' for Active; 'I' for Inactive)
REMARK    1  A    between atoms: C_1  and  S_2
REMARK    2  A    between atoms: S_2  and  S_3
REMARK    3  A    between atoms: S_3  and  C_6
REMARK                            x       y       z     vdW  Elec       q    Type
REMARK                         _______ _______ _______ _____ _____    ______ ____
ROOT
ATOM      1  C   UNL     1       4.722   4.012  18.069  0.00  0.00    +0.000 A 
ATOM      2  C   UNL     1       4.194   3.831  16.780  0.00  0.00    +0.000 A 
ATOM      3  C   UNL     1       4.775   4.481  15.699  0.00  0.00    +0.000 A 
ATOM      4  C   UNL     1       5.875   5.305  15.910  0.00  0.00    +0.000 A 
ATOM      5  C   UNL     1       6.396   5.488  17.204  0.00  0.00    +0.000 A 
ATOM      6  C   UNL     1       7.511   6.311  17.410  0.00  0.00    +0.000 A 
ATOM      7  C   UNL     1       8.020   6.488  18.689  0.00  0.00    +0.000 A 
ATOM      8  C   UNL     1       7.392   5.833  19.725  0.00  0.00    +0.000 A 
ATOM      9  N   UNL     1       6.322   5.025  19.559  0.00  0.00    +0.000 NA
ATOM     10  C   UNL     1       5.815   4.842  18.321  0.00  0.00    +0.000 A 
ENDROOT
BRANCH   1  11
ATOM     11  S   UNL     1       3.984   3.131  19.415  0.00  0.00    +0.000 S 
ATOM     12  O   UNL     1       3.253   4.101  20.213  0.00  0.00    +0.000 OA
ATOM     13  O   UNL     1       4.987   2.298  20.047  0.00  0.00    +0.000 OA
BRANCH  11  15
ATOM     14  C   UNL     1       1.024   2.724  19.127  0.00  0.00    +0.000 C 
ATOM     15  S   UNL     1       2.520   1.912  18.548  0.00  0.00    +0.000 S 
ENDBRANCH  11  15
ENDBRANCH   1  11
TORSDOF 2
ENDMDL
MODEL 4
REMARK VINA RESULT:      -6.2      2.950      4.455
REMARK  Name = 
REMARK  3 active torsions:
REMARK  status: ('A' for Active; 'I' for Inactive)
REMARK    1  A    between atoms: C_1  and  S_2
REMARK    2  A    between atoms: S_2  and  S_3
REMARK    3  A    between atoms: S_3  and  C_6
REMARK                            x       y       z     vdW  Elec       q    Type
REMARK                         _______ _______ _______ _____ _____    ______ ____
ROOT
ATOM      1  C   UNL     1       4.572   5.254  17.703  0.00  0.00    +0.000 A 
ATOM      2  C   UNL     1       4.200   6.608  17.721  0.00  0.00    +0.000 A 
ATOM      3  C   UNL     1       2.876   6.956  17.956  0.00  0.00    +0.000 A 
ATOM      4  C   UNL     1       1.936   5.955  18.172  0.00  0.00    +0.000 A 
ATOM      5  C   UNL     1       2.313   4.599  18.146  0.00  0.00    +0.000 A 
ATOM      6  C   UNL     1       1.364   3.594  18.374  0.00  0.00    +0.000 A 
ATOM      7  C   UNL     1       1.743   2.259  18.346  0.00  0.00    +0.000 A 
ATOM      8  C   UNL     1       3.065   1.973  18.090  0.00  0.00    +0.000 A 
ATOM      9  N   UNL     1       4.006   2.918  17.877  0.00  0.00    +0.000 NA
ATOM     10  C   UNL     1       3.655   4.222  17.900  0.00  0.00    +0.000 A 
ENDROOT
BRANCH   1  11
ATOM     11  S   UNL     1       6.277   4.851  17.446  0.00  0.00    +0.000 S 
ATOM     12  O   UNL     1       6.361   4.124  16.190  0.00  0.00    +0.000 OA
ATOM     13  O   UNL     1       6.813   4.254  18.652  0.00  0.00    +0.000 OA
BRANCH  11  15
ATOM     14  C   UNL     1       8.098   6.909  18.655  0.00  0.00    +0.000 C 
ATOM     15  S   UNL     1       7.236   6.677  17.094  0.00  0.00    +0.000 S 
ENDBRANCH  11  15
ENDBRANCH   1  11
TORSDOF 2
ENDMDL
MODEL 5
REMARK VINA RESULT:      -6.2      3.005      4.344
REMARK  Name = 
REMARK  3 active torsions:
REMARK  status: ('A' for Active; 'I' for Inactive)
REMARK    1  A    between atoms: C_1  and  S_2
REMARK    2  A    between atoms: S_2  and  S_3
REMARK    3  A    between atoms: S_3  and  C_6
REMARK                            x       y       z     vdW  Elec       q    Type
REMARK                         _______ _______ _______ _____ _____    ______ ____
ROOT
ATOM      1  C   UNL     1       4.588   5.524  17.041  0.00  0.00    +0.000 A 
ATOM      2  C   UNL     1       4.364   6.903  17.192  0.00  0.00    +0.000 A 
ATOM      3  C   UNL     1       3.206   7.349  17.813  0.00  0.00    +0.000 A 
ATOM      4  C   UNL     1       2.281   6.421  18.279  0.00  0.00    +0.000 A 
ATOM      5  C   UNL     1       2.507   5.041  18.119  0.00  0.00    +0.000 A 
ATOM      6  C   UNL     1       1.576   4.110  18.599  0.00  0.00    +0.000 A 
ATOM      7  C   UNL     1       1.805   2.750  18.438  0.00  0.00    +0.000 A 
ATOM      8  C   UNL     1       2.962   2.367  17.797  0.00  0.00    +0.000 A 
ATOM      9  N   UNL     1       3.883   3.238  17.332  0.00  0.00    +0.000 NA
ATOM     10  C   UNL     1       3.676   4.565  17.482  0.00  0.00    +0.000 A 
ENDROOT
BRANCH   1  11
ATOM     11  S   UNL     1       6.097   4.991  16.285  0.00  0.00    +0.000 S 
ATOM     12  O   UNL     1       6.628   6.124  15.543  0.00  0.00    +0.000 OA
ATOM     13  O   UNL     1       5.872   3.734  15.602  0.00  0.00    +0.000 OA
BRANCH  11  15
ATOM     14  C   UNL     1       7.691   6.382  18.417  0.00  0.00    +0.000 C 
ATOM     15  S   UNL     1       7.436   4.689  17.865  0.00  0.00    +0.000 S 
ENDBRANCH  11  15
ENDBRANCH   1  11
TORSDOF 2
ENDMDL
MODEL 6
REMARK VINA RESULT:      -6.2      1.015      1.015
REMARK  Name = 
REMARK  3 active torsions:
REMARK  status: ('A' for Active; 'I' for Inactive)
REMARK    1  A    between atoms: C_1  and  S_2
REMARK    2  A    between atoms: S_2  and  S_3
REMARK    3  A    between atoms: S_3  and  C_6
REMARK                            x       y       z     vdW  Elec       q    Type
REMARK                         _______ _______ _______ _____ _____    ______ ____
ROOT
ATOM      1  C   UNL     1       3.729   4.365  18.567  0.00  0.00    +0.000 A 
ATOM      2  C   UNL     1       3.006   5.356  19.251  0.00  0.00    +0.000 A 
ATOM      3  C   UNL     1       3.016   6.663  18.784  0.00  0.00    +0.000 A 
ATOM      4  C   UNL     1       3.743   6.973  17.640  0.00  0.00    +0.000 A 
ATOM      5  C   UNL     1       4.471   5.977  16.962  0.00  0.00    +0.000 A 
ATOM      6  C   UNL     1       5.195   6.293  15.804  0.00  0.00    +0.000 A 
ATOM      7  C   UNL     1       5.911   5.306  15.140  0.00  0.00    +0.000 A 
ATOM      8  C   UNL     1       5.880   4.032  15.661  0.00  0.00    +0.000 A 
ATOM      9  N   UNL     1       5.185   3.693  16.768  0.00  0.00    +0.000 NA
ATOM     10  C   UNL     1       4.482   4.641  17.426  0.00  0.00    +0.000 A 
ENDROOT
BRANCH   1  11
ATOM     11  S   UNL     1       3.656   2.701  19.167  0.00  0.00    +0.000 S 
ATOM     12  O   UNL     1       4.838   2.488  19.987  0.00  0.00    +0.000 OA
ATOM     13  O   UNL     1       3.385   1.806  18.060  0.00  0.00    +0.000 OA
BRANCH  11  15
ATOM     14  C   UNL     1       0.661   2.589  19.352  0.00  0.00    +0.000 C 
ATOM     15  S   UNL     1       2.043   2.659  20.500  0.00  0.00    +0.000 S 
ENDBRANCH  11  15
ENDBRANCH   1  11
TORSDOF 2
ENDMDL
MODEL 7
REMARK VINA RESULT:      -6.1      2.719      4.783
REMARK  Name = 
REMARK  3 active torsions:
REMARK  status: ('A' for Active; 'I' for Inactive)
REMARK    1  A    between atoms: C_1  and  S_2
REMARK    2  A    between atoms: S_2  and  S_3
REMARK    3  A    between atoms: S_3  and  C_6
REMARK                            x       y       z     vdW  Elec       q    Type
REMARK                         _______ _______ _______ _____ _____    ______ ____
ROOT
ATOM      1  C   UNL     1       4.113   5.206  18.602  0.00  0.00    +0.000 A 
ATOM      2  C   UNL     1       3.606   6.495  18.367  0.00  0.00    +0.000 A 
ATOM      3  C   UNL     1       2.532   6.960  19.114  0.00  0.00    +0.000 A 
ATOM      4  C   UNL     1       1.973   6.140  20.087  0.00  0.00    +0.000 A 
ATOM      5  C   UNL     1       2.480   4.847  20.314  0.00  0.00    +0.000 A 
ATOM      6  C   UNL     1       1.919   4.028  21.302  0.00  0.00    +0.000 A 
ATOM      7  C   UNL     1       2.424   2.753  21.520  0.00  0.00    +0.000 A 
ATOM      8  C   UNL     1       3.478   2.339  20.737  0.00  0.00    +0.000 A 
ATOM      9  N   UNL     1       4.048   3.107  19.783  0.00  0.00    +0.000 NA
ATOM     10  C   UNL     1       3.569   4.350  19.559  0.00  0.00    +0.000 A 
ENDROOT
BRANCH   1  11
ATOM     11  S   UNL     1       5.513   4.665  17.662  0.00  0.00    +0.000 S 
ATOM     12  O   UNL     1       5.037   3.663  16.722  0.00  0.00    +0.000 OA
ATOM     13  O   UNL     1       6.597   4.339  18.565  0.00  0.00    +0.000 OA
BRANCH  11  15
ATOM     14  C   UNL     1       7.348   7.037  17.512  0.00  0.00    +0.000 C 
ATOM     15  S   UNL     1       6.064   6.307  16.487  0.00  0.00    +0.000 S 
ENDBRANCH  11  15
ENDBRANCH   1  11
TORSDOF 2
ENDMDL
MODEL 8
REMARK VINA RESULT:      -6.1      1.525      1.614
REMARK  Name = 
REMARK  3 active torsions:
REMARK  status: ('A' for Active; 'I' for Inactive)
REMARK    1  A    between atoms: C_1  and  S_2
REMARK    2  A    between atoms: S_2  and  S_3
REMARK    3  A    between atoms: S_3  and  C_6
REMARK                            x       y       z     vdW  Elec       q    Type
REMARK                         _______ _______ _______ _____ _____    ______ ____
ROOT
ATOM      1  C   UNL     1       3.629   4.837  18.890  0.00  0.00    +0.000 A 
ATOM      2  C   UNL     1       2.830   5.865  19.418  0.00  0.00    +0.000 A 
ATOM      3  C   UNL     1       2.791   7.100  18.785  0.00  0.00    +0.000 A 
ATOM      4  C   UNL     1       3.543   7.301  17.634  0.00  0.00    +0.000 A 
ATOM      5  C   UNL     1       4.346   6.269  17.113  0.00  0.00    +0.000 A 
ATOM      6  C   UNL     1       5.095   6.474  15.946  0.00  0.00    +0.000 A 
ATOM      7  C   UNL     1       5.885   5.452  15.438  0.00  0.00    +0.000 A 
ATOM      8  C   UNL     1       5.900   4.255  16.118  0.00  0.00    +0.000 A 
ATOM      9  N   UNL     1       5.183   4.022  17.238  0.00  0.00    +0.000 NA
ATOM     10  C   UNL     1       4.408   5.006  17.746  0.00  0.00    +0.000 A 
ENDROOT
BRANCH   1  11
ATOM     11  S   UNL     1       3.619   3.261  19.698  0.00  0.00    +0.000 S 
ATOM     12  O   UNL     1       2.760   3.383  20.865  0.00  0.00    +0.000 OA
ATOM     13  O   UNL     1       4.982   2.800  19.861  0.00  0.00    +0.000 OA
BRANCH  11  15
ATOM     14  C   UNL     1       0.898   2.419  18.748  0.00  0.00    +0.000 C 
ATOM     15  S   UNL     1       2.605   1.973  18.397  0.00  0.00    +0.000 S 
ENDBRANCH  11  15
ENDBRANCH   1  11
TORSDOF 2
ENDMDL
MODEL 9
REMARK VINA RESULT:      -6.0      3.030      4.597
REMARK  Name = 
REMARK  3 active torsions:
REMARK  status: ('A' for Active; 'I' for Inactive)
REMARK    1  A    between atoms: C_1  and  S_2
REMARK    2  A    between atoms: S_2  and  S_3
REMARK    3  A    between atoms: S_3  and  C_6
REMARK                            x       y       z     vdW  Elec       q    Type
REMARK                         _______ _______ _______ _____ _____    ______ ____
ROOT
ATOM      1  C   UNL     1       4.668   5.640  17.311  0.00  0.00    +0.000 A 
ATOM      2  C   UNL     1       4.334   6.999  17.440  0.00  0.00    +0.000 A 
ATOM      3  C   UNL     1       3.076   7.358  17.903  0.00  0.00    +0.000 A 
ATOM      4  C   UNL     1       2.162   6.365  18.235  0.00  0.00    +0.000 A 
ATOM      5  C   UNL     1       2.499   5.005  18.099  0.00  0.00    +0.000 A 
ATOM      6  C   UNL     1       1.578   4.008  18.444  0.00  0.00    +0.000 A 
ATOM      7  C   UNL     1       1.916   2.669  18.306  0.00  0.00    +0.000 A 
ATOM      8  C   UNL     1       3.171   2.372  17.824  0.00  0.00    +0.000 A 
ATOM      9  N   UNL     1       4.086   3.309  17.492  0.00  0.00    +0.000 NA
ATOM     10  C   UNL     1       3.772   4.616  17.620  0.00  0.00    +0.000 A 
ENDROOT
BRANCH   1  11
ATOM     11  S   UNL     1       6.297   5.219  16.760  0.00  0.00    +0.000 S 
ATOM     12  O   UNL     1       6.894   4.381  17.787  0.00  0.00    +0.000 OA
ATOM     13  O   UNL     1       6.982   6.422  16.334  0.00  0.00    +0.000 OA
BRANCH  11  15
ATOM     14  C   UNL     1       7.083   4.757  13.900  0.00  0.00    +0.000 C 
ATOM     15  S   UNL     1       6.020   3.960  15.111  0.00  0.00    +0.000 S 
ENDBRANCH  11  15
ENDBRANCH   1  11
TORSDOF 2
ENDMDL
