MODEL 1
REMARK VINA RESULT:      -6.7      0.000      0.000
REMARK  Name = 
REMARK  1 active torsions:
REMARK  status: ('A' for Active; 'I' for Inactive)
REMARK    1  A    between atoms: C_1  and  N_2
REMARK                            x       y       z     vdW  Elec       q    Type
REMARK                         _______ _______ _______ _____ _____    ______ ____
ROOT
ATOM      1  C   UNL     1       8.012   7.097  18.538  0.00  0.00    +0.000 C 
ATOM      2  N   UNL     1       7.497   5.810  18.068  0.00  0.00    +0.000 NA
ATOM      3  C   UNL     1       7.149   5.894  16.629  0.00  0.00    +0.000 C 
ATOM      4  C   UNL     1       6.684   4.532  16.050  0.00  0.00    +0.000 C 
ATOM      5  C   UNL     1       5.629   4.001  16.946  0.00  0.00    +0.000 A 
ATOM      6  N   UNL     1       4.642   3.121  16.625  0.00  0.00    +0.000 N 
ATOM      7  C   UNL     1       3.815   2.939  17.717  0.00  0.00    +0.000 A 
ATOM      8  C   UNL     1       2.654   2.170  17.852  0.00  0.00    +0.000 A 
ATOM      9  C   UNL     1       2.007   2.187  19.093  0.00  0.00    +0.000 A 
ATOM     10  C   UNL     1       2.509   2.942  20.150  0.00  0.00    +0.000 A 
ATOM     11 CL   UNL     1       1.683   2.941  21.662  0.00  0.00    +0.000 Cl
ATOM     12  C   UNL     1       3.667   3.708  20.006  0.00  0.00    +0.000 A 
ATOM     13  C   UNL     1       4.335   3.709  18.765  0.00  0.00    +0.000 A 
ATOM     14  C   UNL     1       5.487   4.379  18.265  0.00  0.00    +0.000 A 
ATOM     15  C   UNL     1       6.359   5.396  18.932  0.00  0.00    +0.000 C 
ATOM     16  H   UNL     1       4.502   2.690  15.721  0.00  0.00    +0.000 HD
ENDROOT
TORSDOF 0
ENDMDL
MODEL 2
REMARK VINA RESULT:      -6.7      3.553      5.712
REMARK  Name = 
REMARK  1 active torsions:
REMARK  status: ('A' for Active; 'I' for Inactive)
REMARK    1  A    between atoms: C_1  and  N_2
REMARK                            x       y       z     vdW  Elec       q    Type
REMARK                         _______ _______ _______ _____ _____    ______ ____
ROOT
ATOM      1  C   UNL     1       3.925   4.183  19.250  0.00  0.00    +0.000 C 
ATOM      2  N   UNL     1       5.172   4.323  18.496  0.00  0.00    +0.000 NA
ATOM      3  C   UNL     1       5.677   5.714  18.599  0.00  0.00    +0.000 C 
ATOM      4  C   UNL     1       7.046   5.902  17.895  0.00  0.00    +0.000 C 
ATOM      5  C   UNL     1       6.926   5.352  16.525  0.00  0.00    +0.000 A 
ATOM      6  N   UNL     1       7.664   5.690  15.433  0.00  0.00    +0.000 N 
ATOM      7  C   UNL     1       7.190   5.009  14.328  0.00  0.00    +0.000 A 
ATOM      8  C   UNL     1       7.598   5.065  12.990  0.00  0.00    +0.000 A 
ATOM      9  C   UNL     1       6.915   4.259  12.072  0.00  0.00    +0.000 A 
ATOM     10  C   UNL     1       5.872   3.434  12.483  0.00  0.00    +0.000 A 
ATOM     11 CL   UNL     1       5.052   2.459  11.323  0.00  0.00    +0.000 Cl
ATOM     12  C   UNL     1       5.470   3.386  13.819  0.00  0.00    +0.000 A 
ATOM     13  C   UNL     1       6.141   4.190  14.762  0.00  0.00    +0.000 A 
ATOM     14  C   UNL     1       5.981   4.415  16.158  0.00  0.00    +0.000 A 
ATOM     15  C   UNL     1       4.948   3.873  17.096  0.00  0.00    +0.000 C 
ATOM     16  H   UNL     1       8.420   6.361  15.412  0.00  0.00    +0.000 HD
ENDROOT
TORSDOF 0
ENDMDL
MODEL 3
REMARK VINA RESULT:      -6.6      2.698      5.211
REMARK  Name = 
REMARK  1 active torsions:
REMARK  status: ('A' for Active; 'I' for Inactive)
REMARK    1  A    between atoms: C_1  and  N_2
REMARK                            x       y       z     vdW  Elec       q    Type
REMARK                         _______ _______ _______ _____ _____    ______ ____
ROOT
ATOM      1  C   UNL     1       0.944   4.229  20.496  0.00  0.00    +0.000 C 
ATOM      2  N   UNL     1       1.618   3.962  19.223  0.00  0.00    +0.000 NA
ATOM      3  C   UNL     1       2.040   2.542  19.157  0.00  0.00    +0.000 C 
ATOM      4  C   UNL     1       2.677   2.175  17.792  0.00  0.00    +0.000 C 
ATOM      5  C   UNL     1       3.727   3.181  17.503  0.00  0.00    +0.000 A 
ATOM      6  N   UNL     1       4.818   3.027  16.704  0.00  0.00    +0.000 N 
ATOM      7  C   UNL     1       5.593   4.170  16.759  0.00  0.00    +0.000 A 
ATOM      8  C   UNL     1       6.818   4.460  16.149  0.00  0.00    +0.000 A 
ATOM      9  C   UNL     1       7.385   5.714  16.399  0.00  0.00    +0.000 A 
ATOM     10  C   UNL     1       6.746   6.635  17.225  0.00  0.00    +0.000 A 
ATOM     11 CL   UNL     1       7.477   8.168  17.514  0.00  0.00    +0.000 Cl
ATOM     12  C   UNL     1       5.524   6.336  17.833  0.00  0.00    +0.000 A 
ATOM     13  C   UNL     1       4.935   5.079  17.597  0.00  0.00    +0.000 A 
ATOM     14  C   UNL     1       3.751   4.441  18.064  0.00  0.00    +0.000 A 
ATOM     15  C   UNL     1       2.739   4.924  19.055  0.00  0.00    +0.000 C 
ATOM     16  H   UNL     1       5.055   2.198  16.176  0.00  0.00    +0.000 HD
ENDROOT
TORSDOF 0
ENDMDL
MODEL 4
REMARK VINA RESULT:      -6.6      2.539      5.112
REMARK  Name = 
REMARK  1 active torsions:
REMARK  status: ('A' for Active; 'I' for Inactive)
REMARK    1  A    between atoms: C_1  and  N_2
REMARK                            x       y       z     vdW  Elec       q    Type
REMARK                         _______ _______ _______ _____ _____    ______ ____
ROOT
ATOM      1  C   UNL     1       1.964   2.859  21.588  0.00  0.00    +0.000 C 
ATOM      2  N   UNL     1       2.148   3.264  20.193  0.00  0.00    +0.000 NA
ATOM      3  C   UNL     1       2.132   2.073  19.310  0.00  0.00    +0.000 C 
ATOM      4  C   UNL     1       2.230   2.447  17.808  0.00  0.00    +0.000 C 
ATOM      5  C   UNL     1       3.384   3.361  17.648  0.00  0.00    +0.000 A 
ATOM      6  N   UNL     1       4.118   3.574  16.521  0.00  0.00    +0.000 N 
ATOM      7  C   UNL     1       5.156   4.440  16.805  0.00  0.00    +0.000 A 
ATOM      8  C   UNL     1       6.187   4.913  15.985  0.00  0.00    +0.000 A 
ATOM      9  C   UNL     1       7.120   5.786  16.556  0.00  0.00    +0.000 A 
ATOM     10  C   UNL     1       7.017   6.167  17.891  0.00  0.00    +0.000 A 
ATOM     11 CL   UNL     1       8.187   7.240  18.562  0.00  0.00    +0.000 Cl
ATOM     12  C   UNL     1       5.986   5.689  18.703  0.00  0.00    +0.000 A 
ATOM     13  C   UNL     1       5.037   4.807  18.151  0.00  0.00    +0.000 A 
ATOM     14  C   UNL     1       3.908   4.117  18.677  0.00  0.00    +0.000 A 
ATOM     15  C   UNL     1       3.391   4.072  20.081  0.00  0.00    +0.000 C 
ATOM     16  H   UNL     1       3.961   3.141  15.621  0.00  0.00    +0.000 HD
ENDROOT
TORSDOF 0
ENDMDL
MODEL 5
REMARK VINA RESULT:      -6.5      3.286      5.525
REMARK  Name = 
REMARK  1 active torsions:
REMARK  status: ('A' for Active; 'I' for Inactive)
REMARK    1  A    between atoms: C_1  and  N_2
REMARK                            x       y       z     vdW  Elec       q    Type
REMARK                         _______ _______ _______ _____ _____    ______ ____
ROOT
ATOM      1  C   UNL     1       1.553   2.538  21.156  0.00  0.00    +0.000 C 
ATOM      2  N   UNL     1       2.285   3.751  20.787  0.00  0.00    +0.000 NA
ATOM      3  C   UNL     1       1.356   4.904  20.707  0.00  0.00    +0.000 C 
ATOM      4  C   UNL     1       2.090   6.238  20.410  0.00  0.00    +0.000 C 
ATOM      5  C   UNL     1       2.959   6.019  19.231  0.00  0.00    +0.000 A 
ATOM      6  N   UNL     1       3.412   6.956  18.354  0.00  0.00    +0.000 N 
ATOM      7  C   UNL     1       4.129   6.338  17.349  0.00  0.00    +0.000 A 
ATOM      8  C   UNL     1       4.742   6.879  16.213  0.00  0.00    +0.000 A 
ATOM      9  C   UNL     1       5.399   5.996  15.349  0.00  0.00    +0.000 A 
ATOM     10  C   UNL     1       5.437   4.630  15.617  0.00  0.00    +0.000 A 
ATOM     11 CL   UNL     1       6.251   3.572  14.528  0.00  0.00    +0.000 Cl
ATOM     12  C   UNL     1       4.821   4.098  16.752  0.00  0.00    +0.000 A 
ATOM     13  C   UNL     1       4.152   4.968  17.636  0.00  0.00    +0.000 A 
ATOM     14  C   UNL     1       3.406   4.776  18.833  0.00  0.00    +0.000 A 
ATOM     15  C   UNL     1       3.035   3.502  19.527  0.00  0.00    +0.000 C 
ATOM     16  H   UNL     1       3.227   7.949  18.400  0.00  0.00    +0.000 HD
ENDROOT
TORSDOF 0
ENDMDL
MODEL 6
REMARK VINA RESULT:      -6.4      1.847      2.858
REMARK  Name = 
REMARK  1 active torsions:
REMARK  status: ('A' for Active; 'I' for Inactive)
REMARK    1  A    between atoms: C_1  and  N_2
REMARK                            x       y       z     vdW  Elec       q    Type
REMARK                         _______ _______ _______ _____ _____    ______ ____
ROOT
ATOM      1  C   UNL     1       6.741   4.454  14.236  0.00  0.00    +0.000 C 
ATOM      2  N   UNL     1       6.094   5.216  15.306  0.00  0.00    +0.000 NA
ATOM      3  C   UNL     1       7.090   5.595  16.337  0.00  0.00    +0.000 C 
ATOM      4  C   UNL     1       6.480   6.485  17.452  0.00  0.00    +0.000 C 
ATOM      5  C   UNL     1       5.257   5.810  17.945  0.00  0.00    +0.000 A 
ATOM      6  N   UNL     1       4.672   5.952  19.167  0.00  0.00    +0.000 N 
ATOM      7  C   UNL     1       3.595   5.092  19.263  0.00  0.00    +0.000 A 
ATOM      8  C   UNL     1       2.725   4.852  20.333  0.00  0.00    +0.000 A 
ATOM      9  C   UNL     1       1.716   3.901  20.146  0.00  0.00    +0.000 A 
ATOM     10  C   UNL     1       1.588   3.224  18.936  0.00  0.00    +0.000 A 
ATOM     11 CL   UNL     1       0.336   2.057  18.743  0.00  0.00    +0.000 Cl
ATOM     12  C   UNL     1       2.462   3.468  17.874  0.00  0.00    +0.000 A 
ATOM     13  C   UNL     1       3.487   4.420  18.040  0.00  0.00    +0.000 A 
ATOM     14  C   UNL     1       4.547   4.884  17.210  0.00  0.00    +0.000 A 
ATOM     15  C   UNL     1       4.952   4.428  15.843  0.00  0.00    +0.000 C 
ATOM     16  H   UNL     1       4.990   6.560  19.909  0.00  0.00    +0.000 HD
ENDROOT
TORSDOF 0
ENDMDL
MODEL 7
REMARK VINA RESULT:      -6.4      3.009      5.649
REMARK  Name = 
REMARK  1 active torsions:
REMARK  status: ('A' for Active; 'I' for Inactive)
REMARK    1  A    between atoms: C_1  and  N_2
REMARK                            x       y       z     vdW  Elec       q    Type
REMARK                         _______ _______ _______ _____ _____    ______ ____
ROOT
ATOM      1  C   UNL     1       0.713   2.505  18.751  0.00  0.00    +0.000 C 
ATOM      2  N   UNL     1       2.083   2.977  18.960  0.00  0.00    +0.000 NA
ATOM      3  C   UNL     1       2.071   4.280  19.668  0.00  0.00    +0.000 C 
ATOM      4  C   UNL     1       3.499   4.787  20.001  0.00  0.00    +0.000 C 
ATOM      5  C   UNL     1       4.297   4.730  18.755  0.00  0.00    +0.000 A 
ATOM      6  N   UNL     1       5.398   5.468  18.446  0.00  0.00    +0.000 N 
ATOM      7  C   UNL     1       5.803   5.174  17.159  0.00  0.00    +0.000 A 
ATOM      8  C   UNL     1       6.848   5.709  16.397  0.00  0.00    +0.000 A 
ATOM      9  C   UNL     1       7.018   5.220  15.097  0.00  0.00    +0.000 A 
ATOM     10  C   UNL     1       6.173   4.237  14.588  0.00  0.00    +0.000 A 
ATOM     11 CL   UNL     1       6.409   3.663  12.981  0.00  0.00    +0.000 Cl
ATOM     12  C   UNL     1       5.131   3.711  15.354  0.00  0.00    +0.000 A 
ATOM     13  C   UNL     1       4.940   4.188  16.665  0.00  0.00    +0.000 A 
ATOM     14  C   UNL     1       3.988   3.913  17.687  0.00  0.00    +0.000 A 
ATOM     15  C   UNL     1       2.789   3.017  17.652  0.00  0.00    +0.000 C 
ATOM     16  H   UNL     1       5.838   6.155  19.044  0.00  0.00    +0.000 HD
ENDROOT
TORSDOF 0
ENDMDL
MODEL 8
REMARK VINA RESULT:      -6.4      1.632      2.697
REMARK  Name = 
REMARK  1 active torsions:
REMARK  status: ('A' for Active; 'I' for Inactive)
REMARK    1  A    between atoms: C_1  and  N_2
REMARK                            x       y       z     vdW  Elec       q    Type
REMARK                         _______ _______ _______ _____ _____    ______ ____
ROOT
ATOM      1  C   UNL     1       6.498   4.437  13.798  0.00  0.00    +0.000 C 
ATOM      2  N   UNL     1       6.276   4.839  15.188  0.00  0.00    +0.000 NA
ATOM      3  C   UNL     1       7.470   4.520  16.008  0.00  0.00    +0.000 C 
ATOM      4  C   UNL     1       7.330   5.008  17.474  0.00  0.00    +0.000 C 
ATOM      5  C   UNL     1       6.033   4.510  17.990  0.00  0.00    +0.000 A 
ATOM      6  N   UNL     1       5.694   4.288  19.289  0.00  0.00    +0.000 N 
ATOM      7  C   UNL     1       4.422   3.750  19.347  0.00  0.00    +0.000 A 
ATOM      8  C   UNL     1       3.674   3.321  20.448  0.00  0.00    +0.000 A 
ATOM      9  C   UNL     1       2.399   2.799  20.200  0.00  0.00    +0.000 A 
ATOM     10  C   UNL     1       1.901   2.716  18.902  0.00  0.00    +0.000 A 
ATOM     11 CL   UNL     1       0.329   2.064  18.635  0.00  0.00    +0.000 Cl
ATOM     12  C   UNL     1       2.656   3.145  17.809  0.00  0.00    +0.000 A 
ATOM     13  C   UNL     1       3.943   3.672  18.034  0.00  0.00    +0.000 A 
ATOM     14  C   UNL     1       4.974   4.157  17.180  0.00  0.00    +0.000 A 
ATOM     15  C   UNL     1       5.026   4.203  15.684  0.00  0.00    +0.000 C 
ATOM     16  H   UNL     1       6.285   4.452  20.093  0.00  0.00    +0.000 HD
ENDROOT
TORSDOF 0
ENDMDL
MODEL 9
REMARK VINA RESULT:      -6.3      2.260      3.178
REMARK  Name = 
REMARK  1 active torsions:
REMARK  status: ('A' for Active; 'I' for Inactive)
REMARK    1  A    between atoms: C_1  and  N_2
REMARK                            x       y       z     vdW  Elec       q    Type
REMARK                         _______ _______ _______ _____ _____    ______ ____
ROOT
ATOM      1  C   UNL     1       6.325   3.628  14.971  0.00  0.00    +0.000 C 
ATOM      2  N   UNL     1       5.324   4.589  15.440  0.00  0.00    +0.000 NA
ATOM      3  C   UNL     1       5.966   5.894  15.730  0.00  0.00    +0.000 C 
ATOM      4  C   UNL     1       4.940   6.981  16.142  0.00  0.00    +0.000 C 
ATOM      5  C   UNL     1       4.096   6.415  17.221  0.00  0.00    +0.000 A 
ATOM      6  N   UNL     1       3.410   7.101  18.176  0.00  0.00    +0.000 N 
ATOM      7  C   UNL     1       2.811   6.207  19.042  0.00  0.00    +0.000 A 
ATOM      8  C   UNL     1       2.047   6.438  20.191  0.00  0.00    +0.000 A 
ATOM      9  C   UNL     1       1.572   5.321  20.889  0.00  0.00    +0.000 A 
ATOM     10  C   UNL     1       1.853   4.031  20.447  0.00  0.00    +0.000 A 
ATOM     11 CL   UNL     1       1.255   2.680  21.334  0.00  0.00    +0.000 Cl
ATOM     12  C   UNL     1       2.618   3.809  19.300  0.00  0.00    +0.000 A 
ATOM     13  C   UNL     1       3.108   4.918  18.583  0.00  0.00    +0.000 A 
ATOM     14  C   UNL     1       3.925   5.062  17.426  0.00  0.00    +0.000 A 
ATOM     15  C   UNL     1       4.600   4.010  16.602  0.00  0.00    +0.000 C 
ATOM     16  H   UNL     1       3.368   8.107  18.269  0.00  0.00    +0.000 HD
ENDROOT
TORSDOF 0
ENDMDL
