MODEL 1
REMARK VINA RESULT:      -8.3      0.000      0.000
REMARK  Name = 
REMARK  11 active torsions:
REMARK  status: ('A' for Active; 'I' for Inactive)
REMARK    1  A    between atoms: C_1  and  C_2
REMARK    2  A    between atoms: C_2  and  O_3
REMARK    3  A    between atoms: O_3  and  C_4
REMARK    4  A    between atoms: C_4  and  C_6
REMARK    5  A    between atoms: N_13  and  C_14
REMARK    6  A    between atoms: C_14  and  C_15
REMARK    7  A    between atoms: C_15  and  C_17
REMARK    8  A    between atoms: C_23  and  N_24
REMARK    9  A    between atoms: N_24  and  C_25
REMARK   10  A    between atoms: C_25  and  C_26
REMARK   11  A    between atoms: C_26  and  C_27
REMARK                            x       y       z     vdW  Elec       q    Type
REMARK                         _______ _______ _______ _____ _____    ______ ____
ROOT
ATOM      1  C   UNL     1       0.763   9.541  21.475  0.00  0.00    +0.000 A 
ATOM      2  C   UNL     1       1.276   8.244  21.615  0.00  0.00    +0.000 A 
ATOM      3  N   UNL     1       1.844   7.489  20.640  0.00  0.00    +0.000 NA
ATOM      4  C   UNL     1       1.868   8.132  19.458  0.00  0.00    +0.000 A 
ATOM      5  C   UNL     1       1.445   9.433  19.200  0.00  0.00    +0.000 A 
ATOM      6  C   UNL     1       1.745   9.609  17.826  0.00  0.00    +0.000 A 
ATOM      7  N   UNL     1       2.281   8.526  17.255  0.00  0.00    +0.000 NA
ATOM      8  N   UNL     1       2.299   7.620  18.260  0.00  0.00    +0.000 N 
ATOM      9  C   UNL     1       0.884  10.225  20.239  0.00  0.00    +0.000 A 
ENDROOT
BRANCH   1  10
ATOM     10  C   UNL     1       0.009  10.024  22.656  0.00  0.00    +0.000 C 
ATOM     11  O   UNL     1       0.279   9.721  23.807  0.00  0.00    +0.000 OA
BRANCH  10  12
ATOM     12  O   UNL     1      -1.101  10.670  22.230  0.00  0.00    +0.000 OA
BRANCH  12  14
ATOM     13  C   UNL     1      -1.269  12.994  22.989  0.00  0.00    +0.000 C 
ATOM     14  C   UNL     1      -1.751  11.564  23.144  0.00  0.00    +0.000 C 
ENDBRANCH  12  14
ENDBRANCH  10  12
ENDBRANCH   1  10
BRANCH   9  15
ATOM     15  N   UNL     1       0.488  11.533  19.970  0.00  0.00    +0.000 N 
ATOM     16  H   UNL     1       0.710  12.215  20.688  0.00  0.00    +0.000 HD
BRANCH  15  17
ATOM     17  C   UNL     1      -0.702  11.835  19.174  0.00  0.00    +0.000 C 
BRANCH  17  18
ATOM     18  C   UNL     1      -1.702  10.671  19.177  0.00  0.00    +0.000 C 
BRANCH  18  19
ATOM     19  C   UNL     1      -2.511  10.657  17.895  0.00  0.00    +0.000 A 
ATOM     20  C   UNL     1      -1.995   9.971  16.781  0.00  0.00    +0.000 A 
ATOM     21  C   UNL     1      -2.668   9.981  15.558  0.00  0.00    +0.000 A 
ATOM     22  C   UNL     1      -3.866  10.678  15.425  0.00  0.00    +0.000 A 
ATOM     23  C   UNL     1      -4.392  11.365  16.519  0.00  0.00    +0.000 A 
ATOM     24  C   UNL     1      -3.719  11.358  17.745  0.00  0.00    +0.000 A 
ATOM     25 CL   UNL     1      -4.427  12.251  19.044  0.00  0.00    +0.000 Cl
ENDBRANCH  18  19
ENDBRANCH  17  18
ENDBRANCH  15  17
ENDBRANCH   9  15
BRANCH   8  26
ATOM     26  C   UNL     1       2.799   6.283  18.000  0.00  0.00    +0.000 C 
BRANCH  26  27
ATOM     27  C   UNL     1       4.184   5.978  18.589  0.00  0.00    +0.000 C 
ATOM     28 CL   UNL     1       4.116   4.700  19.854  0.00  0.00    +0.000 Cl
BRANCH  27  29
ATOM     29  C   UNL     1       5.181   5.547  17.524  0.00  0.00    +0.000 A 
ATOM     30  C   UNL     1       6.372   4.897  17.882  0.00  0.00    +0.000 A 
ATOM     31  C   UNL     1       7.291   4.494  16.908  0.00  0.00    +0.000 A 
ATOM     32  C   UNL     1       7.032   4.732  15.560  0.00  0.00    +0.000 A 
ATOM     33  C   UNL     1       5.854   5.370  15.185  0.00  0.00    +0.000 A 
ATOM     34  C   UNL     1       4.933   5.771  16.154  0.00  0.00    +0.000 A 
ENDBRANCH  27  29
ENDBRANCH  26  27
ENDBRANCH   8  26
TORSDOF 10
ENDMDL
MODEL 2
REMARK VINA RESULT:      -8.2      3.814      6.245
REMARK  Name = 
REMARK  11 active torsions:
REMARK  status: ('A' for Active; 'I' for Inactive)
REMARK    1  A    between atoms: C_1  and  C_2
REMARK    2  A    between atoms: C_2  and  O_3
REMARK    3  A    between atoms: O_3  and  C_4
REMARK    4  A    between atoms: C_4  and  C_6
REMARK    5  A    between atoms: N_13  and  C_14
REMARK    6  A    between atoms: C_14  and  C_15
REMARK    7  A    between atoms: C_15  and  C_17
REMARK    8  A    between atoms: C_23  and  N_24
REMARK    9  A    between atoms: N_24  and  C_25
REMARK   10  A    between atoms: C_25  and  C_26
REMARK   11  A    between atoms: C_26  and  C_27
REMARK                            x       y       z     vdW  Elec       q    Type
REMARK                         _______ _______ _______ _____ _____    ______ ____
ROOT
ATOM      1  C   UNL     1       2.855   4.345  18.176  0.00  0.00    +0.000 A 
ATOM      2  C   UNL     1       3.542   3.316  17.516  0.00  0.00    +0.000 A 
ATOM      3  N   UNL     1       4.631   3.454  16.716  0.00  0.00    +0.000 NA
ATOM      4  C   UNL     1       5.010   4.740  16.604  0.00  0.00    +0.000 A 
ATOM      5  C   UNL     1       4.453   5.841  17.248  0.00  0.00    +0.000 A 
ATOM      6  C   UNL     1       5.263   6.920  16.817  0.00  0.00    +0.000 A 
ATOM      7  N   UNL     1       6.227   6.554  15.965  0.00  0.00    +0.000 NA
ATOM      8  N   UNL     1       6.019   5.226  15.811  0.00  0.00    +0.000 N 
ATOM      9  C   UNL     1       3.334   5.677  18.111  0.00  0.00    +0.000 A 
ENDROOT
BRANCH   1  10
ATOM     10  C   UNL     1       1.578   3.918  18.796  0.00  0.00    +0.000 C 
ATOM     11  O   UNL     1       0.761   3.197  18.245  0.00  0.00    +0.000 OA
BRANCH  10  12
ATOM     12  O   UNL     1       1.403   4.603  19.949  0.00  0.00    +0.000 OA
BRANCH  12  14
ATOM     13  C   UNL     1       1.595   2.705  21.487  0.00  0.00    +0.000 C 
ATOM     14  C   UNL     1       2.049   4.107  21.130  0.00  0.00    +0.000 C 
ENDBRANCH  12  14
ENDBRANCH  10  12
ENDBRANCH   1  10
BRANCH   9  15
ATOM     15  N   UNL     1       2.802   6.786  18.766  0.00  0.00    +0.000 N 
ATOM     16  H   UNL     1       2.795   6.734  19.780  0.00  0.00    +0.000 HD
BRANCH  15  17
ATOM     17  C   UNL     1       1.735   7.596  18.179  0.00  0.00    +0.000 C 
BRANCH  17  18
ATOM     18  C   UNL     1       1.886   9.083  18.531  0.00  0.00    +0.000 C 
BRANCH  18  19
ATOM     19  C   UNL     1       1.095   9.420  19.780  0.00  0.00    +0.000 A 
ATOM     20  C   UNL     1       1.291   8.639  20.932  0.00  0.00    +0.000 A 
ATOM     21  C   UNL     1       0.542   8.866  22.089  0.00  0.00    +0.000 A 
ATOM     22  C   UNL     1      -0.417   9.875  22.113  0.00  0.00    +0.000 A 
ATOM     23  C   UNL     1      -0.625  10.659  20.978  0.00  0.00    +0.000 A 
ATOM     24  C   UNL     1       0.122  10.433  19.819  0.00  0.00    +0.000 A 
ATOM     25 CL   UNL     1      -0.212  11.434  18.450  0.00  0.00    +0.000 Cl
ENDBRANCH  18  19
ENDBRANCH  17  18
ENDBRANCH  15  17
ENDBRANCH   9  15
BRANCH   8  26
ATOM     26  C   UNL     1       6.876   4.475  14.913  0.00  0.00    +0.000 C 
BRANCH  26  27
ATOM     27  C   UNL     1       6.782   4.877  13.433  0.00  0.00    +0.000 C 
ATOM     28 CL   UNL     1       8.288   5.671  12.850  0.00  0.00    +0.000 Cl
BRANCH  27  29
ATOM     29  C   UNL     1       6.486   3.689  12.532  0.00  0.00    +0.000 A 
ATOM     30  C   UNL     1       5.160   3.313  12.257  0.00  0.00    +0.000 A 
ATOM     31  C   UNL     1       4.881   2.225  11.427  0.00  0.00    +0.000 A 
ATOM     32  C   UNL     1       5.920   1.494  10.854  0.00  0.00    +0.000 A 
ATOM     33  C   UNL     1       7.240   1.855  11.108  0.00  0.00    +0.000 A 
ATOM     34  C   UNL     1       7.523   2.942  11.935  0.00  0.00    +0.000 A 
ENDBRANCH  27  29
ENDBRANCH  26  27
ENDBRANCH   8  26
TORSDOF 10
ENDMDL
MODEL 3
REMARK VINA RESULT:      -8.2      3.016      8.727
REMARK  Name = 
REMARK  11 active torsions:
REMARK  status: ('A' for Active; 'I' for Inactive)
REMARK    1  A    between atoms: C_1  and  C_2
REMARK    2  A    between atoms: C_2  and  O_3
REMARK    3  A    between atoms: O_3  and  C_4
REMARK    4  A    between atoms: C_4  and  C_6
REMARK    5  A    between atoms: N_13  and  C_14
REMARK    6  A    between atoms: C_14  and  C_15
REMARK    7  A    between atoms: C_15  and  C_17
REMARK    8  A    between atoms: C_23  and  N_24
REMARK    9  A    between atoms: N_24  and  C_25
REMARK   10  A    between atoms: C_25  and  C_26
REMARK   11  A    between atoms: C_26  and  C_27
REMARK                            x       y       z     vdW  Elec       q    Type
REMARK                         _______ _______ _______ _____ _____    ______ ____
ROOT
ATOM      1  C   UNL     1       3.233   6.961  18.573  0.00  0.00    +0.000 A 
ATOM      2  C   UNL     1       3.013   8.053  17.722  0.00  0.00    +0.000 A 
ATOM      3  N   UNL     1       2.149   9.079  17.931  0.00  0.00    +0.000 NA
ATOM      4  C   UNL     1       1.481   8.944  19.091  0.00  0.00    +0.000 A 
ATOM      5  C   UNL     1       1.646   7.944  20.045  0.00  0.00    +0.000 A 
ATOM      6  C   UNL     1       0.742   8.316  21.071  0.00  0.00    +0.000 A 
ATOM      7  N   UNL     1       0.051   9.426  20.794  0.00  0.00    +0.000 NA
ATOM      8  N   UNL     1       0.483   9.763  19.556  0.00  0.00    +0.000 N 
ATOM      9  C   UNL     1       2.581   6.894  19.829  0.00  0.00    +0.000 A 
ENDROOT
BRANCH   1  10
ATOM     10  C   UNL     1       4.070   5.891  17.979  0.00  0.00    +0.000 C 
ATOM     11  O   UNL     1       3.882   5.416  16.870  0.00  0.00    +0.000 OA
BRANCH  10  12
ATOM     12  O   UNL     1       4.914   5.422  18.926  0.00  0.00    +0.000 OA
BRANCH  12  14
ATOM     13  C   UNL     1       7.293   5.760  18.443  0.00  0.00    +0.000 C 
ATOM     14  C   UNL     1       6.127   4.790  18.492  0.00  0.00    +0.000 C 
ENDBRANCH  12  14
ENDBRANCH  10  12
ENDBRANCH   1  10
BRANCH   9  15
ATOM     15  N   UNL     1       2.751   5.914  20.805  0.00  0.00    +0.000 N 
ATOM     16  H   UNL     1       3.685   5.524  20.876  0.00  0.00    +0.000 HD
BRANCH  15  17
ATOM     17  C   UNL     1       1.669   5.007  21.190  0.00  0.00    +0.000 C 
BRANCH  17  18
ATOM     18  C   UNL     1       2.138   3.546  21.240  0.00  0.00    +0.000 C 
BRANCH  18  19
ATOM     19  C   UNL     1       2.456   3.038  19.848  0.00  0.00    +0.000 A 
ATOM     20  C   UNL     1       1.552   3.313  18.807  0.00  0.00    +0.000 A 
ATOM     21  C   UNL     1       1.765   2.814  17.521  0.00  0.00    +0.000 A 
ATOM     22  C   UNL     1       2.882   2.029  17.252  0.00  0.00    +0.000 A 
ATOM     23  C   UNL     1       3.789   1.743  18.272  0.00  0.00    +0.000 A 
ATOM     24  C   UNL     1       3.578   2.241  19.562  0.00  0.00    +0.000 A 
ATOM     25 CL   UNL     1       4.738   1.825  20.773  0.00  0.00    +0.000 Cl
ENDBRANCH  18  19
ENDBRANCH  17  18
ENDBRANCH  15  17
ENDBRANCH   9  15
BRANCH   8  26
ATOM     26  C   UNL     1      -0.081  10.928  18.902  0.00  0.00    +0.000 C 
BRANCH  26  27
ATOM     27  C   UNL     1      -1.583  11.147  19.140  0.00  0.00    +0.000 C 
ATOM     28 CL   UNL     1      -1.936  12.797  19.764  0.00  0.00    +0.000 Cl
BRANCH  27  29
ATOM     29  C   UNL     1      -2.404  10.924  17.879  0.00  0.00    +0.000 A 
ATOM     30  C   UNL     1      -1.950  10.050  16.877  0.00  0.00    +0.000 A 
ATOM     31  C   UNL     1      -2.701   9.838  15.717  0.00  0.00    +0.000 A 
ATOM     32  C   UNL     1      -3.919  10.492  15.541  0.00  0.00    +0.000 A 
ATOM     33  C   UNL     1      -4.388  11.356  16.525  0.00  0.00    +0.000 A 
ATOM     34  C   UNL     1      -3.642  11.570  17.685  0.00  0.00    +0.000 A 
ENDBRANCH  27  29
ENDBRANCH  26  27
ENDBRANCH   8  26
TORSDOF 10
ENDMDL
MODEL 4
REMARK VINA RESULT:      -7.9      2.754      8.676
REMARK  Name = 
REMARK  11 active torsions:
REMARK  status: ('A' for Active; 'I' for Inactive)
REMARK    1  A    between atoms: C_1  and  C_2
REMARK    2  A    between atoms: C_2  and  O_3
REMARK    3  A    between atoms: O_3  and  C_4
REMARK    4  A    between atoms: C_4  and  C_6
REMARK    5  A    between atoms: N_13  and  C_14
REMARK    6  A    between atoms: C_14  and  C_15
REMARK    7  A    between atoms: C_15  and  C_17
REMARK    8  A    between atoms: C_23  and  N_24
REMARK    9  A    between atoms: N_24  and  C_25
REMARK   10  A    between atoms: C_25  and  C_26
REMARK   11  A    between atoms: C_26  and  C_27
REMARK                            x       y       z     vdW  Elec       q    Type
REMARK                         _______ _______ _______ _____ _____    ______ ____
ROOT
ATOM      1  C   UNL     1       2.273   8.058  18.667  0.00  0.00    +0.000 A 
ATOM      2  C   UNL     1       1.972   9.255  18.001  0.00  0.00    +0.000 A 
ATOM      3  N   UNL     1       1.204  10.270  18.472  0.00  0.00    +0.000 NA
ATOM      4  C   UNL     1       0.726  10.009  19.703  0.00  0.00    +0.000 A 
ATOM      5  C   UNL     1       0.994   8.892  20.489  0.00  0.00    +0.000 A 
ATOM      6  C   UNL     1       0.287   9.157  21.688  0.00  0.00    +0.000 A 
ATOM      7  N   UNL     1      -0.385  10.312  21.666  0.00  0.00    +0.000 NA
ATOM      8  N   UNL     1      -0.143  10.789  20.423  0.00  0.00    +0.000 N 
ATOM      9  C   UNL     1       1.830   7.851  19.997  0.00  0.00    +0.000 A 
ENDROOT
BRANCH   1  10
ATOM     10  C   UNL     1       2.950   7.049  17.818  0.00  0.00    +0.000 C 
ATOM     11  O   UNL     1       2.479   5.954  17.556  0.00  0.00    +0.000 OA
BRANCH  10  12
ATOM     12  O   UNL     1       4.211   7.467  17.565  0.00  0.00    +0.000 OA
BRANCH  12  14
ATOM     13  C   UNL     1       6.492   6.635  17.230  0.00  0.00    +0.000 C 
ATOM     14  C   UNL     1       5.050   6.627  16.759  0.00  0.00    +0.000 C 
ENDBRANCH  12  14
ENDBRANCH  10  12
ENDBRANCH   1  10
BRANCH   9  15
ATOM     15  N   UNL     1       2.107   6.752  20.806  0.00  0.00    +0.000 N 
ATOM     16  H   UNL     1       3.082   6.629  21.060  0.00  0.00    +0.000 HD
BRANCH  15  17
ATOM     17  C   UNL     1       1.327   5.517  20.731  0.00  0.00    +0.000 C 
BRANCH  17  18
ATOM     18  C   UNL     1       2.155   4.291  21.139  0.00  0.00    +0.000 C 
BRANCH  18  19
ATOM     19  C   UNL     1       2.817   3.664  19.929  0.00  0.00    +0.000 A 
ATOM     20  C   UNL     1       4.168   3.959  19.672  0.00  0.00    +0.000 A 
ATOM     21  C   UNL     1       4.808   3.460  18.536  0.00  0.00    +0.000 A 
ATOM     22  C   UNL     1       4.110   2.661  17.635  0.00  0.00    +0.000 A 
ATOM     23  C   UNL     1       2.769   2.360  17.872  0.00  0.00    +0.000 A 
ATOM     24  C   UNL     1       2.125   2.858  19.009  0.00  0.00    +0.000 A 
ATOM     25 CL   UNL     1       0.458   2.455  19.219  0.00  0.00    +0.000 Cl
ENDBRANCH  18  19
ENDBRANCH  17  18
ENDBRANCH  15  17
ENDBRANCH   9  15
BRANCH   8  26
ATOM     26  C   UNL     1      -0.748  12.044  20.016  0.00  0.00    +0.000 C 
BRANCH  26  27
ATOM     27  C   UNL     1      -2.284  12.064  20.039  0.00  0.00    +0.000 C 
ATOM     28 CL   UNL     1      -2.932  13.666  20.542  0.00  0.00    +0.000 Cl
BRANCH  27  29
ATOM     29  C   UNL     1      -2.884  11.706  18.688  0.00  0.00    +0.000 A 
ATOM     30  C   UNL     1      -2.056  11.364  17.606  0.00  0.00    +0.000 A 
ATOM     31  C   UNL     1      -2.601  11.030  16.363  0.00  0.00    +0.000 A 
ATOM     32  C   UNL     1      -3.982  11.029  16.180  0.00  0.00    +0.000 A 
ATOM     33  C   UNL     1      -4.820  11.359  17.242  0.00  0.00    +0.000 A 
ATOM     34  C   UNL     1      -4.280  11.691  18.485  0.00  0.00    +0.000 A 
ENDBRANCH  27  29
ENDBRANCH  26  27
ENDBRANCH   8  26
TORSDOF 10
ENDMDL
MODEL 5
REMARK VINA RESULT:      -7.9      3.934      6.172
REMARK  Name = 
REMARK  11 active torsions:
REMARK  status: ('A' for Active; 'I' for Inactive)
REMARK    1  A    between atoms: C_1  and  C_2
REMARK    2  A    between atoms: C_2  and  O_3
REMARK    3  A    between atoms: O_3  and  C_4
REMARK    4  A    between atoms: C_4  and  C_6
REMARK    5  A    between atoms: N_13  and  C_14
REMARK    6  A    between atoms: C_14  and  C_15
REMARK    7  A    between atoms: C_15  and  C_17
REMARK    8  A    between atoms: C_23  and  N_24
REMARK    9  A    between atoms: N_24  and  C_25
REMARK   10  A    between atoms: C_25  and  C_26
REMARK   11  A    between atoms: C_26  and  C_27
REMARK                            x       y       z     vdW  Elec       q    Type
REMARK                         _______ _______ _______ _____ _____    ______ ____
ROOT
ATOM      1  C   UNL     1       2.788   3.922  18.086  0.00  0.00    +0.000 A 
ATOM      2  C   UNL     1       3.764   3.030  17.621  0.00  0.00    +0.000 A 
ATOM      3  N   UNL     1       4.834   3.336  16.844  0.00  0.00    +0.000 NA
ATOM      4  C   UNL     1       4.873   4.646  16.537  0.00  0.00    +0.000 A 
ATOM      5  C   UNL     1       4.003   5.639  16.978  0.00  0.00    +0.000 A 
ATOM      6  C   UNL     1       4.534   6.820  16.403  0.00  0.00    +0.000 A 
ATOM      7  N   UNL     1       5.618   6.605  15.651  0.00  0.00    +0.000 NA
ATOM      8  N   UNL     1       5.775   5.262  15.707  0.00  0.00    +0.000 N 
ATOM      9  C   UNL     1       2.906   5.310  17.822  0.00  0.00    +0.000 A 
ENDROOT
BRANCH   1  10
ATOM     10  C   UNL     1       1.624   3.265  18.728  0.00  0.00    +0.000 C 
ATOM     11  O   UNL     1       1.044   2.298  18.259  0.00  0.00    +0.000 OA
BRANCH  10  12
ATOM     12  O   UNL     1       1.221   4.018  19.776  0.00  0.00    +0.000 OA
BRANCH  12  14
ATOM     13  C   UNL     1       1.638   2.589  21.723  0.00  0.00    +0.000 C 
ATOM     14  C   UNL     1       1.941   3.894  21.010  0.00  0.00    +0.000 C 
ENDBRANCH  12  14
ENDBRANCH  10  12
ENDBRANCH   1  10
BRANCH   9  15
ATOM     15  N   UNL     1       2.059   6.319  18.273  0.00  0.00    +0.000 N 
ATOM     16  H   UNL     1       1.428   6.706  17.578  0.00  0.00    +0.000 HD
BRANCH  15  17
ATOM     17  C   UNL     1       2.451   7.243  19.337  0.00  0.00    +0.000 C 
BRANCH  17  18
ATOM     18  C   UNL     1       2.470   8.699  18.852  0.00  0.00    +0.000 C 
BRANCH  18  19
ATOM     19  C   UNL     1       1.136   9.369  19.117  0.00  0.00    +0.000 A 
ATOM     20  C   UNL     1       0.356   9.775  18.019  0.00  0.00    +0.000 A 
ATOM     21  C   UNL     1      -0.849  10.454  18.208  0.00  0.00    +0.000 A 
ATOM     22  C   UNL     1      -1.296  10.741  19.495  0.00  0.00    +0.000 A 
ATOM     23  C   UNL     1      -0.534  10.347  20.595  0.00  0.00    +0.000 A 
ATOM     24  C   UNL     1       0.674   9.668  20.410  0.00  0.00    +0.000 A 
ATOM     25 CL   UNL     1       1.566   9.234  21.824  0.00  0.00    +0.000 Cl
ENDBRANCH  18  19
ENDBRANCH  17  18
ENDBRANCH  15  17
ENDBRANCH   9  15
BRANCH   8  26
ATOM     26  C   UNL     1       6.860   4.645  14.968  0.00  0.00    +0.000 C 
BRANCH  26  27
ATOM     27  C   UNL     1       6.910   4.990  13.472  0.00  0.00    +0.000 C 
ATOM     28 CL   UNL     1       8.539   5.563  12.963  0.00  0.00    +0.000 Cl
BRANCH  27  29
ATOM     29  C   UNL     1       6.521   3.810  12.596  0.00  0.00    +0.000 A 
ATOM     30  C   UNL     1       7.507   2.995  12.015  0.00  0.00    +0.000 A 
ATOM     31  C   UNL     1       7.156   1.906  11.212  0.00  0.00    +0.000 A 
ATOM     32  C   UNL     1       5.814   1.611  10.978  0.00  0.00    +0.000 A 
ATOM     33  C   UNL     1       4.823   2.403  11.549  0.00  0.00    +0.000 A 
ATOM     34  C   UNL     1       5.169   3.489  12.354  0.00  0.00    +0.000 A 
ENDBRANCH  27  29
ENDBRANCH  26  27
ENDBRANCH   8  26
TORSDOF 10
ENDMDL
MODEL 6
REMARK VINA RESULT:      -7.9      3.070      8.787
REMARK  Name = 
REMARK  11 active torsions:
REMARK  status: ('A' for Active; 'I' for Inactive)
REMARK    1  A    between atoms: C_1  and  C_2
REMARK    2  A    between atoms: C_2  and  O_3
REMARK    3  A    between atoms: O_3  and  C_4
REMARK    4  A    between atoms: C_4  and  C_6
REMARK    5  A    between atoms: N_13  and  C_14
REMARK    6  A    between atoms: C_14  and  C_15
REMARK    7  A    between atoms: C_15  and  C_17
REMARK    8  A    between atoms: C_23  and  N_24
REMARK    9  A    between atoms: N_24  and  C_25
REMARK   10  A    between atoms: C_25  and  C_26
REMARK   11  A    between atoms: C_26  and  C_27
REMARK                            x       y       z     vdW  Elec       q    Type
REMARK                         _______ _______ _______ _____ _____    ______ ____
ROOT
ATOM      1  C   UNL     1       2.823   7.132  18.646  0.00  0.00    +0.000 A 
ATOM      2  C   UNL     1       2.649   8.268  17.843  0.00  0.00    +0.000 A 
ATOM      3  N   UNL     1       1.866   9.342  18.121  0.00  0.00    +0.000 NA
ATOM      4  C   UNL     1       1.232   9.210  19.300  0.00  0.00    +0.000 A 
ATOM      5  C   UNL     1       1.361   8.165  20.211  0.00  0.00    +0.000 A 
ATOM      6  C   UNL     1       0.523   8.559  21.283  0.00  0.00    +0.000 A 
ATOM      7  N   UNL     1      -0.099   9.723  21.073  0.00  0.00    +0.000 NA
ATOM      8  N   UNL     1       0.311  10.076  19.832  0.00  0.00    +0.000 N 
ATOM      9  C   UNL     1       2.212   7.063  19.923  0.00  0.00    +0.000 A 
ENDROOT
BRANCH   1  10
ATOM     10  C   UNL     1       3.561   6.031  17.983  0.00  0.00    +0.000 C 
ATOM     11  O   UNL     1       3.022   5.081  17.439  0.00  0.00    +0.000 OA
BRANCH  10  12
ATOM     12  O   UNL     1       4.879   6.166  18.254  0.00  0.00    +0.000 OA
BRANCH  12  14
ATOM     13  C   UNL     1       7.223   5.856  17.606  0.00  0.00    +0.000 C 
ATOM     14  C   UNL     1       5.801   5.329  17.542  0.00  0.00    +0.000 C 
ENDBRANCH  12  14
ENDBRANCH  10  12
ENDBRANCH   1  10
BRANCH   9  15
ATOM     15  N   UNL     1       2.349   6.037  20.856  0.00  0.00    +0.000 N 
ATOM     16  H   UNL     1       3.301   5.812  21.124  0.00  0.00    +0.000 HD
BRANCH  15  17
ATOM     17  C   UNL     1       1.404   4.922  20.927  0.00  0.00    +0.000 C 
BRANCH  17  18
ATOM     18  C   UNL     1       2.080   3.629  21.403  0.00  0.00    +0.000 C 
BRANCH  18  19
ATOM     19  C   UNL     1       2.663   2.866  20.230  0.00  0.00    +0.000 A 
ATOM     20  C   UNL     1       4.053   2.665  20.180  0.00  0.00    +0.000 A 
ATOM     21  C   UNL     1       4.648   2.025  19.091  0.00  0.00    +0.000 A 
ATOM     22  C   UNL     1       3.864   1.577  18.031  0.00  0.00    +0.000 A 
ATOM     23  C   UNL     1       2.483   1.769  18.063  0.00  0.00    +0.000 A 
ATOM     24  C   UNL     1       1.885   2.410  19.152  0.00  0.00    +0.000 A 
ATOM     25 CL   UNL     1       0.171   2.626  19.104  0.00  0.00    +0.000 Cl
ENDBRANCH  18  19
ENDBRANCH  17  18
ENDBRANCH  15  17
ENDBRANCH   9  15
BRANCH   8  26
ATOM     26  C   UNL     1      -0.194  11.301  19.241  0.00  0.00    +0.000 C 
BRANCH  26  27
ATOM     27  C   UNL     1      -1.699  11.544  19.430  0.00  0.00    +0.000 C 
ATOM     28 CL   UNL     1      -2.054  13.235  19.933  0.00  0.00    +0.000 Cl
BRANCH  27  29
ATOM     29  C   UNL     1      -2.493  11.242  18.168  0.00  0.00    +0.000 A 
ATOM     30  C   UNL     1      -3.808  11.714  18.021  0.00  0.00    +0.000 A 
ATOM     31  C   UNL     1      -4.542  11.444  16.863  0.00  0.00    +0.000 A 
ATOM     32  C   UNL     1      -3.974  10.701  15.830  0.00  0.00    +0.000 A 
ATOM     33  C   UNL     1      -2.671  10.230  15.954  0.00  0.00    +0.000 A 
ATOM     34  C   UNL     1      -1.933  10.499  17.108  0.00  0.00    +0.000 A 
ENDBRANCH  27  29
ENDBRANCH  26  27
ENDBRANCH   8  26
TORSDOF 10
ENDMDL
MODEL 7
REMARK VINA RESULT:      -7.9      1.145      1.682
REMARK  Name = 
REMARK  11 active torsions:
REMARK  status: ('A' for Active; 'I' for Inactive)
REMARK    1  A    between atoms: C_1  and  C_2
REMARK    2  A    between atoms: C_2  and  O_3
REMARK    3  A    between atoms: O_3  and  C_4
REMARK    4  A    between atoms: C_4  and  C_6
REMARK    5  A    between atoms: N_13  and  C_14
REMARK    6  A    between atoms: C_14  and  C_15
REMARK    7  A    between atoms: C_15  and  C_17
REMARK    8  A    between atoms: C_23  and  N_24
REMARK    9  A    between atoms: N_24  and  C_25
REMARK   10  A    between atoms: C_25  and  C_26
REMARK   11  A    between atoms: C_26  and  C_27
REMARK                            x       y       z     vdW  Elec       q    Type
REMARK                         _______ _______ _______ _____ _____    ______ ____
ROOT
ATOM      1  C   UNL     1       0.552   9.884  21.352  0.00  0.00    +0.000 A 
ATOM      2  C   UNL     1       0.919   8.553  21.592  0.00  0.00    +0.000 A 
ATOM      3  N   UNL     1       1.495   7.700  20.706  0.00  0.00    +0.000 NA
ATOM      4  C   UNL     1       1.687   8.279  19.506  0.00  0.00    +0.000 A 
ATOM      5  C   UNL     1       1.420   9.600  19.157  0.00  0.00    +0.000 A 
ATOM      6  C   UNL     1       1.857   9.678  17.812  0.00  0.00    +0.000 A 
ATOM      7  N   UNL     1       2.333   8.523  17.337  0.00  0.00    +0.000 NA
ATOM      8  N   UNL     1       2.170   7.669  18.376  0.00  0.00    +0.000 N 
ATOM      9  C   UNL     1       0.850  10.492  20.107  0.00  0.00    +0.000 A 
ENDROOT
BRANCH   1  10
ATOM     10  C   UNL     1      -0.253  10.494  22.437  0.00  0.00    +0.000 C 
ATOM     11  O   UNL     1      -0.153  10.188  23.614  0.00  0.00    +0.000 OA
BRANCH  10  12
ATOM     12  O   UNL     1      -1.212  11.272  21.883  0.00  0.00    +0.000 OA
BRANCH  12  14
ATOM     13  C   UNL     1      -3.057  12.237  23.175  0.00  0.00    +0.000 C 
ATOM     14  C   UNL     1      -1.656  12.419  22.622  0.00  0.00    +0.000 C 
ENDBRANCH  12  14
ENDBRANCH  10  12
ENDBRANCH   1  10
BRANCH   9  15
ATOM     15  N   UNL     1       0.611  11.817  19.748  0.00  0.00    +0.000 N 
ATOM     16  H   UNL     1       0.810  12.507  20.465  0.00  0.00    +0.000 HD
BRANCH  15  17
ATOM     17  C   UNL     1      -0.444  12.188  18.806  0.00  0.00    +0.000 C 
BRANCH  17  18
ATOM     18  C   UNL     1      -1.341  10.993  18.452  0.00  0.00    +0.000 C 
BRANCH  18  19
ATOM     19  C   UNL     1      -2.771  11.443  18.233  0.00  0.00    +0.000 A 
ATOM     20  C   UNL     1      -3.480  11.987  19.318  0.00  0.00    +0.000 A 
ATOM     21  C   UNL     1      -4.819  12.358  19.187  0.00  0.00    +0.000 A 
ATOM     22  C   UNL     1      -5.476  12.189  17.971  0.00  0.00    +0.000 A 
ATOM     23  C   UNL     1      -4.789  11.649  16.884  0.00  0.00    +0.000 A 
ATOM     24  C   UNL     1      -3.447  11.276  17.012  0.00  0.00    +0.000 A 
ATOM     25 CL   UNL     1      -2.675  10.597  15.624  0.00  0.00    +0.000 Cl
ENDBRANCH  18  19
ENDBRANCH  17  18
ENDBRANCH  15  17
ENDBRANCH   9  15
BRANCH   8  26
ATOM     26  C   UNL     1       2.557   6.280  18.217  0.00  0.00    +0.000 C 
BRANCH  26  27
ATOM     27  C   UNL     1       3.926   5.912  18.809  0.00  0.00    +0.000 C 
ATOM     28 CL   UNL     1       3.829   4.491  19.909  0.00  0.00    +0.000 Cl
BRANCH  27  29
ATOM     29  C   UNL     1       4.957   5.616  17.731  0.00  0.00    +0.000 A 
ATOM     30  C   UNL     1       4.653   4.747  16.671  0.00  0.00    +0.000 A 
ATOM     31  C   UNL     1       5.594   4.473  15.675  0.00  0.00    +0.000 A 
ATOM     32  C   UNL     1       6.855   5.065  15.719  0.00  0.00    +0.000 A 
ATOM     33  C   UNL     1       7.173   5.934  16.759  0.00  0.00    +0.000 A 
ATOM     34  C   UNL     1       6.235   6.212  17.754  0.00  0.00    +0.000 A 
ENDBRANCH  27  29
ENDBRANCH  26  27
ENDBRANCH   8  26
TORSDOF 10
ENDMDL
MODEL 8
REMARK VINA RESULT:      -7.8      3.917      6.251
REMARK  Name = 
REMARK  11 active torsions:
REMARK  status: ('A' for Active; 'I' for Inactive)
REMARK    1  A    between atoms: C_1  and  C_2
REMARK    2  A    between atoms: C_2  and  O_3
REMARK    3  A    between atoms: O_3  and  C_4
REMARK    4  A    between atoms: C_4  and  C_6
REMARK    5  A    between atoms: N_13  and  C_14
REMARK    6  A    between atoms: C_14  and  C_15
REMARK    7  A    between atoms: C_15  and  C_17
REMARK    8  A    between atoms: C_23  and  N_24
REMARK    9  A    between atoms: N_24  and  C_25
REMARK   10  A    between atoms: C_25  and  C_26
REMARK   11  A    between atoms: C_26  and  C_27
REMARK                            x       y       z     vdW  Elec       q    Type
REMARK                         _______ _______ _______ _____ _____    ______ ____
ROOT
ATOM      1  C   UNL     1       2.844   4.297  18.120  0.00  0.00    +0.000 A 
ATOM      2  C   UNL     1       3.567   3.280  17.481  0.00  0.00    +0.000 A 
ATOM      3  N   UNL     1       4.655   3.440  16.685  0.00  0.00    +0.000 NA
ATOM      4  C   UNL     1       4.994   4.736  16.552  0.00  0.00    +0.000 A 
ATOM      5  C   UNL     1       4.397   5.828  17.174  0.00  0.00    +0.000 A 
ATOM      6  C   UNL     1       5.175   6.925  16.728  0.00  0.00    +0.000 A 
ATOM      7  N   UNL     1       6.154   6.577  15.888  0.00  0.00    +0.000 NA
ATOM      8  N   UNL     1       5.991   5.240  15.756  0.00  0.00    +0.000 N 
ATOM      9  C   UNL     1       3.279   5.643  18.034  0.00  0.00    +0.000 A 
ENDROOT
BRANCH   1  10
ATOM     10  C   UNL     1       1.578   3.839  18.740  0.00  0.00    +0.000 C 
ATOM     11  O   UNL     1       0.790   3.080  18.200  0.00  0.00    +0.000 OA
BRANCH  10  12
ATOM     12  O   UNL     1       1.372   4.541  19.878  0.00  0.00    +0.000 OA
BRANCH  12  14
ATOM     13  C   UNL     1       2.550   2.789  21.121  0.00  0.00    +0.000 C 
ATOM     14  C   UNL     1       1.455   3.839  21.126  0.00  0.00    +0.000 C 
ENDBRANCH  12  14
ENDBRANCH  10  12
ENDBRANCH   1  10
BRANCH   9  15
ATOM     15  N   UNL     1       2.708   6.745  18.667  0.00  0.00    +0.000 N 
ATOM     16  H   UNL     1       1.903   6.546  19.252  0.00  0.00    +0.000 HD
BRANCH  15  17
ATOM     17  C   UNL     1       2.724   8.079  18.067  0.00  0.00    +0.000 C 
BRANCH  17  18
ATOM     18  C   UNL     1       1.330   8.720  18.062  0.00  0.00    +0.000 C 
BRANCH  18  19
ATOM     19  C   UNL     1       1.397  10.150  18.561  0.00  0.00    +0.000 A 
ATOM     20  C   UNL     1       2.226  11.062  17.884  0.00  0.00    +0.000 A 
ATOM     21  C   UNL     1       2.373  12.373  18.340  0.00  0.00    +0.000 A 
ATOM     22  C   UNL     1       1.697  12.796  19.481  0.00  0.00    +0.000 A 
ATOM     23  C   UNL     1       0.872  11.905  20.166  0.00  0.00    +0.000 A 
ATOM     24  C   UNL     1       0.723  10.590  19.713  0.00  0.00    +0.000 A 
ATOM     25 CL   UNL     1      -0.302   9.545  20.630  0.00  0.00    +0.000 Cl
ENDBRANCH  18  19
ENDBRANCH  17  18
ENDBRANCH  15  17
ENDBRANCH   9  15
BRANCH   8  26
ATOM     26  C   UNL     1       6.876   4.502  14.875  0.00  0.00    +0.000 C 
BRANCH  26  27
ATOM     27  C   UNL     1       6.796   4.894  13.392  0.00  0.00    +0.000 C 
ATOM     28 CL   UNL     1       8.307   5.686  12.818  0.00  0.00    +0.000 Cl
BRANCH  27  29
ATOM     29  C   UNL     1       6.511   3.698  12.496  0.00  0.00    +0.000 A 
ATOM     30  C   UNL     1       5.189   3.319  12.211  0.00  0.00    +0.000 A 
ATOM     31  C   UNL     1       4.919   2.224  11.385  0.00  0.00    +0.000 A 
ATOM     32  C   UNL     1       5.965   1.491  10.828  0.00  0.00    +0.000 A 
ATOM     33  C   UNL     1       7.281   1.855  11.093  0.00  0.00    +0.000 A 
ATOM     34  C   UNL     1       7.555   2.949  11.915  0.00  0.00    +0.000 A 
ENDBRANCH  27  29
ENDBRANCH  26  27
ENDBRANCH   8  26
TORSDOF 10
ENDMDL
MODEL 9
REMARK VINA RESULT:      -7.8      2.227      2.905
REMARK  Name = 
REMARK  11 active torsions:
REMARK  status: ('A' for Active; 'I' for Inactive)
REMARK    1  A    between atoms: C_1  and  C_2
REMARK    2  A    between atoms: C_2  and  O_3
REMARK    3  A    between atoms: O_3  and  C_4
REMARK    4  A    between atoms: C_4  and  C_6
REMARK    5  A    between atoms: N_13  and  C_14
REMARK    6  A    between atoms: C_14  and  C_15
REMARK    7  A    between atoms: C_15  and  C_17
REMARK    8  A    between atoms: C_23  and  N_24
REMARK    9  A    between atoms: N_24  and  C_25
REMARK   10  A    between atoms: C_25  and  C_26
REMARK   11  A    between atoms: C_26  and  C_27
REMARK                            x       y       z     vdW  Elec       q    Type
REMARK                         _______ _______ _______ _____ _____    ______ ____
ROOT
ATOM      1  C   UNL     1      -0.162  10.999  21.988  0.00  0.00    +0.000 A 
ATOM      2  C   UNL     1       0.311   9.785  22.507  0.00  0.00    +0.000 A 
ATOM      3  N   UNL     1       1.015   8.838  21.835  0.00  0.00    +0.000 NA
ATOM      4  C   UNL     1       1.225   9.185  20.552  0.00  0.00    +0.000 A 
ATOM      5  C   UNL     1       0.859  10.377  19.933  0.00  0.00    +0.000 A 
ATOM      6  C   UNL     1       1.367  10.233  18.618  0.00  0.00    +0.000 A 
ATOM      7  N   UNL     1       1.974   9.061  18.407  0.00  0.00    +0.000 NA
ATOM      8  N   UNL     1       1.829   8.418  19.589  0.00  0.00    +0.000 N 
ATOM      9  C   UNL     1       0.153  11.376  20.658  0.00  0.00    +0.000 A 
ENDROOT
BRANCH   1  10
ATOM     10  C   UNL     1      -1.083  11.725  22.893  0.00  0.00    +0.000 C 
ATOM     11  O   UNL     1      -2.211  11.346  23.165  0.00  0.00    +0.000 OA
BRANCH  10  12
ATOM     12  O   UNL     1      -0.543  12.929  23.191  0.00  0.00    +0.000 OA
BRANCH  12  14
ATOM     13  C   UNL     1      -0.726  15.262  23.919  0.00  0.00    +0.000 C 
ATOM     14  C   UNL     1      -1.431  14.044  23.352  0.00  0.00    +0.000 C 
ENDBRANCH  12  14
ENDBRANCH  10  12
ENDBRANCH   1  10
BRANCH   9  15
ATOM     15  N   UNL     1      -0.184  12.573  20.030  0.00  0.00    +0.000 N 
ATOM     16  H   UNL     1      -0.218  13.389  20.632  0.00  0.00    +0.000 HD
BRANCH  15  17
ATOM     17  C   UNL     1      -1.080  12.617  18.874  0.00  0.00    +0.000 C 
BRANCH  17  18
ATOM     18  C   UNL     1      -2.405  11.893  19.149  0.00  0.00    +0.000 C 
BRANCH  18  19
ATOM     19  C   UNL     1      -2.964  11.296  17.873  0.00  0.00    +0.000 A 
ATOM     20  C   UNL     1      -2.122  10.499  17.077  0.00  0.00    +0.000 A 
ATOM     21  C   UNL     1      -2.567   9.978  15.861  0.00  0.00    +0.000 A 
ATOM     22  C   UNL     1      -3.858  10.246  15.416  0.00  0.00    +0.000 A 
ATOM     23  C   UNL     1      -4.707  11.037  16.191  0.00  0.00    +0.000 A 
ATOM     24  C   UNL     1      -4.264  11.561  17.410  0.00  0.00    +0.000 A 
ATOM     25 CL   UNL     1      -5.369  12.546  18.300  0.00  0.00    +0.000 Cl
ENDBRANCH  18  19
ENDBRANCH  17  18
ENDBRANCH  15  17
ENDBRANCH   9  15
BRANCH   8  26
ATOM     26  C   UNL     1       2.350   7.071  19.730  0.00  0.00    +0.000 C 
BRANCH  26  27
ATOM     27  C   UNL     1       2.389   6.247  18.435  0.00  0.00    +0.000 C 
ATOM     28 CL   UNL     1       4.020   6.255  17.675  0.00  0.00    +0.000 Cl
BRANCH  27  29
ATOM     29  C   UNL     1       1.972   4.802  18.660  0.00  0.00    +0.000 A 
ATOM     30  C   UNL     1       2.115   3.849  17.638  0.00  0.00    +0.000 A 
ATOM     31  C   UNL     1       1.738   2.519  17.839  0.00  0.00    +0.000 A 
ATOM     32  C   UNL     1       1.213   2.116  19.065  0.00  0.00    +0.000 A 
ATOM     33  C   UNL     1       1.068   3.044  20.093  0.00  0.00    +0.000 A 
ATOM     34  C   UNL     1       1.446   4.373  19.897  0.00  0.00    +0.000 A 
ENDBRANCH  27  29
ENDBRANCH  26  27
ENDBRANCH   8  26
TORSDOF 10
ENDMDL
