MODEL 1
REMARK VINA RESULT:      -8.1      0.000      0.000
REMARK  Name = 
REMARK  2 active torsions:
REMARK  status: ('A' for Active; 'I' for Inactive)
REMARK    1  A    between atoms: C_4  and  C_5
REMARK    2  A    between atoms: C_16  and  N_17
REMARK                            x       y       z     vdW  Elec       q    Type
REMARK                         _______ _______ _______ _____ _____    ______ ____
ROOT
ATOM      1  O   UNL     1       6.400   5.009  19.577  0.00  0.00    +0.000 OA
ATOM      2  C   UNL     1       5.789   4.622  18.590  0.00  0.00    +0.000 A 
ATOM      3  C   UNL     1       6.375   4.720  17.246  0.00  0.00    +0.000 A 
ATOM      4  C   UNL     1       5.684   4.271  16.188  0.00  0.00    +0.000 A 
ATOM      5  O   UNL     1       4.397   3.752  16.269  0.00  0.00    +0.000 OA
ATOM      6  C   UNL     1       3.815   3.632  17.508  0.00  0.00    +0.000 A 
ATOM      7  C   UNL     1       2.535   3.079  17.562  0.00  0.00    +0.000 A 
ATOM      8  C   UNL     1       1.900   2.909  18.797  0.00  0.00    +0.000 A 
ATOM      9  C   UNL     1       2.556   3.294  19.976  0.00  0.00    +0.000 A 
ATOM     10  C   UNL     1       3.835   3.859  19.927  0.00  0.00    +0.000 A 
ATOM     11  C   UNL     1       4.452   4.026  18.683  0.00  0.00    +0.000 A 
ENDROOT
BRANCH   4  12
ATOM     12  C   UNL     1       6.253   4.291  14.819  0.00  0.00    +0.000 A 
ATOM     13  C   UNL     1       7.239   5.228  14.471  0.00  0.00    +0.000 A 
ATOM     14  C   UNL     1       7.759   5.277  13.172  0.00  0.00    +0.000 A 
ATOM     15  C   UNL     1       7.301   4.392  12.200  0.00  0.00    +0.000 A 
ATOM     16  C   UNL     1       6.321   3.459  12.532  0.00  0.00    +0.000 A 
ATOM     17 BR   UNL     1       5.690   2.253  11.219  0.00  0.00    +0.000 Br
ATOM     18  C   UNL     1       5.795   3.411  13.824  0.00  0.00    +0.000 A 
ENDBRANCH   4  12
BRANCH   9  19
ATOM     19  N   UNL     1       1.897   3.101  21.275  0.00  0.00    +0.000 N 
ATOM     20  O   UNL     1       0.697   2.791  21.269  0.00  0.00    +0.000 OA
ATOM     21  O   UNL     1       2.577   3.260  22.298  0.00  0.00    +0.000 OA
ENDBRANCH   9  19
TORSDOF 2
ENDMDL
MODEL 2
REMARK VINA RESULT:      -7.7      5.900      7.587
REMARK  Name = 
REMARK  2 active torsions:
REMARK  status: ('A' for Active; 'I' for Inactive)
REMARK    1  A    between atoms: C_4  and  C_5
REMARK    2  A    between atoms: C_16  and  N_17
REMARK                            x       y       z     vdW  Elec       q    Type
REMARK                         _______ _______ _______ _____ _____    ______ ____
ROOT
ATOM      1  O   UNL     1       4.150   6.598  17.071  0.00  0.00    +0.000 OA
ATOM      2  C   UNL     1       3.389   6.719  18.021  0.00  0.00    +0.000 A 
ATOM      3  C   UNL     1       2.674   7.979  18.266  0.00  0.00    +0.000 A 
ATOM      4  C   UNL     1       1.834   8.072  19.308  0.00  0.00    +0.000 A 
ATOM      5  O   UNL     1       1.626   7.050  20.226  0.00  0.00    +0.000 OA
ATOM      6  C   UNL     1       2.267   5.851  20.029  0.00  0.00    +0.000 A 
ATOM      7  C   UNL     1       2.015   4.832  20.950  0.00  0.00    +0.000 A 
ATOM      8  C   UNL     1       2.618   3.581  20.788  0.00  0.00    +0.000 A 
ATOM      9  C   UNL     1       3.475   3.355  19.699  0.00  0.00    +0.000 A 
ATOM     10  C   UNL     1       3.738   4.376  18.779  0.00  0.00    +0.000 A 
ATOM     11  C   UNL     1       3.130   5.622  18.959  0.00  0.00    +0.000 A 
ENDROOT
BRANCH   4  12
ATOM     12  C   UNL     1       1.042   9.299  19.564  0.00  0.00    +0.000 A 
ATOM     13  C   UNL     1       0.897  10.276  18.566  0.00  0.00    +0.000 A 
ATOM     14  C   UNL     1       0.180  11.453  18.808  0.00  0.00    +0.000 A 
ATOM     15  C   UNL     1      -0.402  11.674  20.054  0.00  0.00    +0.000 A 
ATOM     16  C   UNL     1      -0.262  10.715  21.054  0.00  0.00    +0.000 A 
ATOM     17 BR   UNL     1      -1.047  11.007  22.750  0.00  0.00    +0.000 Br
ATOM     18  C   UNL     1       0.457   9.543  20.818  0.00  0.00    +0.000 A 
ENDBRANCH   4  12
BRANCH   9  19
ATOM     19  N   UNL     1       4.097   2.037  19.519  0.00  0.00    +0.000 N 
ATOM     20  O   UNL     1       4.979   1.705  20.325  0.00  0.00    +0.000 OA
ATOM     21  O   UNL     1       3.705   1.337  18.576  0.00  0.00    +0.000 OA
ENDBRANCH   9  19
TORSDOF 2
ENDMDL
MODEL 3
REMARK VINA RESULT:      -7.5      5.815      6.690
REMARK  Name = 
REMARK  2 active torsions:
REMARK  status: ('A' for Active; 'I' for Inactive)
REMARK    1  A    between atoms: C_4  and  C_5
REMARK    2  A    between atoms: C_16  and  N_17
REMARK                            x       y       z     vdW  Elec       q    Type
REMARK                         _______ _______ _______ _____ _____    ______ ____
ROOT
ATOM      1  O   UNL     1       1.746  10.466  17.470  0.00  0.00    +0.000 OA
ATOM      2  C   UNL     1       1.844   9.464  18.163  0.00  0.00    +0.000 A 
ATOM      3  C   UNL     1       2.472   8.240  17.646  0.00  0.00    +0.000 A 
ATOM      4  C   UNL     1       2.578   7.163  18.440  0.00  0.00    +0.000 A 
ATOM      5  O   UNL     1       2.076   7.106  19.734  0.00  0.00    +0.000 OA
ATOM      6  C   UNL     1       1.490   8.231  20.262  0.00  0.00    +0.000 A 
ATOM      7  C   UNL     1       1.023   8.153  21.575  0.00  0.00    +0.000 A 
ATOM      8  C   UNL     1       0.440   9.274  22.175  0.00  0.00    +0.000 A 
ATOM      9  C   UNL     1       0.328  10.473  21.453  0.00  0.00    +0.000 A 
ATOM     10  C   UNL     1       0.786  10.553  20.133  0.00  0.00    +0.000 A 
ATOM     11  C   UNL     1       1.361   9.421  19.548  0.00  0.00    +0.000 A 
ENDROOT
BRANCH   4  12
ATOM     12  C   UNL     1       3.256   5.925  17.988  0.00  0.00    +0.000 A 
ATOM     13  C   UNL     1       2.524   4.744  17.785  0.00  0.00    +0.000 A 
ATOM     14  C   UNL     1       3.160   3.561  17.391  0.00  0.00    +0.000 A 
ATOM     15  C   UNL     1       4.538   3.539  17.196  0.00  0.00    +0.000 A 
ATOM     16  C   UNL     1       5.276   4.702  17.397  0.00  0.00    +0.000 A 
ATOM     17 BR   UNL     1       7.150   4.682  17.137  0.00  0.00    +0.000 Br
ATOM     18  C   UNL     1       4.648   5.882  17.796  0.00  0.00    +0.000 A 
ENDBRANCH   4  12
BRANCH   9  19
ATOM     19  N   UNL     1      -0.270  11.655  22.087  0.00  0.00    +0.000 N 
ATOM     20  O   UNL     1      -0.298  12.705  21.431  0.00  0.00    +0.000 OA
ATOM     21  O   UNL     1      -0.710  11.533  23.238  0.00  0.00    +0.000 OA
ENDBRANCH   9  19
TORSDOF 2
ENDMDL
MODEL 4
REMARK VINA RESULT:      -7.5      1.147      1.176
REMARK  Name = 
REMARK  2 active torsions:
REMARK  status: ('A' for Active; 'I' for Inactive)
REMARK    1  A    between atoms: C_4  and  C_5
REMARK    2  A    between atoms: C_16  and  N_17
REMARK                            x       y       z     vdW  Elec       q    Type
REMARK                         _______ _______ _______ _____ _____    ______ ____
ROOT
ATOM      1  O   UNL     1       3.816   6.816  18.234  0.00  0.00    +0.000 OA
ATOM      2  C   UNL     1       4.081   5.756  17.686  0.00  0.00    +0.000 A 
ATOM      3  C   UNL     1       4.835   5.720  16.425  0.00  0.00    +0.000 A 
ATOM      4  C   UNL     1       5.124   4.539  15.859  0.00  0.00    +0.000 A 
ATOM      5  O   UNL     1       4.704   3.316  16.367  0.00  0.00    +0.000 OA
ATOM      6  C   UNL     1       4.006   3.302  17.550  0.00  0.00    +0.000 A 
ATOM      7  C   UNL     1       3.625   2.057  18.053  0.00  0.00    +0.000 A 
ATOM      8  C   UNL     1       2.933   1.976  19.267  0.00  0.00    +0.000 A 
ATOM      9  C   UNL     1       2.627   3.150  19.973  0.00  0.00    +0.000 A 
ATOM     10  C   UNL     1       2.998   4.401  19.468  0.00  0.00    +0.000 A 
ATOM     11  C   UNL     1       3.684   4.462  18.252  0.00  0.00    +0.000 A 
ENDROOT
BRANCH   4  12
ATOM     12  C   UNL     1       5.933   4.445  14.620  0.00  0.00    +0.000 A 
ATOM     13  C   UNL     1       6.984   5.345  14.385  0.00  0.00    +0.000 A 
ATOM     14  C   UNL     1       7.733   5.286  13.204  0.00  0.00    +0.000 A 
ATOM     15  C   UNL     1       7.441   4.328  12.237  0.00  0.00    +0.000 A 
ATOM     16  C   UNL     1       6.399   3.431  12.457  0.00  0.00    +0.000 A 
ATOM     17 BR   UNL     1       5.992   2.126  11.149  0.00  0.00    +0.000 Br
ATOM     18  C   UNL     1       5.646   3.490  13.630  0.00  0.00    +0.000 A 
ENDBRANCH   4  12
BRANCH   9  19
ATOM     19  N   UNL     1       1.914   3.066  21.255  0.00  0.00    +0.000 N 
ATOM     20  O   UNL     1       0.692   2.862  21.219  0.00  0.00    +0.000 OA
ATOM     21  O   UNL     1       2.574   3.205  22.293  0.00  0.00    +0.000 OA
ENDBRANCH   9  19
TORSDOF 2
ENDMDL
MODEL 5
REMARK VINA RESULT:      -7.5      6.339      7.073
REMARK  Name = 
REMARK  2 active torsions:
REMARK  status: ('A' for Active; 'I' for Inactive)
REMARK    1  A    between atoms: C_4  and  C_5
REMARK    2  A    between atoms: C_16  and  N_17
REMARK                            x       y       z     vdW  Elec       q    Type
REMARK                         _______ _______ _______ _____ _____    ______ ____
ROOT
ATOM      1  O   UNL     1       1.320  11.341  18.153  0.00  0.00    +0.000 OA
ATOM      2  C   UNL     1       1.437  10.250  18.693  0.00  0.00    +0.000 A 
ATOM      3  C   UNL     1       2.143   9.145  18.028  0.00  0.00    +0.000 A 
ATOM      4  C   UNL     1       2.268   7.966  18.656  0.00  0.00    +0.000 A 
ATOM      5  O   UNL     1       1.717   7.693  19.902  0.00  0.00    +0.000 OA
ATOM      6  C   UNL     1       1.058   8.700  20.564  0.00  0.00    +0.000 A 
ATOM      7  C   UNL     1       0.543   8.405  21.827  0.00  0.00    +0.000 A 
ATOM      8  C   UNL     1      -0.117   9.398  22.560  0.00  0.00    +0.000 A 
ATOM      9  C   UNL     1      -0.256  10.686  22.021  0.00  0.00    +0.000 A 
ATOM     10  C   UNL     1       0.250  10.984  20.751  0.00  0.00    +0.000 A 
ATOM     11  C   UNL     1       0.902   9.978  20.031  0.00  0.00    +0.000 A 
ENDROOT
BRANCH   4  12
ATOM     12  C   UNL     1       3.022   6.839  18.056  0.00  0.00    +0.000 A 
ATOM     13  C   UNL     1       4.216   7.073  17.356  0.00  0.00    +0.000 A 
ATOM     14  C   UNL     1       4.918   6.021  16.758  0.00  0.00    +0.000 A 
ATOM     15  C   UNL     1       4.436   4.718  16.847  0.00  0.00    +0.000 A 
ATOM     16  C   UNL     1       3.251   4.472  17.535  0.00  0.00    +0.000 A 
ATOM     17 BR   UNL     1       2.586   2.706  17.661  0.00  0.00    +0.000 Br
ATOM     18  C   UNL     1       2.544   5.520  18.128  0.00  0.00    +0.000 A 
ENDBRANCH   4  12
BRANCH   9  19
ATOM     19  N   UNL     1      -0.934  11.733  22.796  0.00  0.00    +0.000 N 
ATOM     20  O   UNL     1      -2.022  11.447  23.317  0.00  0.00    +0.000 OA
ATOM     21  O   UNL     1      -0.382  12.838  22.884  0.00  0.00    +0.000 OA
ENDBRANCH   9  19
TORSDOF 2
ENDMDL
MODEL 6
REMARK VINA RESULT:      -7.5      5.715      7.950
REMARK  Name = 
REMARK  2 active torsions:
REMARK  status: ('A' for Active; 'I' for Inactive)
REMARK    1  A    between atoms: C_4  and  C_5
REMARK    2  A    between atoms: C_16  and  N_17
REMARK                            x       y       z     vdW  Elec       q    Type
REMARK                         _______ _______ _______ _____ _____    ______ ____
ROOT
ATOM      1  O   UNL     1       3.416   4.425  20.060  0.00  0.00    +0.000 OA
ATOM      2  C   UNL     1       3.290   5.466  19.431  0.00  0.00    +0.000 A 
ATOM      3  C   UNL     1       2.329   6.496  19.851  0.00  0.00    +0.000 A 
ATOM      4  C   UNL     1       2.228   7.634  19.148  0.00  0.00    +0.000 A 
ATOM      5  O   UNL     1       2.950   7.892  17.989  0.00  0.00    +0.000 OA
ATOM      6  C   UNL     1       3.868   6.961  17.566  0.00  0.00    +0.000 A 
ATOM      7  C   UNL     1       4.601   7.262  16.418  0.00  0.00    +0.000 A 
ATOM      8  C   UNL     1       5.568   6.364  15.952  0.00  0.00    +0.000 A 
ATOM      9  C   UNL     1       5.796   5.164  16.645  0.00  0.00    +0.000 A 
ATOM     10  C   UNL     1       5.056   4.854  17.791  0.00  0.00    +0.000 A 
ATOM     11  C   UNL     1       4.091   5.761  18.239  0.00  0.00    +0.000 A 
ENDROOT
BRANCH   4  12
ATOM     12  C   UNL     1       1.319   8.729  19.563  0.00  0.00    +0.000 A 
ATOM     13  C   UNL     1       0.933   9.721  18.646  0.00  0.00    +0.000 A 
ATOM     14  C   UNL     1       0.102  10.778  19.036  0.00  0.00    +0.000 A 
ATOM     15  C   UNL     1      -0.353  10.862  20.349  0.00  0.00    +0.000 A 
ATOM     16  C   UNL     1       0.026   9.887  21.269  0.00  0.00    +0.000 A 
ATOM     17 BR   UNL     1      -0.586   9.994  23.055  0.00  0.00    +0.000 Br
ATOM     18  C   UNL     1       0.858   8.835  20.886  0.00  0.00    +0.000 A 
ENDBRANCH   4  12
BRANCH   9  19
ATOM     19  N   UNL     1       6.821   4.228  16.166  0.00  0.00    +0.000 N 
ATOM     20  O   UNL     1       7.898   4.194  16.779  0.00  0.00    +0.000 OA
ATOM     21  O   UNL     1       6.551   3.529  15.181  0.00  0.00    +0.000 OA
ENDBRANCH   9  19
TORSDOF 2
ENDMDL
MODEL 7
REMARK VINA RESULT:      -7.5      5.826      6.546
REMARK  Name = 
REMARK  2 active torsions:
REMARK  status: ('A' for Active; 'I' for Inactive)
REMARK    1  A    between atoms: C_4  and  C_5
REMARK    2  A    between atoms: C_16  and  N_17
REMARK                            x       y       z     vdW  Elec       q    Type
REMARK                         _______ _______ _______ _____ _____    ______ ____
ROOT
ATOM      1  O   UNL     1       1.701  10.543  17.513  0.00  0.00    +0.000 OA
ATOM      2  C   UNL     1       1.842   9.519  18.167  0.00  0.00    +0.000 A 
ATOM      3  C   UNL     1       2.522   8.345  17.603  0.00  0.00    +0.000 A 
ATOM      4  C   UNL     1       2.674   7.243  18.353  0.00  0.00    +0.000 A 
ATOM      5  O   UNL     1       2.174   7.112  19.643  0.00  0.00    +0.000 OA
ATOM      6  C   UNL     1       1.541   8.189  20.214  0.00  0.00    +0.000 A 
ATOM      7  C   UNL     1       1.077   8.040  21.522  0.00  0.00    +0.000 A 
ATOM      8  C   UNL     1       0.446   9.110  22.165  0.00  0.00    +0.000 A 
ATOM      9  C   UNL     1       0.283  10.330  21.490  0.00  0.00    +0.000 A 
ATOM     10  C   UNL     1       0.737  10.482  20.176  0.00  0.00    +0.000 A 
ATOM     11  C   UNL     1       1.361   9.400  19.548  0.00  0.00    +0.000 A 
ENDROOT
BRANCH   4  12
ATOM     12  C   UNL     1       3.405   6.054  17.854  0.00  0.00    +0.000 A 
ATOM     13  C   UNL     1       4.503   6.203  16.991  0.00  0.00    +0.000 A 
ATOM     14  C   UNL     1       5.180   5.086  16.487  0.00  0.00    +0.000 A 
ATOM     15  C   UNL     1       4.768   3.802  16.836  0.00  0.00    +0.000 A 
ATOM     16  C   UNL     1       3.679   3.641  17.688  0.00  0.00    +0.000 A 
ATOM     17 BR   UNL     1       3.110   1.901  18.165  0.00  0.00    +0.000 Br
ATOM     18  C   UNL     1       2.997   4.751  18.187  0.00  0.00    +0.000 A 
ENDBRANCH   4  12
BRANCH   9  19
ATOM     19  N   UNL     1      -0.366  11.459  22.170  0.00  0.00    +0.000 N 
ATOM     20  O   UNL     1      -0.340  12.561  21.604  0.00  0.00    +0.000 OA
ATOM     21  O   UNL     1      -0.900  11.244  23.266  0.00  0.00    +0.000 OA
ENDBRANCH   9  19
TORSDOF 2
ENDMDL
MODEL 8
REMARK VINA RESULT:      -7.5      5.339      7.923
REMARK  Name = 
REMARK  2 active torsions:
REMARK  status: ('A' for Active; 'I' for Inactive)
REMARK    1  A    between atoms: C_4  and  C_5
REMARK    2  A    between atoms: C_16  and  N_17
REMARK                            x       y       z     vdW  Elec       q    Type
REMARK                         _______ _______ _______ _____ _____    ______ ____
ROOT
ATOM      1  O   UNL     1       3.374   3.998  20.030  0.00  0.00    +0.000 OA
ATOM      2  C   UNL     1       3.239   5.115  19.551  0.00  0.00    +0.000 A 
ATOM      3  C   UNL     1       2.328   6.096  20.155  0.00  0.00    +0.000 A 
ATOM      4  C   UNL     1       2.216   7.318  19.614  0.00  0.00    +0.000 A 
ATOM      5  O   UNL     1       2.881   7.715  18.460  0.00  0.00    +0.000 OA
ATOM      6  C   UNL     1       3.752   6.833  17.868  0.00  0.00    +0.000 A 
ATOM      7  C   UNL     1       4.429   7.270  16.728  0.00  0.00    +0.000 A 
ATOM      8  C   UNL     1       5.347   6.425  16.096  0.00  0.00    +0.000 A 
ATOM      9  C   UNL     1       5.583   5.141  16.612  0.00  0.00    +0.000 A 
ATOM     10  C   UNL     1       4.899   4.694  17.748  0.00  0.00    +0.000 A 
ATOM     11  C   UNL     1       3.982   5.551  18.363  0.00  0.00    +0.000 A 
ENDROOT
BRANCH   4  12
ATOM     12  C   UNL     1       1.357   8.364  20.219  0.00  0.00    +0.000 A 
ATOM     13  C   UNL     1       0.989   8.289  21.572  0.00  0.00    +0.000 A 
ATOM     14  C   UNL     1       0.152   9.253  22.145  0.00  0.00    +0.000 A 
ATOM     15  C   UNL     1      -0.333  10.307  21.374  0.00  0.00    +0.000 A 
ATOM     16  C   UNL     1       0.022  10.391  20.030  0.00  0.00    +0.000 A 
ATOM     17 BR   UNL     1      -0.632  11.817  18.974  0.00  0.00    +0.000 Br
ATOM     18  C   UNL     1       0.852   9.429  19.453  0.00  0.00    +0.000 A 
ENDBRANCH   4  12
BRANCH   9  19
ATOM     19  N   UNL     1       6.559   4.259  15.957  0.00  0.00    +0.000 N 
ATOM     20  O   UNL     1       7.734   4.317  16.344  0.00  0.00    +0.000 OA
ATOM     21  O   UNL     1       6.150   3.510  15.059  0.00  0.00    +0.000 OA
ENDBRANCH   9  19
TORSDOF 2
ENDMDL
MODEL 9
REMARK VINA RESULT:      -7.5      5.648      7.793
REMARK  Name = 
REMARK  2 active torsions:
REMARK  status: ('A' for Active; 'I' for Inactive)
REMARK    1  A    between atoms: C_4  and  C_5
REMARK    2  A    between atoms: C_16  and  N_17
REMARK                            x       y       z     vdW  Elec       q    Type
REMARK                         _______ _______ _______ _____ _____    ______ ____
ROOT
ATOM      1  O   UNL     1       3.708   6.773  17.448  0.00  0.00    +0.000 OA
ATOM      2  C   UNL     1       3.043   6.749  18.474  0.00  0.00    +0.000 A 
ATOM      3  C   UNL     1       2.320   7.941  18.940  0.00  0.00    +0.000 A 
ATOM      4  C   UNL     1       1.588   7.875  20.062  0.00  0.00    +0.000 A 
ATOM      5  O   UNL     1       1.504   6.743  20.864  0.00  0.00    +0.000 OA
ATOM      6  C   UNL     1       2.155   5.603  20.460  0.00  0.00    +0.000 A 
ATOM      7  C   UNL     1       2.027   4.473  21.269  0.00  0.00    +0.000 A 
ATOM      8  C   UNL     1       2.647   3.275  20.898  0.00  0.00    +0.000 A 
ATOM      9  C   UNL     1       3.395   3.216  19.712  0.00  0.00    +0.000 A 
ATOM     10  C   UNL     1       3.535   4.349  18.902  0.00  0.00    +0.000 A 
ATOM     11  C   UNL     1       2.912   5.538  19.292  0.00  0.00    +0.000 A 
ENDROOT
BRANCH   4  12
ATOM     12  C   UNL     1       0.791   9.029  20.542  0.00  0.00    +0.000 A 
ATOM     13  C   UNL     1       0.496   9.174  21.908  0.00  0.00    +0.000 A 
ATOM     14  C   UNL     1      -0.283  10.241  22.367  0.00  0.00    +0.000 A 
ATOM     15  C   UNL     1      -0.783  11.181  21.469  0.00  0.00    +0.000 A 
ATOM     16  C   UNL     1      -0.501  11.047  20.112  0.00  0.00    +0.000 A 
ATOM     17 BR   UNL     1      -1.177  12.316  18.884  0.00  0.00    +0.000 Br
ATOM     18  C   UNL     1       0.271   9.981  19.649  0.00  0.00    +0.000 A 
ENDBRANCH   4  12
BRANCH   9  19
ATOM     19  N   UNL     1       4.033   1.955  19.313  0.00  0.00    +0.000 N 
ATOM     20  O   UNL     1       3.583   1.375  18.315  0.00  0.00    +0.000 OA
ATOM     21  O   UNL     1       4.983   1.547  19.995  0.00  0.00    +0.000 OA
ENDBRANCH   9  19
TORSDOF 2
ENDMDL
