MODEL 1
REMARK VINA RESULT:      -8.4      0.000      0.000
REMARK  Name = 
REMARK  6 active torsions:
REMARK  status: ('A' for Active; 'I' for Inactive)
REMARK    1  A    between atoms: C_1  and  C_2
REMARK    2  A    between atoms: C_11  and  C_12
REMARK    3  A    between atoms: C_12  and  O_13
REMARK    4  A    between atoms: C_12  and  C_14
REMARK    5  A    between atoms: C_16  and  C_17
REMARK    6  A    between atoms: C_20  and  C_21
REMARK                            x       y       z     vdW  Elec       q    Type
REMARK                         _______ _______ _______ _____ _____    ______ ____
ROOT
ATOM      1  C   UNL     1       1.063   9.664  19.611  0.00  0.00    +0.000 A 
ATOM      2  N   UNL     1       1.750   8.662  19.093  0.00  0.00    +0.000 NA
ATOM      3  C   UNL     1       1.748   7.668  20.054  0.00  0.00    +0.000 A 
ATOM      4  C   UNL     1       1.138   8.121  21.203  0.00  0.00    +0.000 A 
ATOM      5  N   UNL     1       0.787   9.413  20.935  0.00  0.00    +0.000 N 
ATOM      6  H   UNL     1       0.288  10.056  21.536  0.00  0.00    +0.000 HD
ENDROOT
BRANCH   3   7
ATOM      7  C   UNL     1       2.210   6.313  19.798  0.00  0.00    +0.000 A 
ATOM      8  C   UNL     1       2.931   6.037  18.625  0.00  0.00    +0.000 A 
ATOM      9  C   UNL     1       3.318   4.728  18.314  0.00  0.00    +0.000 A 
ATOM     10  C   UNL     1       2.994   3.668  19.171  0.00  0.00    +0.000 A 
ATOM     11  C   UNL     1       2.293   3.947  20.352  0.00  0.00    +0.000 A 
ATOM     12  C   UNL     1       1.909   5.253  20.663  0.00  0.00    +0.000 A 
BRANCH  10  13
ATOM     13  C   UNL     1       3.368   2.245  18.841  0.00  0.00    +0.000 C 
ATOM     14  F   UNL     1       3.849   2.081  17.578  0.00  0.00    +0.000 F 
ATOM     15  F   UNL     1       4.327   1.751  19.673  0.00  0.00    +0.000 F 
ATOM     16  F   UNL     1       2.310   1.393  18.950  0.00  0.00    +0.000 F 
ENDBRANCH  10  13
ENDBRANCH   3   7
BRANCH   1  17
ATOM     17  C   UNL     1       0.574  10.915  18.941  0.00  0.00    +0.000 C 
BRANCH  17  28
ATOM     18  C   UNL     1      -0.352  12.661  21.464  0.00  0.00    +0.000 C 
ATOM     19  C   UNL     1      -1.252  12.196  20.349  0.00  0.00    +0.000 A 
ATOM     20  C   UNL     1      -2.593  12.591  20.495  0.00  0.00    +0.000 A 
ATOM     21  C   UNL     1      -3.557  12.255  19.558  0.00  0.00    +0.000 A 
ATOM     22  C   UNL     1      -3.221  11.506  18.439  0.00  0.00    +0.000 A 
ATOM     23  C   UNL     1      -4.230  11.207  17.511  0.00  0.00    +0.000 A 
ATOM     24  C   UNL     1      -3.958  10.466  16.367  0.00  0.00    +0.000 A 
ATOM     25  C   UNL     1      -2.672  10.002  16.150  0.00  0.00    +0.000 A 
ATOM     26  C   UNL     1      -1.661  10.284  17.076  0.00  0.00    +0.000 A 
ATOM     27  C   UNL     1      -1.885  11.055  18.250  0.00  0.00    +0.000 A 
ATOM     28  C   UNL     1      -0.864  11.410  19.225  0.00  0.00    +0.000 A 
ENDBRANCH  17  28
BRANCH  17  29
ATOM     29  O   UNL     1       1.526  11.925  19.330  0.00  0.00    +0.000 OA
ATOM     30  H   UNL     1       1.394  12.684  18.733  0.00  0.00    +0.000 HD
ENDBRANCH  17  29
ENDBRANCH   1  17
TORSDOF 5
ENDMDL
MODEL 2
REMARK VINA RESULT:      -8.3      2.815      4.224
REMARK  Name = 
REMARK  6 active torsions:
REMARK  status: ('A' for Active; 'I' for Inactive)
REMARK    1  A    between atoms: C_1  and  C_2
REMARK    2  A    between atoms: C_11  and  C_12
REMARK    3  A    between atoms: C_12  and  O_13
REMARK    4  A    between atoms: C_12  and  C_14
REMARK    5  A    between atoms: C_16  and  C_17
REMARK    6  A    between atoms: C_20  and  C_21
REMARK                            x       y       z     vdW  Elec       q    Type
REMARK                         _______ _______ _______ _____ _____    ______ ____
ROOT
ATOM      1  C   UNL     1       1.315   9.104  19.188  0.00  0.00    +0.000 A 
ATOM      2  N   UNL     1       2.177   8.733  18.259  0.00  0.00    +0.000 NA
ATOM      3  C   UNL     1       2.701   7.529  18.690  0.00  0.00    +0.000 A 
ATOM      4  C   UNL     1       2.220   7.225  19.944  0.00  0.00    +0.000 A 
ATOM      5  N   UNL     1       1.411   8.273  20.280  0.00  0.00    +0.000 N 
ATOM      6  H   UNL     1       0.859   8.384  21.119  0.00  0.00    +0.000 HD
ENDROOT
BRANCH   3   7
ATOM      7  C   UNL     1       3.528   6.675  17.852  0.00  0.00    +0.000 A 
ATOM      8  C   UNL     1       4.429   7.257  16.946  0.00  0.00    +0.000 A 
ATOM      9  C   UNL     1       5.177   6.462  16.070  0.00  0.00    +0.000 A 
ATOM     10  C   UNL     1       5.042   5.067  16.084  0.00  0.00    +0.000 A 
ATOM     11  C   UNL     1       4.158   4.485  17.003  0.00  0.00    +0.000 A 
ATOM     12  C   UNL     1       3.413   5.279  17.877  0.00  0.00    +0.000 A 
BRANCH  10  13
ATOM     13  C   UNL     1       5.811   4.191  15.127  0.00  0.00    +0.000 C 
ATOM     14  F   UNL     1       5.949   2.904  15.549  0.00  0.00    +0.000 F 
ATOM     15  F   UNL     1       5.226   4.121  13.899  0.00  0.00    +0.000 F 
ATOM     16  F   UNL     1       7.076   4.648  14.909  0.00  0.00    +0.000 F 
ENDBRANCH  10  13
ENDBRANCH   3   7
BRANCH   1  17
ATOM     17  C   UNL     1       0.312  10.219  19.149  0.00  0.00    +0.000 C 
BRANCH  17  28
ATOM     18  C   UNL     1       2.541  12.203  17.979  0.00  0.00    +0.000 C 
ATOM     19  C   UNL     1       1.684  12.473  19.188  0.00  0.00    +0.000 A 
ATOM     20  C   UNL     1       1.939  13.709  19.806  0.00  0.00    +0.000 A 
ATOM     21  C   UNL     1       1.239  14.121  20.928  0.00  0.00    +0.000 A 
ATOM     22  C   UNL     1       0.255  13.312  21.481  0.00  0.00    +0.000 A 
ATOM     23  C   UNL     1      -0.438  13.782  22.607  0.00  0.00    +0.000 A 
ATOM     24  C   UNL     1      -1.437  13.024  23.204  0.00  0.00    +0.000 A 
ATOM     25  C   UNL     1      -1.741  11.776  22.689  0.00  0.00    +0.000 A 
ATOM     26  C   UNL     1      -1.045  11.291  21.574  0.00  0.00    +0.000 A 
ATOM     27  C   UNL     1      -0.030  12.039  20.915  0.00  0.00    +0.000 A 
ATOM     28  C   UNL     1       0.696  11.601  19.732  0.00  0.00    +0.000 A 
ENDBRANCH  17  28
BRANCH  17  29
ATOM     29  O   UNL     1      -0.022  10.352  17.754  0.00  0.00    +0.000 OA
ATOM     30  H   UNL     1      -0.027   9.453  17.376  0.00  0.00    +0.000 HD
ENDBRANCH  17  29
ENDBRANCH   1  17
TORSDOF 5
ENDMDL
MODEL 3
REMARK VINA RESULT:      -8.3      0.181      1.163
REMARK  Name = 
REMARK  6 active torsions:
REMARK  status: ('A' for Active; 'I' for Inactive)
REMARK    1  A    between atoms: C_1  and  C_2
REMARK    2  A    between atoms: C_11  and  C_12
REMARK    3  A    between atoms: C_12  and  O_13
REMARK    4  A    between atoms: C_12  and  C_14
REMARK    5  A    between atoms: C_16  and  C_17
REMARK    6  A    between atoms: C_20  and  C_21
REMARK                            x       y       z     vdW  Elec       q    Type
REMARK                         _______ _______ _______ _____ _____    ______ ____
ROOT
ATOM      1  C   UNL     1       1.110   9.794  19.629  0.00  0.00    +0.000 A 
ATOM      2  N   UNL     1       1.698   8.772  19.034  0.00  0.00    +0.000 NA
ATOM      3  C   UNL     1       1.751   7.764  19.978  0.00  0.00    +0.000 A 
ATOM      4  C   UNL     1       1.278   8.224  21.188  0.00  0.00    +0.000 A 
ATOM      5  N   UNL     1       0.956   9.533  20.971  0.00  0.00    +0.000 N 
ATOM      6  H   UNL     1       0.548  10.186  21.626  0.00  0.00    +0.000 HD
ENDROOT
BRANCH   3   7
ATOM      7  C   UNL     1       2.129   6.396  19.662  0.00  0.00    +0.000 A 
ATOM      8  C   UNL     1       1.933   5.385  20.616  0.00  0.00    +0.000 A 
ATOM      9  C   UNL     1       2.362   4.076  20.370  0.00  0.00    +0.000 A 
ATOM     10  C   UNL     1       2.993   3.750  19.162  0.00  0.00    +0.000 A 
ATOM     11  C   UNL     1       3.170   4.754  18.201  0.00  0.00    +0.000 A 
ATOM     12  C   UNL     1       2.740   6.060  18.448  0.00  0.00    +0.000 A 
BRANCH  10  13
ATOM     13  C   UNL     1       3.496   2.354  18.888  0.00  0.00    +0.000 C 
ATOM     14  F   UNL     1       4.509   1.963  19.708  0.00  0.00    +0.000 F 
ATOM     15  F   UNL     1       2.521   1.413  19.022  0.00  0.00    +0.000 F 
ATOM     16  F   UNL     1       3.972   2.216  17.618  0.00  0.00    +0.000 F 
ENDBRANCH  10  13
ENDBRANCH   3   7
BRANCH   1  17
ATOM     17  C   UNL     1       0.608  11.073  19.026  0.00  0.00    +0.000 C 
BRANCH  17  28
ATOM     18  C   UNL     1      -0.316  12.761  21.588  0.00  0.00    +0.000 C 
ATOM     19  C   UNL     1      -1.222  12.299  20.477  0.00  0.00    +0.000 A 
ATOM     20  C   UNL     1      -2.568  12.669  20.645  0.00  0.00    +0.000 A 
ATOM     21  C   UNL     1      -3.537  12.332  19.715  0.00  0.00    +0.000 A 
ATOM     22  C   UNL     1      -3.202  11.607  18.579  0.00  0.00    +0.000 A 
ATOM     23  C   UNL     1      -4.218  11.306  17.659  0.00  0.00    +0.000 A 
ATOM     24  C   UNL     1      -3.948  10.588  16.500  0.00  0.00    +0.000 A 
ATOM     25  C   UNL     1      -2.657  10.150  16.259  0.00  0.00    +0.000 A 
ATOM     26  C   UNL     1      -1.639  10.434  17.178  0.00  0.00    +0.000 A 
ATOM     27  C   UNL     1      -1.862  11.182  18.367  0.00  0.00    +0.000 A 
ATOM     28  C   UNL     1      -0.835  11.539  19.336  0.00  0.00    +0.000 A 
ENDBRANCH  17  28
BRANCH  17  29
ATOM     29  O   UNL     1       1.550  12.070  19.467  0.00  0.00    +0.000 OA
ATOM     30  H   UNL     1       1.899  12.504  18.668  0.00  0.00    +0.000 HD
ENDBRANCH  17  29
ENDBRANCH   1  17
TORSDOF 5
ENDMDL
MODEL 4
REMARK VINA RESULT:      -8.2      0.613      1.014
REMARK  Name = 
REMARK  6 active torsions:
REMARK  status: ('A' for Active; 'I' for Inactive)
REMARK    1  A    between atoms: C_1  and  C_2
REMARK    2  A    between atoms: C_11  and  C_12
REMARK    3  A    between atoms: C_12  and  O_13
REMARK    4  A    between atoms: C_12  and  C_14
REMARK    5  A    between atoms: C_16  and  C_17
REMARK    6  A    between atoms: C_20  and  C_21
REMARK                            x       y       z     vdW  Elec       q    Type
REMARK                         _______ _______ _______ _____ _____    ______ ____
ROOT
ATOM      1  C   UNL     1       1.177   9.564  19.236  0.00  0.00    +0.000 A 
ATOM      2  N   UNL     1       1.833   8.533  18.736  0.00  0.00    +0.000 NA
ATOM      3  C   UNL     1       1.916   7.607  19.759  0.00  0.00    +0.000 A 
ATOM      4  C   UNL     1       1.390   8.134  20.919  0.00  0.00    +0.000 A 
ATOM      5  N   UNL     1       1.005   9.403  20.591  0.00  0.00    +0.000 N 
ATOM      6  H   UNL     1       0.547  10.082  21.184  0.00  0.00    +0.000 HD
ENDROOT
BRANCH   3   7
ATOM      7  C   UNL     1       2.373   6.241  19.561  0.00  0.00    +0.000 A 
ATOM      8  C   UNL     1       2.869   5.851  18.307  0.00  0.00    +0.000 A 
ATOM      9  C   UNL     1       3.238   4.523  18.064  0.00  0.00    +0.000 A 
ATOM     10  C   UNL     1       3.123   3.557  19.073  0.00  0.00    +0.000 A 
ATOM     11  C   UNL     1       2.648   3.951  20.332  0.00  0.00    +0.000 A 
ATOM     12  C   UNL     1       2.281   5.276  20.573  0.00  0.00    +0.000 A 
BRANCH  10  13
ATOM     13  C   UNL     1       3.482   2.113  18.827  0.00  0.00    +0.000 C 
ATOM     14  F   UNL     1       4.457   1.640  19.650  0.00  0.00    +0.000 F 
ATOM     15  F   UNL     1       2.419   1.277  18.987  0.00  0.00    +0.000 F 
ATOM     16  F   UNL     1       3.931   1.901  17.557  0.00  0.00    +0.000 F 
ENDBRANCH  10  13
ENDBRANCH   3   7
BRANCH   1  17
ATOM     17  C   UNL     1       0.624  10.763  18.522  0.00  0.00    +0.000 C 
BRANCH  17  28
ATOM     18  C   UNL     1       0.849  12.917  20.885  0.00  0.00    +0.000 C 
ATOM     19  C   UNL     1      -0.428  12.506  20.200  0.00  0.00    +0.000 A 
ATOM     20  C   UNL     1      -1.575  13.155  20.691  0.00  0.00    +0.000 A 
ATOM     21  C   UNL     1      -2.834  12.901  20.172  0.00  0.00    +0.000 A 
ATOM     22  C   UNL     1      -3.000  11.984  19.142  0.00  0.00    +0.000 A 
ATOM     23  C   UNL     1      -4.292  11.775  18.639  0.00  0.00    +0.000 A 
ATOM     24  C   UNL     1      -4.525  10.875  17.606  0.00  0.00    +0.000 A 
ATOM     25  C   UNL     1      -3.464  10.162  17.077  0.00  0.00    +0.000 A 
ATOM     26  C   UNL     1      -2.171  10.353  17.581  0.00  0.00    +0.000 A 
ATOM     27  C   UNL     1      -1.880  11.277  18.622  0.00  0.00    +0.000 A 
ATOM     28  C   UNL     1      -0.552  11.543  19.157  0.00  0.00    +0.000 A 
ENDBRANCH  17  28
BRANCH  17  29
ATOM     29  O   UNL     1       1.759  11.636  18.358  0.00  0.00    +0.000 OA
ATOM     30  H   UNL     1       2.555  11.103  18.535  0.00  0.00    +0.000 HD
ENDBRANCH  17  29
ENDBRANCH   1  17
TORSDOF 5
ENDMDL
MODEL 5
REMARK VINA RESULT:      -8.2      7.719     10.325
REMARK  Name = 
REMARK  6 active torsions:
REMARK  status: ('A' for Active; 'I' for Inactive)
REMARK    1  A    between atoms: C_1  and  C_2
REMARK    2  A    between atoms: C_11  and  C_12
REMARK    3  A    between atoms: C_12  and  O_13
REMARK    4  A    between atoms: C_12  and  C_14
REMARK    5  A    between atoms: C_16  and  C_17
REMARK    6  A    between atoms: C_20  and  C_21
REMARK                            x       y       z     vdW  Elec       q    Type
REMARK                         _______ _______ _______ _____ _____    ______ ____
ROOT
ATOM      1  C   UNL     1       7.434   6.945  18.268  0.00  0.00    +0.000 A 
ATOM      2  N   UNL     1       8.381   7.676  18.828  0.00  0.00    +0.000 NA
ATOM      3  C   UNL     1       8.320   8.910  18.208  0.00  0.00    +0.000 A 
ATOM      4  C   UNL     1       7.391   8.885  17.192  0.00  0.00    +0.000 A 
ATOM      5  N   UNL     1       6.901   7.610  17.188  0.00  0.00    +0.000 N 
ATOM      6  H   UNL     1       6.175   7.228  16.597  0.00  0.00    +0.000 HD
ENDROOT
BRANCH   3   7
ATOM      7  C   UNL     1       9.050  10.075  18.682  0.00  0.00    +0.000 A 
ATOM      8  C   UNL     1       9.267  10.245  20.059  0.00  0.00    +0.000 A 
ATOM      9  C   UNL     1       9.894  11.396  20.549  0.00  0.00    +0.000 A 
ATOM     10  C   UNL     1      10.321  12.401  19.671  0.00  0.00    +0.000 A 
ATOM     11  C   UNL     1      10.124  12.222  18.295  0.00  0.00    +0.000 A 
ATOM     12  C   UNL     1       9.500  11.072  17.807  0.00  0.00    +0.000 A 
BRANCH  10  13
ATOM     13  C   UNL     1      10.968  13.666  20.176  0.00  0.00    +0.000 C 
ATOM     14  F   UNL     1      12.329  13.629  20.169  0.00  0.00    +0.000 F 
ATOM     15  F   UNL     1      10.620  14.759  19.442  0.00  0.00    +0.000 F 
ATOM     16  F   UNL     1      10.610  13.953  21.460  0.00  0.00    +0.000 F 
ENDBRANCH  10  13
ENDBRANCH   3   7
BRANCH   1  17
ATOM     17  C   UNL     1       6.913   5.601  18.685  0.00  0.00    +0.000 C 
BRANCH  17  28
ATOM     18  C   UNL     1       7.251   4.349  15.754  0.00  0.00    +0.000 C 
ATOM     19  C   UNL     1       5.972   4.371  16.549  0.00  0.00    +0.000 A 
ATOM     20  C   UNL     1       4.879   3.782  15.889  0.00  0.00    +0.000 A 
ATOM     21  C   UNL     1       3.627   3.710  16.477  0.00  0.00    +0.000 A 
ATOM     22  C   UNL     1       3.414   4.228  17.748  0.00  0.00    +0.000 A 
ATOM     23  C   UNL     1       2.132   4.114  18.307  0.00  0.00    +0.000 A 
ATOM     24  C   UNL     1       1.854   4.606  19.576  0.00  0.00    +0.000 A 
ATOM     25  C   UNL     1       2.858   5.233  20.294  0.00  0.00    +0.000 A 
ATOM     26  C   UNL     1       4.138   5.364  19.740  0.00  0.00    +0.000 A 
ATOM     27  C   UNL     1       4.475   4.858  18.454  0.00  0.00    +0.000 A 
ATOM     28  C   UNL     1       5.797   4.931  17.847  0.00  0.00    +0.000 A 
ENDBRANCH  17  28
BRANCH  17  29
ATOM     29  O   UNL     1       8.080   4.757  18.709  0.00  0.00    +0.000 OA
ATOM     30  H   UNL     1       8.092   4.265  17.868  0.00  0.00    +0.000 HD
ENDBRANCH  17  29
ENDBRANCH   1  17
TORSDOF 5
ENDMDL
MODEL 6
REMARK VINA RESULT:      -8.2      2.749      4.197
REMARK  Name = 
REMARK  6 active torsions:
REMARK  status: ('A' for Active; 'I' for Inactive)
REMARK    1  A    between atoms: C_1  and  C_2
REMARK    2  A    between atoms: C_11  and  C_12
REMARK    3  A    between atoms: C_12  and  O_13
REMARK    4  A    between atoms: C_12  and  C_14
REMARK    5  A    between atoms: C_16  and  C_17
REMARK    6  A    between atoms: C_20  and  C_21
REMARK                            x       y       z     vdW  Elec       q    Type
REMARK                         _______ _______ _______ _____ _____    ______ ____
ROOT
ATOM      1  C   UNL     1       1.247   9.179  19.205  0.00  0.00    +0.000 A 
ATOM      2  N   UNL     1       2.064   8.804  18.238  0.00  0.00    +0.000 NA
ATOM      3  C   UNL     1       2.610   7.602  18.650  0.00  0.00    +0.000 A 
ATOM      4  C   UNL     1       2.189   7.305  19.928  0.00  0.00    +0.000 A 
ATOM      5  N   UNL     1       1.396   8.354  20.296  0.00  0.00    +0.000 N 
ATOM      6  H   UNL     1       0.885   8.470  21.160  0.00  0.00    +0.000 HD
ENDROOT
BRANCH   3   7
ATOM      7  C   UNL     1       3.396   6.744  17.778  0.00  0.00    +0.000 A 
ATOM      8  C   UNL     1       3.207   5.353  17.820  0.00  0.00    +0.000 A 
ATOM      9  C   UNL     1       4.006   4.499  17.053  0.00  0.00    +0.000 A 
ATOM     10  C   UNL     1       5.009   5.018  16.223  0.00  0.00    +0.000 A 
ATOM     11  C   UNL     1       5.184   6.407  16.164  0.00  0.00    +0.000 A 
ATOM     12  C   UNL     1       4.385   7.259  16.930  0.00  0.00    +0.000 A 
BRANCH  10  13
ATOM     13  C   UNL     1       5.907   4.116  15.412  0.00  0.00    +0.000 C 
ATOM     14  F   UNL     1       5.589   4.069  14.090  0.00  0.00    +0.000 F 
ATOM     15  F   UNL     1       7.214   4.493  15.470  0.00  0.00    +0.000 F 
ATOM     16  F   UNL     1       5.874   2.825  15.850  0.00  0.00    +0.000 F 
ENDBRANCH  10  13
ENDBRANCH   3   7
BRANCH   1  17
ATOM     17  C   UNL     1       0.242  10.294  19.208  0.00  0.00    +0.000 C 
BRANCH  17  28
ATOM     18  C   UNL     1       2.501  12.252  18.054  0.00  0.00    +0.000 C 
ATOM     19  C   UNL     1       1.642  12.529  19.260  0.00  0.00    +0.000 A 
ATOM     20  C   UNL     1       1.911  13.760  19.883  0.00  0.00    +0.000 A 
ATOM     21  C   UNL     1       1.210  14.178  21.002  0.00  0.00    +0.000 A 
ATOM     22  C   UNL     1       0.214  13.380  21.549  0.00  0.00    +0.000 A 
ATOM     23  C   UNL     1      -0.479  13.856  22.672  0.00  0.00    +0.000 A 
ATOM     24  C   UNL     1      -1.490  13.109  23.264  0.00  0.00    +0.000 A 
ATOM     25  C   UNL     1      -1.807  11.866  22.743  0.00  0.00    +0.000 A 
ATOM     26  C   UNL     1      -1.112  11.376  21.630  0.00  0.00    +0.000 A 
ATOM     27  C   UNL     1      -0.085  12.112  20.978  0.00  0.00    +0.000 A 
ATOM     28  C   UNL     1       0.641  11.668  19.797  0.00  0.00    +0.000 A 
ENDBRANCH  17  28
BRANCH  17  29
ATOM     29  O   UNL     1      -0.131  10.443  17.825  0.00  0.00    +0.000 OA
ATOM     30  H   UNL     1      -0.743  11.199  17.776  0.00  0.00    +0.000 HD
ENDBRANCH  17  29
ENDBRANCH   1  17
TORSDOF 5
ENDMDL
MODEL 7
REMARK VINA RESULT:      -8.1      0.872      1.123
REMARK  Name = 
REMARK  6 active torsions:
REMARK  status: ('A' for Active; 'I' for Inactive)
REMARK    1  A    between atoms: C_1  and  C_2
REMARK    2  A    between atoms: C_11  and  C_12
REMARK    3  A    between atoms: C_12  and  O_13
REMARK    4  A    between atoms: C_12  and  C_14
REMARK    5  A    between atoms: C_16  and  C_17
REMARK    6  A    between atoms: C_20  and  C_21
REMARK                            x       y       z     vdW  Elec       q    Type
REMARK                         _______ _______ _______ _____ _____    ______ ____
ROOT
ATOM      1  C   UNL     1       0.636  10.497  19.786  0.00  0.00    +0.000 A 
ATOM      2  N   UNL     1       1.285   9.534  19.157  0.00  0.00    +0.000 NA
ATOM      3  C   UNL     1       1.473   8.533  20.091  0.00  0.00    +0.000 A 
ATOM      4  C   UNL     1       1.019   8.946  21.325  0.00  0.00    +0.000 A 
ATOM      5  N   UNL     1       0.571  10.221  21.132  0.00  0.00    +0.000 N 
ATOM      6  H   UNL     1       0.138  10.834  21.810  0.00  0.00    +0.000 HD
ENDROOT
BRANCH   3   7
ATOM      7  C   UNL     1       1.956   7.205  19.749  0.00  0.00    +0.000 A 
ATOM      8  C   UNL     1       2.600   6.998  18.518  0.00  0.00    +0.000 A 
ATOM      9  C   UNL     1       3.002   5.716  18.128  0.00  0.00    +0.000 A 
ATOM     10  C   UNL     1       2.771   4.613  18.962  0.00  0.00    +0.000 A 
ATOM     11  C   UNL     1       2.147   4.823  20.199  0.00  0.00    +0.000 A 
ATOM     12  C   UNL     1       1.748   6.103  20.588  0.00  0.00    +0.000 A 
BRANCH  10  13
ATOM     13  C   UNL     1       3.163   3.216  18.548  0.00  0.00    +0.000 C 
ATOM     14  F   UNL     1       4.372   2.819  19.031  0.00  0.00    +0.000 F 
ATOM     15  F   UNL     1       2.268   2.278  18.964  0.00  0.00    +0.000 F 
ATOM     16  F   UNL     1       3.240   3.080  17.194  0.00  0.00    +0.000 F 
ENDBRANCH  10  13
ENDBRANCH   3   7
BRANCH   1  17
ATOM     17  C   UNL     1      -0.005  11.728  19.215  0.00  0.00    +0.000 C 
BRANCH  17  28
ATOM     18  C   UNL     1      -1.497  12.954  21.773  0.00  0.00    +0.000 C 
ATOM     19  C   UNL     1      -2.175  12.482  20.513  0.00  0.00    +0.000 A 
ATOM     20  C   UNL     1      -3.574  12.614  20.532  0.00  0.00    +0.000 A 
ATOM     21  C   UNL     1      -4.357  12.234  19.454  0.00  0.00    +0.000 A 
ATOM     22  C   UNL     1      -3.772  11.701  18.313  0.00  0.00    +0.000 A 
ATOM     23  C   UNL     1      -4.606  11.348  17.241  0.00  0.00    +0.000 A 
ATOM     24  C   UNL     1      -4.084  10.816  16.069  0.00  0.00    +0.000 A 
ATOM     25  C   UNL     1      -2.719  10.616  15.965  0.00  0.00    +0.000 A 
ATOM     26  C   UNL     1      -1.878  10.953  17.034  0.00  0.00    +0.000 A 
ATOM     27  C   UNL     1      -2.363  11.519  18.245  0.00  0.00    +0.000 A 
ATOM     28  C   UNL     1      -1.533  11.923  19.370  0.00  0.00    +0.000 A 
ENDBRANCH  17  28
BRANCH  17  29
ATOM     29  O   UNL     1       0.694  12.820  19.843  0.00  0.00    +0.000 OA
ATOM     30  H   UNL     1       0.793  12.590  20.785  0.00  0.00    +0.000 HD
ENDBRANCH  17  29
ENDBRANCH   1  17
TORSDOF 5
ENDMDL
MODEL 8
REMARK VINA RESULT:      -7.9      7.790     10.355
REMARK  Name = 
REMARK  6 active torsions:
REMARK  status: ('A' for Active; 'I' for Inactive)
REMARK    1  A    between atoms: C_1  and  C_2
REMARK    2  A    between atoms: C_11  and  C_12
REMARK    3  A    between atoms: C_12  and  O_13
REMARK    4  A    between atoms: C_12  and  C_14
REMARK    5  A    between atoms: C_16  and  C_17
REMARK    6  A    between atoms: C_20  and  C_21
REMARK                            x       y       z     vdW  Elec       q    Type
REMARK                         _______ _______ _______ _____ _____    ______ ____
ROOT
ATOM      1  C   UNL     1       7.539   6.995  18.295  0.00  0.00    +0.000 A 
ATOM      2  N   UNL     1       8.350   7.802  18.955  0.00  0.00    +0.000 NA
ATOM      3  C   UNL     1       8.361   8.989  18.246  0.00  0.00    +0.000 A 
ATOM      4  C   UNL     1       7.624   8.856  17.089  0.00  0.00    +0.000 A 
ATOM      5  N   UNL     1       7.183   7.564  17.095  0.00  0.00    +0.000 N 
ATOM      6  H   UNL     1       6.584   7.112  16.416  0.00  0.00    +0.000 HD
ENDROOT
BRANCH   3   7
ATOM      7  C   UNL     1       8.960  10.213  18.753  0.00  0.00    +0.000 A 
ATOM      8  C   UNL     1       9.015  11.350  17.930  0.00  0.00    +0.000 A 
ATOM      9  C   UNL     1       9.658  12.515  18.361  0.00  0.00    +0.000 A 
ATOM     10  C   UNL     1      10.258  12.570  19.627  0.00  0.00    +0.000 A 
ATOM     11  C   UNL     1      10.185  11.443  20.456  0.00  0.00    +0.000 A 
ATOM     12  C   UNL     1       9.541  10.281  20.025  0.00  0.00    +0.000 A 
BRANCH  10  13
ATOM     13  C   UNL     1      10.987  13.802  20.101  0.00  0.00    +0.000 C 
ATOM     14  F   UNL     1      10.593  14.948  19.480  0.00  0.00    +0.000 F 
ATOM     15  F   UNL     1      10.824  14.024  21.435  0.00  0.00    +0.000 F 
ATOM     16  F   UNL     1      12.333  13.715  19.902  0.00  0.00    +0.000 F 
ENDBRANCH  10  13
ENDBRANCH   3   7
BRANCH   1  17
ATOM     17  C   UNL     1       6.995   5.661  18.713  0.00  0.00    +0.000 C 
BRANCH  17  28
ATOM     18  C   UNL     1       7.399   4.449  15.773  0.00  0.00    +0.000 C 
ATOM     19  C   UNL     1       6.106   4.445  16.547  0.00  0.00    +0.000 A 
ATOM     20  C   UNL     1       5.032   3.851  15.862  0.00  0.00    +0.000 A 
ATOM     21  C   UNL     1       3.771   3.756  16.427  0.00  0.00    +0.000 A 
ATOM     22  C   UNL     1       3.530   4.255  17.701  0.00  0.00    +0.000 A 
ATOM     23  C   UNL     1       2.241   4.119  18.236  0.00  0.00    +0.000 A 
ATOM     24  C   UNL     1       1.936   4.591  19.507  0.00  0.00    +0.000 A 
ATOM     25  C   UNL     1       2.919   5.222  20.249  0.00  0.00    +0.000 A 
ATOM     26  C   UNL     1       4.207   5.376  19.718  0.00  0.00    +0.000 A 
ATOM     27  C   UNL     1       4.572   4.890  18.432  0.00  0.00    +0.000 A 
ATOM     28  C   UNL     1       5.902   4.987  17.849  0.00  0.00    +0.000 A 
ENDBRANCH  17  28
BRANCH  17  29
ATOM     29  O   UNL     1       8.155   4.809  18.786  0.00  0.00    +0.000 OA
ATOM     30  H   UNL     1       7.984   4.157  19.490  0.00  0.00    +0.000 HD
ENDBRANCH  17  29
ENDBRANCH   1  17
TORSDOF 5
ENDMDL
MODEL 9
REMARK VINA RESULT:      -7.8      2.490      3.858
REMARK  Name = 
REMARK  6 active torsions:
REMARK  status: ('A' for Active; 'I' for Inactive)
REMARK    1  A    between atoms: C_1  and  C_2
REMARK    2  A    between atoms: C_11  and  C_12
REMARK    3  A    between atoms: C_12  and  O_13
REMARK    4  A    between atoms: C_12  and  C_14
REMARK    5  A    between atoms: C_16  and  C_17
REMARK    6  A    between atoms: C_20  and  C_21
REMARK                            x       y       z     vdW  Elec       q    Type
REMARK                         _______ _______ _______ _____ _____    ______ ____
ROOT
ATOM      1  C   UNL     1       0.191  10.112  20.920  0.00  0.00    +0.000 A 
ATOM      2  N   UNL     1       0.710   9.390  19.944  0.00  0.00    +0.000 NA
ATOM      3  C   UNL     1       1.447   8.396  20.560  0.00  0.00    +0.000 A 
ATOM      4  C   UNL     1       1.452   8.587  21.924  0.00  0.00    +0.000 A 
ATOM      5  N   UNL     1       0.724   9.724  22.128  0.00  0.00    +0.000 N 
ATOM      6  H   UNL     1       0.486  10.157  23.010  0.00  0.00    +0.000 HD
ENDROOT
BRANCH   3   7
ATOM      7  C   UNL     1       2.003   7.258  19.845  0.00  0.00    +0.000 A 
ATOM      8  C   UNL     1       2.608   7.455  18.593  0.00  0.00    +0.000 A 
ATOM      9  C   UNL     1       3.078   6.368  17.846  0.00  0.00    +0.000 A 
ATOM     10  C   UNL     1       2.957   5.062  18.339  0.00  0.00    +0.000 A 
ATOM     11  C   UNL     1       2.373   4.867  19.598  0.00  0.00    +0.000 A 
ATOM     12  C   UNL     1       1.905   5.952  20.342  0.00  0.00    +0.000 A 
BRANCH  10  13
ATOM     13  C   UNL     1       3.424   3.871  17.538  0.00  0.00    +0.000 C 
ATOM     14  F   UNL     1       4.178   4.199  16.454  0.00  0.00    +0.000 F 
ATOM     15  F   UNL     1       4.182   3.013  18.275  0.00  0.00    +0.000 F 
ATOM     16  F   UNL     1       2.385   3.130  17.059  0.00  0.00    +0.000 F 
ENDBRANCH  10  13
ENDBRANCH   3   7
BRANCH   1  17
ATOM     17  C   UNL     1      -0.853  11.187  20.843  0.00  0.00    +0.000 C 
BRANCH  17  28
ATOM     18  C   UNL     1       1.579  13.208  20.320  0.00  0.00    +0.000 C 
ATOM     19  C   UNL     1       0.472  13.418  21.321  0.00  0.00    +0.000 A 
ATOM     20  C   UNL     1       0.581  14.613  22.052  0.00  0.00    +0.000 A 
ATOM     21  C   UNL     1      -0.354  14.969  23.010  0.00  0.00    +0.000 A 
ATOM     22  C   UNL     1      -1.435  14.140  23.281  0.00  0.00    +0.000 A 
ATOM     23  C   UNL     1      -2.364  14.553  24.248  0.00  0.00    +0.000 A 
ATOM     24  C   UNL     1      -3.470  13.773  24.562  0.00  0.00    +0.000 A 
ATOM     25  C   UNL     1      -3.649  12.561  23.919  0.00  0.00    +0.000 A 
ATOM     26  C   UNL     1      -2.720  12.133  22.961  0.00  0.00    +0.000 A 
ATOM     27  C   UNL     1      -1.584  12.905  22.592  0.00  0.00    +0.000 A 
ATOM     28  C   UNL     1      -0.611  12.528  21.577  0.00  0.00    +0.000 A 
ENDBRANCH  17  28
BRANCH  17  29
ATOM     29  O   UNL     1      -1.018  11.424  19.432  0.00  0.00    +0.000 OA
ATOM     30  H   UNL     1      -0.855  10.576  18.980  0.00  0.00    +0.000 HD
ENDBRANCH  17  29
ENDBRANCH   1  17
TORSDOF 5
ENDMDL
