MODEL 1
REMARK VINA RESULT:      -7.9      0.000      0.000
REMARK  Name = 
REMARK  2 active torsions:
REMARK  status: ('A' for Active; 'I' for Inactive)
REMARK    1  A    between atoms: C_4  and  C_5
REMARK    2  A    between atoms: C_16  and  O_17
REMARK                            x       y       z     vdW  Elec       q    Type
REMARK                         _______ _______ _______ _____ _____    ______ ____
ROOT
ATOM      1  O   UNL     1       1.956   9.650  17.369  0.00  0.00    +0.000 OA
ATOM      2  C   UNL     1       1.847   9.051  18.415  0.00  0.00    +0.000 C 
ATOM      3  C   UNL     1       2.223   7.641  18.733  0.00  0.00    +0.000 C 
ATOM      4  C   UNL     1       2.779   6.771  17.880  0.00  0.00    +0.000 C 
ATOM      5  O   UNL     1       1.913   7.336  20.056  0.00  0.00    +0.000 OA
ATOM      6  C   UNL     1       1.371   8.477  20.591  0.00  0.00    +0.000 A 
ATOM      7  C   UNL     1       0.934   8.600  21.891  0.00  0.00    +0.000 A 
ATOM      8  C   UNL     1       0.404   9.832  22.262  0.00  0.00    +0.000 A 
ATOM      9  C   UNL     1       0.318  10.903  21.353  0.00  0.00    +0.000 A 
ATOM     10  C   UNL     1       0.770  10.760  20.035  0.00  0.00    +0.000 A 
ATOM     11  C   UNL     1       1.296   9.532  19.682  0.00  0.00    +0.000 A 
ENDROOT
BRANCH   4  12
ATOM     12  C   UNL     1       3.085   5.408  18.326  0.00  0.00    +0.000 A 
ATOM     13  C   UNL     1       4.294   5.144  18.983  0.00  0.00    +0.000 A 
ATOM     14  C   UNL     1       4.655   3.827  19.280  0.00  0.00    +0.000 A 
ATOM     15  C   UNL     1       3.806   2.782  18.925  0.00  0.00    +0.000 A 
ATOM     16  F   UNL     1       4.174   1.520  19.184  0.00  0.00    +0.000 F 
ATOM     17  C   UNL     1       2.594   3.025  18.297  0.00  0.00    +0.000 A 
ATOM     18  C   UNL     1       2.241   4.338  18.000  0.00  0.00    +0.000 A 
ATOM     19  F   UNL     1       1.083   4.562  17.362  0.00  0.00    +0.000 F 
ENDBRANCH   4  12
BRANCH   8  20
ATOM     20  O   UNL     1      -0.052  10.043  23.530  0.00  0.00    +0.000 OA
ATOM     21  H   UNL     1      -0.635  10.821  23.531  0.00  0.00    +0.000 HD
ENDBRANCH   8  20
TORSDOF 2
ENDMDL
MODEL 2
REMARK VINA RESULT:      -7.5      4.664      7.499
REMARK  Name = 
REMARK  2 active torsions:
REMARK  status: ('A' for Active; 'I' for Inactive)
REMARK    1  A    between atoms: C_4  and  C_5
REMARK    2  A    between atoms: C_16  and  O_17
REMARK                            x       y       z     vdW  Elec       q    Type
REMARK                         _______ _______ _______ _____ _____    ______ ____
ROOT
ATOM      1  O   UNL     1       7.559   6.453  16.465  0.00  0.00    +0.000 OA
ATOM      2  C   UNL     1       6.748   5.642  16.079  0.00  0.00    +0.000 C 
ATOM      3  C   UNL     1       5.589   5.053  16.812  0.00  0.00    +0.000 C 
ATOM      4  C   UNL     1       5.229   5.346  18.069  0.00  0.00    +0.000 C 
ATOM      5  O   UNL     1       4.913   4.137  16.009  0.00  0.00    +0.000 OA
ATOM      6  C   UNL     1       5.578   4.124  14.809  0.00  0.00    +0.000 A 
ATOM      7  C   UNL     1       5.223   3.347  13.728  0.00  0.00    +0.000 A 
ATOM      8  C   UNL     1       6.017   3.456  12.590  0.00  0.00    +0.000 A 
ATOM      9  C   UNL     1       7.130   4.316  12.545  0.00  0.00    +0.000 A 
ATOM     10  C   UNL     1       7.473   5.099  13.653  0.00  0.00    +0.000 A 
ATOM     11  C   UNL     1       6.675   4.984  14.775  0.00  0.00    +0.000 A 
ENDROOT
BRANCH   4  12
ATOM     12  C   UNL     1       4.070   4.679  18.669  0.00  0.00    +0.000 A 
ATOM     13  C   UNL     1       4.240   3.469  19.356  0.00  0.00    +0.000 A 
ATOM     14  C   UNL     1       3.123   2.756  19.802  0.00  0.00    +0.000 A 
ATOM     15  C   UNL     1       1.846   3.256  19.567  0.00  0.00    +0.000 A 
ATOM     16  F   UNL     1       0.780   2.552  19.969  0.00  0.00    +0.000 F 
ATOM     17  C   UNL     1       1.658   4.463  18.911  0.00  0.00    +0.000 A 
ATOM     18  C   UNL     1       2.773   5.168  18.464  0.00  0.00    +0.000 A 
ATOM     19  F   UNL     1       2.581   6.317  17.801  0.00  0.00    +0.000 F 
ENDBRANCH   4  12
BRANCH   8  20
ATOM     20  O   UNL     1       5.738   2.725  11.472  0.00  0.00    +0.000 OA
ATOM     21  H   UNL     1       6.548   2.275  11.178  0.00  0.00    +0.000 HD
ENDBRANCH   8  20
TORSDOF 2
ENDMDL
MODEL 3
REMARK VINA RESULT:      -7.5      1.132      1.545
REMARK  Name = 
REMARK  2 active torsions:
REMARK  status: ('A' for Active; 'I' for Inactive)
REMARK    1  A    between atoms: C_4  and  C_5
REMARK    2  A    between atoms: C_16  and  O_17
REMARK                            x       y       z     vdW  Elec       q    Type
REMARK                         _______ _______ _______ _____ _____    ______ ____
ROOT
ATOM      1  O   UNL     1       1.866   9.648  17.345  0.00  0.00    +0.000 OA
ATOM      2  C   UNL     1       1.829   9.040  18.390  0.00  0.00    +0.000 C 
ATOM      3  C   UNL     1       2.295   7.653  18.686  0.00  0.00    +0.000 C 
ATOM      4  C   UNL     1       2.871   6.820  17.809  0.00  0.00    +0.000 C 
ATOM      5  O   UNL     1       2.049   7.324  20.017  0.00  0.00    +0.000 OA
ATOM      6  C   UNL     1       1.461   8.430  20.577  0.00  0.00    +0.000 A 
ATOM      7  C   UNL     1       1.063   8.521  21.892  0.00  0.00    +0.000 A 
ATOM      8  C   UNL     1       0.476   9.719  22.288  0.00  0.00    +0.000 A 
ATOM      9  C   UNL     1       0.297  10.788  21.390  0.00  0.00    +0.000 A 
ATOM     10  C   UNL     1       0.711  10.676  20.057  0.00  0.00    +0.000 A 
ATOM     11  C   UNL     1       1.294   9.483  19.678  0.00  0.00    +0.000 A 
ENDROOT
BRANCH   4  12
ATOM     12  C   UNL     1       3.270   5.475  18.236  0.00  0.00    +0.000 A 
ATOM     13  C   UNL     1       2.301   4.473  18.382  0.00  0.00    +0.000 A 
ATOM     14  C   UNL     1       2.653   3.235  18.928  0.00  0.00    +0.000 A 
ATOM     15  C   UNL     1       3.968   3.002  19.319  0.00  0.00    +0.000 A 
ATOM     16  F   UNL     1       4.291   1.825  19.870  0.00  0.00    +0.000 F 
ATOM     17  C   UNL     1       4.947   3.972  19.160  0.00  0.00    +0.000 A 
ATOM     18  C   UNL     1       4.591   5.205  18.620  0.00  0.00    +0.000 A 
ATOM     19  F   UNL     1       5.535   6.149  18.501  0.00  0.00    +0.000 F 
ENDBRANCH   4  12
BRANCH   8  20
ATOM     20  O   UNL     1       0.053   9.898  23.573  0.00  0.00    +0.000 OA
ATOM     21  H   UNL     1       0.798  10.214  24.111  0.00  0.00    +0.000 HD
ENDBRANCH   8  20
TORSDOF 2
ENDMDL
MODEL 4
REMARK VINA RESULT:      -7.5      4.319      7.301
REMARK  Name = 
REMARK  2 active torsions:
REMARK  status: ('A' for Active; 'I' for Inactive)
REMARK    1  A    between atoms: C_4  and  C_5
REMARK    2  A    between atoms: C_16  and  O_17
REMARK                            x       y       z     vdW  Elec       q    Type
REMARK                         _______ _______ _______ _____ _____    ______ ____
ROOT
ATOM      1  O   UNL     1       7.751   6.318  17.322  0.00  0.00    +0.000 OA
ATOM      2  C   UNL     1       6.863   5.628  16.876  0.00  0.00    +0.000 C 
ATOM      3  C   UNL     1       5.641   5.112  17.561  0.00  0.00    +0.000 C 
ATOM      4  C   UNL     1       5.302   5.350  18.835  0.00  0.00    +0.000 C 
ATOM      5  O   UNL     1       4.881   4.333  16.692  0.00  0.00    +0.000 OA
ATOM      6  C   UNL     1       5.553   4.337  15.496  0.00  0.00    +0.000 A 
ATOM      7  C   UNL     1       5.129   3.682  14.360  0.00  0.00    +0.000 A 
ATOM      8  C   UNL     1       5.941   3.789  13.235  0.00  0.00    +0.000 A 
ATOM      9  C   UNL     1       7.139   4.528  13.255  0.00  0.00    +0.000 A 
ATOM     10  C   UNL     1       7.551   5.188  14.418  0.00  0.00    +0.000 A 
ATOM     11  C   UNL     1       6.735   5.077  15.527  0.00  0.00    +0.000 A 
ENDROOT
BRANCH   4  12
ATOM     12  C   UNL     1       4.074   4.767  19.383  0.00  0.00    +0.000 A 
ATOM     13  C   UNL     1       2.980   5.592  19.676  0.00  0.00    +0.000 A 
ATOM     14  C   UNL     1       1.863   5.065  20.332  0.00  0.00    +0.000 A 
ATOM     15  C   UNL     1       1.842   3.720  20.686  0.00  0.00    +0.000 A 
ATOM     16  F   UNL     1       0.782   3.230  21.343  0.00  0.00    +0.000 F 
ATOM     17  C   UNL     1       2.904   2.881  20.383  0.00  0.00    +0.000 A 
ATOM     18  C   UNL     1       4.015   3.411  19.733  0.00  0.00    +0.000 A 
ATOM     19  F   UNL     1       5.052   2.602  19.473  0.00  0.00    +0.000 F 
ENDBRANCH   4  12
BRANCH   8  20
ATOM     20  O   UNL     1       5.599   3.174  12.066  0.00  0.00    +0.000 OA
ATOM     21  H   UNL     1       6.315   2.571  11.804  0.00  0.00    +0.000 HD
ENDBRANCH   8  20
TORSDOF 2
ENDMDL
MODEL 5
REMARK VINA RESULT:      -7.4      2.538      3.636
REMARK  Name = 
REMARK  2 active torsions:
REMARK  status: ('A' for Active; 'I' for Inactive)
REMARK    1  A    between atoms: C_4  and  C_5
REMARK    2  A    between atoms: C_16  and  O_17
REMARK                            x       y       z     vdW  Elec       q    Type
REMARK                         _______ _______ _______ _____ _____    ______ ____
ROOT
ATOM      1  O   UNL     1       2.123   5.311  21.238  0.00  0.00    +0.000 OA
ATOM      2  C   UNL     1       2.408   5.984  20.273  0.00  0.00    +0.000 C 
ATOM      3  C   UNL     1       3.376   5.687  19.176  0.00  0.00    +0.000 C 
ATOM      4  C   UNL     1       4.112   4.574  19.064  0.00  0.00    +0.000 C 
ATOM      5  O   UNL     1       3.422   6.739  18.264  0.00  0.00    +0.000 OA
ATOM      6  C   UNL     1       2.530   7.676  18.721  0.00  0.00    +0.000 A 
ATOM      7  C   UNL     1       2.269   8.876  18.097  0.00  0.00    +0.000 A 
ATOM      8  C   UNL     1       1.337   9.710  18.707  0.00  0.00    +0.000 A 
ATOM      9  C   UNL     1       0.693   9.348  19.905  0.00  0.00    +0.000 A 
ATOM     10  C   UNL     1       0.971   8.123  20.523  0.00  0.00    +0.000 A 
ATOM     11  C   UNL     1       1.895   7.303  19.905  0.00  0.00    +0.000 A 
ENDROOT
BRANCH   4  12
ATOM     12  C   UNL     1       5.035   4.421  17.936  0.00  0.00    +0.000 A 
ATOM     13  C   UNL     1       6.375   4.806  18.074  0.00  0.00    +0.000 A 
ATOM     14  C   UNL     1       7.222   4.800  16.962  0.00  0.00    +0.000 A 
ATOM     15  C   UNL     1       6.730   4.406  15.721  0.00  0.00    +0.000 A 
ATOM     16  F   UNL     1       7.539   4.434  14.654  0.00  0.00    +0.000 F 
ATOM     17  C   UNL     1       5.413   3.999  15.569  0.00  0.00    +0.000 A 
ATOM     18  C   UNL     1       4.572   4.011  16.678  0.00  0.00    +0.000 A 
ATOM     19  F   UNL     1       3.292   3.648  16.516  0.00  0.00    +0.000 F 
ENDBRANCH   4  12
BRANCH   8  20
ATOM     20  O   UNL     1       1.016  10.917  18.158  0.00  0.00    +0.000 OA
ATOM     21  H   UNL     1       0.050  11.025  18.174  0.00  0.00    +0.000 HD
ENDBRANCH   8  20
TORSDOF 2
ENDMDL
MODEL 6
REMARK VINA RESULT:      -7.4      4.977      5.940
REMARK  Name = 
REMARK  2 active torsions:
REMARK  status: ('A' for Active; 'I' for Inactive)
REMARK    1  A    between atoms: C_4  and  C_5
REMARK    2  A    between atoms: C_16  and  O_17
REMARK                            x       y       z     vdW  Elec       q    Type
REMARK                         _______ _______ _______ _____ _____    ______ ____
ROOT
ATOM      1  O   UNL     1       2.429   2.871  16.147  0.00  0.00    +0.000 OA
ATOM      2  C   UNL     1       2.798   3.257  17.234  0.00  0.00    +0.000 C 
ATOM      3  C   UNL     1       3.974   4.110  17.577  0.00  0.00    +0.000 C 
ATOM      4  C   UNL     1       4.847   4.625  16.701  0.00  0.00    +0.000 C 
ATOM      5  O   UNL     1       4.053   4.306  18.954  0.00  0.00    +0.000 OA
ATOM      6  C   UNL     1       2.989   3.631  19.495  0.00  0.00    +0.000 A 
ATOM      7  C   UNL     1       2.699   3.578  20.840  0.00  0.00    +0.000 A 
ATOM      8  C   UNL     1       1.580   2.839  21.212  0.00  0.00    +0.000 A 
ATOM      9  C   UNL     1       0.782   2.176  20.261  0.00  0.00    +0.000 A 
ATOM     10  C   UNL     1       1.091   2.244  18.898  0.00  0.00    +0.000 A 
ATOM     11  C   UNL     1       2.203   2.983  18.542  0.00  0.00    +0.000 A 
ENDROOT
BRANCH   4  12
ATOM     12  C   UNL     1       5.967   5.438  17.183  0.00  0.00    +0.000 A 
ATOM     13  C   UNL     1       6.881   4.897  18.097  0.00  0.00    +0.000 A 
ATOM     14  C   UNL     1       7.862   5.710  18.670  0.00  0.00    +0.000 A 
ATOM     15  C   UNL     1       7.931   7.057  18.324  0.00  0.00    +0.000 A 
ATOM     16  F   UNL     1       8.854   7.837  18.901  0.00  0.00    +0.000 F 
ATOM     17  C   UNL     1       7.051   7.606  17.403  0.00  0.00    +0.000 A 
ATOM     18  C   UNL     1       6.073   6.793  16.839  0.00  0.00    +0.000 A 
ATOM     19  F   UNL     1       5.205   7.339  15.975  0.00  0.00    +0.000 F 
ENDBRANCH   4  12
BRANCH   8  20
ATOM     20  O   UNL     1       1.218   2.733  22.524  0.00  0.00    +0.000 OA
ATOM     21  H   UNL     1       0.299   3.034  22.623  0.00  0.00    +0.000 HD
ENDBRANCH   8  20
TORSDOF 2
ENDMDL
MODEL 7
REMARK VINA RESULT:      -7.4      2.895      6.694
REMARK  Name = 
REMARK  2 active torsions:
REMARK  status: ('A' for Active; 'I' for Inactive)
REMARK    1  A    between atoms: C_4  and  C_5
REMARK    2  A    between atoms: C_16  and  O_17
REMARK                            x       y       z     vdW  Elec       q    Type
REMARK                         _______ _______ _______ _____ _____    ______ ____
ROOT
ATOM      1  O   UNL     1       5.028   6.787  17.111  0.00  0.00    +0.000 OA
ATOM      2  C   UNL     1       3.988   6.358  17.558  0.00  0.00    +0.000 C 
ATOM      3  C   UNL     1       2.808   7.111  18.076  0.00  0.00    +0.000 C 
ATOM      4  C   UNL     1       2.692   8.444  18.123  0.00  0.00    +0.000 C 
ATOM      5  O   UNL     1       1.821   6.233  18.518  0.00  0.00    +0.000 OA
ATOM      6  C   UNL     1       2.311   4.971  18.299  0.00  0.00    +0.000 A 
ATOM      7  C   UNL     1       1.635   3.807  18.595  0.00  0.00    +0.000 A 
ATOM      8  C   UNL     1       2.288   2.612  18.311  0.00  0.00    +0.000 A 
ATOM      9  C   UNL     1       3.579   2.590  17.749  0.00  0.00    +0.000 A 
ATOM     10  C   UNL     1       4.249   3.783  17.453  0.00  0.00    +0.000 A 
ATOM     11  C   UNL     1       3.587   4.962  17.737  0.00  0.00    +0.000 A 
ENDROOT
BRANCH   4  12
ATOM     12  C   UNL     1       1.475   9.050  18.672  0.00  0.00    +0.000 A 
ATOM     13  C   UNL     1       0.617   9.775  17.834  0.00  0.00    +0.000 A 
ATOM     14  C   UNL     1      -0.463  10.476  18.378  0.00  0.00    +0.000 A 
ATOM     15  C   UNL     1      -0.685  10.445  19.751  0.00  0.00    +0.000 A 
ATOM     16  F   UNL     1      -1.703  11.145  20.268  0.00  0.00    +0.000 F 
ATOM     17  C   UNL     1       0.138   9.714  20.595  0.00  0.00    +0.000 A 
ATOM     18  C   UNL     1       1.216   9.022  20.049  0.00  0.00    +0.000 A 
ATOM     19  F   UNL     1       2.027   8.345  20.875  0.00  0.00    +0.000 F 
ENDBRANCH   4  12
BRANCH   8  20
ATOM     20  O   UNL     1       1.693   1.412  18.571  0.00  0.00    +0.000 OA
ATOM     21  H   UNL     1       0.761   1.564  18.801  0.00  0.00    +0.000 HD
ENDBRANCH   8  20
TORSDOF 2
ENDMDL
MODEL 8
REMARK VINA RESULT:      -7.2      3.528      4.791
REMARK  Name = 
REMARK  2 active torsions:
REMARK  status: ('A' for Active; 'I' for Inactive)
REMARK    1  A    between atoms: C_4  and  C_5
REMARK    2  A    between atoms: C_16  and  O_17
REMARK                            x       y       z     vdW  Elec       q    Type
REMARK                         _______ _______ _______ _____ _____    ______ ____
ROOT
ATOM      1  O   UNL     1       3.163   3.431  20.243  0.00  0.00    +0.000 OA
ATOM      2  C   UNL     1       3.211   4.447  19.588  0.00  0.00    +0.000 C 
ATOM      3  C   UNL     1       3.978   4.722  18.337  0.00  0.00    +0.000 C 
ATOM      4  C   UNL     1       4.766   3.847  17.697  0.00  0.00    +0.000 C 
ATOM      5  O   UNL     1       3.772   6.031  17.910  0.00  0.00    +0.000 OA
ATOM      6  C   UNL     1       2.910   6.593  18.818  0.00  0.00    +0.000 A 
ATOM      7  C   UNL     1       2.444   7.888  18.755  0.00  0.00    +0.000 A 
ATOM      8  C   UNL     1       1.580   8.294  19.768  0.00  0.00    +0.000 A 
ATOM      9  C   UNL     1       1.199   7.425  20.807  0.00  0.00    +0.000 A 
ATOM     10  C   UNL     1       1.682   6.111  20.853  0.00  0.00    +0.000 A 
ATOM     11  C   UNL     1       2.537   5.721  19.840  0.00  0.00    +0.000 A 
ENDROOT
BRANCH   4  12
ATOM     12  C   UNL     1       5.472   4.259  16.480  0.00  0.00    +0.000 A 
ATOM     13  C   UNL     1       4.852   4.119  15.231  0.00  0.00    +0.000 A 
ATOM     14  C   UNL     1       5.572   4.372  14.061  0.00  0.00    +0.000 A 
ATOM     15  C   UNL     1       6.904   4.768  14.142  0.00  0.00    +0.000 A 
ATOM     16  F   UNL     1       7.598   4.977  13.015  0.00  0.00    +0.000 F 
ATOM     17  C   UNL     1       7.529   4.935  15.368  0.00  0.00    +0.000 A 
ATOM     18  C   UNL     1       6.809   4.678  16.532  0.00  0.00    +0.000 A 
ATOM     19  F   UNL     1       7.429   4.810  17.713  0.00  0.00    +0.000 F 
ENDBRANCH   4  12
BRANCH   8  20
ATOM     20  O   UNL     1       1.068   9.559  19.784  0.00  0.00    +0.000 OA
ATOM     21  H   UNL     1       0.109   9.514  19.630  0.00  0.00    +0.000 HD
ENDBRANCH   8  20
TORSDOF 2
ENDMDL
MODEL 9
REMARK VINA RESULT:      -7.2      4.365      5.716
REMARK  Name = 
REMARK  2 active torsions:
REMARK  status: ('A' for Active; 'I' for Inactive)
REMARK    1  A    between atoms: C_4  and  C_5
REMARK    2  A    between atoms: C_16  and  O_17
REMARK                            x       y       z     vdW  Elec       q    Type
REMARK                         _______ _______ _______ _____ _____    ______ ____
ROOT
ATOM      1  O   UNL     1       4.384   3.245  19.239  0.00  0.00    +0.000 OA
ATOM      2  C   UNL     1       4.228   4.220  18.539  0.00  0.00    +0.000 C 
ATOM      3  C   UNL     1       4.758   4.486  17.169  0.00  0.00    +0.000 C 
ATOM      4  C   UNL     1       5.517   3.649  16.449  0.00  0.00    +0.000 C 
ATOM      5  O   UNL     1       4.360   5.744  16.723  0.00  0.00    +0.000 OA
ATOM      6  C   UNL     1       3.601   6.280  17.732  0.00  0.00    +0.000 A 
ATOM      7  C   UNL     1       3.006   7.522  17.687  0.00  0.00    +0.000 A 
ATOM      8  C   UNL     1       2.276   7.909  18.807  0.00  0.00    +0.000 A 
ATOM      9  C   UNL     1       2.151   7.074  19.933  0.00  0.00    +0.000 A 
ATOM     10  C   UNL     1       2.762   5.814  19.959  0.00  0.00    +0.000 A 
ATOM     11  C   UNL     1       3.480   5.441  18.839  0.00  0.00    +0.000 A 
ENDROOT
BRANCH   4  12
ATOM     12  C   UNL     1       5.979   4.048  15.117  0.00  0.00    +0.000 A 
ATOM     13  C   UNL     1       5.453   3.421  13.979  0.00  0.00    +0.000 A 
ATOM     14  C   UNL     1       5.994   3.693  12.719  0.00  0.00    +0.000 A 
ATOM     15  C   UNL     1       7.050   4.591  12.600  0.00  0.00    +0.000 A 
ATOM     16  F   UNL     1       7.584   4.822  11.393  0.00  0.00    +0.000 F 
ATOM     17  C   UNL     1       7.569   5.239  13.711  0.00  0.00    +0.000 A 
ATOM     18  C   UNL     1       7.030   4.963  14.964  0.00  0.00    +0.000 A 
ATOM     19  F   UNL     1       7.559   5.568  16.037  0.00  0.00    +0.000 F 
ENDBRANCH   4  12
BRANCH   8  20
ATOM     20  O   UNL     1       1.652   9.122  18.849  0.00  0.00    +0.000 OA
ATOM     21  H   UNL     1       1.147   9.189  19.677  0.00  0.00    +0.000 HD
ENDBRANCH   8  20
TORSDOF 2
ENDMDL
