MODEL 1
REMARK VINA RESULT:      -7.3      0.000      0.000
REMARK  Name = 
REMARK  9 active torsions:
REMARK  status: ('A' for Active; 'I' for Inactive)
REMARK    1  A    between atoms: C_1  and  C_2
REMARK    2  A    between atoms: C_2  and  C_3
REMARK    3  A    between atoms: C_2  and  C_4
REMARK    4  A    between atoms: C_4  and  N_5
REMARK    5  A    between atoms: C_6  and  O_7
REMARK    6  A    between atoms: C_12  and  S_13
REMARK    7  A    between atoms: S_13  and  C_14
REMARK    8  A    between atoms: C_14  and  C_15
REMARK    9  A    between atoms: C_18  and  C_19
REMARK                            x       y       z     vdW  Elec       q    Type
REMARK                         _______ _______ _______ _____ _____    ______ ____
ROOT
ATOM      1  N   UNL     1       6.107   5.679  17.095  0.00  0.00    +0.000 N 
ATOM      2  C   UNL     1       7.066   6.609  17.490  0.00  0.00    +0.000 A 
ATOM      3  C   UNL     1       7.727   6.494  18.642  0.00  0.00    +0.000 A 
ATOM      4  C   UNL     1       7.418   5.355  19.518  0.00  0.00    +0.000 A 
ATOM      5  O   UNL     1       8.112   5.164  20.510  0.00  0.00    +0.000 OA
ATOM      6  N   UNL     1       6.321   4.592  19.215  0.00  0.00    +0.000 NA
ATOM      7  C   UNL     1       5.727   4.749  18.075  0.00  0.00    +0.000 A 
ENDROOT
BRANCH   2   8
ATOM      8  O   UNL     1       7.334   7.708  16.705  0.00  0.00    +0.000 OA
ATOM      9  H   UNL     1       8.296   7.755  16.593  0.00  0.00    +0.000 HD
ENDBRANCH   2   8
BRANCH   1  10
ATOM     10  C   UNL     1       5.550   5.678  15.721  0.00  0.00    +0.000 C 
BRANCH  10  12
ATOM     11  C   UNL     1       5.230   4.064  13.770  0.00  0.00    +0.000 C 
ATOM     12  C   UNL     1       6.220   4.652  14.775  0.00  0.00    +0.000 C 
ATOM     13  C   UNL     1       7.386   5.312  14.028  0.00  0.00    +0.000 C 
ENDBRANCH  10  12
ENDBRANCH   1  10
BRANCH   7  14
ATOM     14  S   UNL     1       4.307   3.716  17.824  0.00  0.00    +0.000 S 
BRANCH  14  15
ATOM     15  C   UNL     1       3.659   3.575  19.527  0.00  0.00    +0.000 C 
BRANCH  15  16
ATOM     16  C   UNL     1       2.929   4.803  19.933  0.00  0.00    +0.000 A 
ATOM     17  N   UNL     1       2.201   5.040  21.006  0.00  0.00    +0.000 NA
ATOM     18  N   UNL     1       1.717   6.325  20.866  0.00  0.00    +0.000 NA
ATOM     19  C   UNL     1       2.166   6.795  19.718  0.00  0.00    +0.000 A 
ATOM     20  O   UNL     1       2.942   5.862  19.064  0.00  0.00    +0.000 OA
BRANCH  19  21
ATOM     21  C   UNL     1       1.895   8.116  19.221  0.00  0.00    +0.000 A 
ATOM     22  C   UNL     1       2.317   8.671  18.027  0.00  0.00    +0.000 A 
ATOM     23  C   UNL     1       1.837  10.002  17.841  0.00  0.00    +0.000 A 
ATOM     24  C   UNL     1       1.073  10.426  18.905  0.00  0.00    +0.000 A 
ATOM     25  S   UNL     1       0.942   9.227  20.116  0.00  0.00    +0.000 S 
ENDBRANCH  19  21
ENDBRANCH  15  16
ENDBRANCH  14  15
ENDBRANCH   7  14
TORSDOF 7
ENDMDL
MODEL 2
REMARK VINA RESULT:      -7.2      2.936      4.672
REMARK  Name = 
REMARK  9 active torsions:
REMARK  status: ('A' for Active; 'I' for Inactive)
REMARK    1  A    between atoms: C_1  and  C_2
REMARK    2  A    between atoms: C_2  and  C_3
REMARK    3  A    between atoms: C_2  and  C_4
REMARK    4  A    between atoms: C_4  and  N_5
REMARK    5  A    between atoms: C_6  and  O_7
REMARK    6  A    between atoms: C_12  and  S_13
REMARK    7  A    between atoms: S_13  and  C_14
REMARK    8  A    between atoms: C_14  and  C_15
REMARK    9  A    between atoms: C_18  and  C_19
REMARK                            x       y       z     vdW  Elec       q    Type
REMARK                         _______ _______ _______ _____ _____    ______ ____
ROOT
ATOM      1  N   UNL     1       3.752   3.698  18.195  0.00  0.00    +0.000 N 
ATOM      2  C   UNL     1       3.370   2.369  18.028  0.00  0.00    +0.000 A 
ATOM      3  C   UNL     1       2.134   1.951  18.298  0.00  0.00    +0.000 A 
ATOM      4  C   UNL     1       1.156   2.930  18.798  0.00  0.00    +0.000 A 
ATOM      5  O   UNL     1      -0.015   2.589  18.920  0.00  0.00    +0.000 OA
ATOM      6  N   UNL     1       1.618   4.166  19.167  0.00  0.00    +0.000 NA
ATOM      7  C   UNL     1       2.829   4.513  18.867  0.00  0.00    +0.000 A 
ENDROOT
BRANCH   2   8
ATOM      8  O   UNL     1       4.285   1.429  17.607  0.00  0.00    +0.000 OA
ATOM      9  H   UNL     1       4.612   1.714  16.740  0.00  0.00    +0.000 HD
ENDBRANCH   2   8
BRANCH   1  10
ATOM     10  C   UNL     1       5.045   4.203  17.674  0.00  0.00    +0.000 C 
BRANCH  10  12
ATOM     11  C   UNL     1       5.444   5.994  15.900  0.00  0.00    +0.000 C 
ATOM     12  C   UNL     1       5.020   4.551  16.165  0.00  0.00    +0.000 C 
ATOM     13  C   UNL     1       5.933   3.592  15.391  0.00  0.00    +0.000 C 
ENDBRANCH  10  12
ENDBRANCH   1  10
BRANCH   7  14
ATOM     14  S   UNL     1       3.302   6.128  19.427  0.00  0.00    +0.000 S 
BRANCH  14  15
ATOM     15  C   UNL     1       2.826   7.160  17.996  0.00  0.00    +0.000 C 
BRANCH  15  16
ATOM     16  C   UNL     1       1.974   8.303  18.412  0.00  0.00    +0.000 A 
ATOM     17  N   UNL     1       1.548   9.338  17.716  0.00  0.00    +0.000 NA
ATOM     18  N   UNL     1       0.828  10.122  18.595  0.00  0.00    +0.000 NA
ATOM     19  C   UNL     1       0.862   9.530  19.773  0.00  0.00    +0.000 A 
ATOM     20  O   UNL     1       1.592   8.362  19.726  0.00  0.00    +0.000 OA
BRANCH  19  21
ATOM     21  C   UNL     1       0.207  10.029  20.950  0.00  0.00    +0.000 A 
ATOM     22  C   UNL     1      -0.269   9.300  22.025  0.00  0.00    +0.000 A 
ATOM     23  C   UNL     1      -0.840  10.126  23.039  0.00  0.00    +0.000 A 
ATOM     24  C   UNL     1      -0.793  11.460  22.701  0.00  0.00    +0.000 A 
ATOM     25  S   UNL     1      -0.069  11.707  21.173  0.00  0.00    +0.000 S 
ENDBRANCH  19  21
ENDBRANCH  15  16
ENDBRANCH  14  15
ENDBRANCH   7  14
TORSDOF 7
ENDMDL
MODEL 3
REMARK VINA RESULT:      -7.0      1.582      2.080
REMARK  Name = 
REMARK  9 active torsions:
REMARK  status: ('A' for Active; 'I' for Inactive)
REMARK    1  A    between atoms: C_1  and  C_2
REMARK    2  A    between atoms: C_2  and  C_3
REMARK    3  A    between atoms: C_2  and  C_4
REMARK    4  A    between atoms: C_4  and  N_5
REMARK    5  A    between atoms: C_6  and  O_7
REMARK    6  A    between atoms: C_12  and  S_13
REMARK    7  A    between atoms: S_13  and  C_14
REMARK    8  A    between atoms: C_14  and  C_15
REMARK    9  A    between atoms: C_18  and  C_19
REMARK                            x       y       z     vdW  Elec       q    Type
REMARK                         _______ _______ _______ _____ _____    ______ ____
ROOT
ATOM      1  N   UNL     1       6.098   6.033  17.394  0.00  0.00    +0.000 N 
ATOM      2  C   UNL     1       7.253   6.754  17.682  0.00  0.00    +0.000 A 
ATOM      3  C   UNL     1       7.951   6.550  18.799  0.00  0.00    +0.000 A 
ATOM      4  C   UNL     1       7.472   5.538  19.752  0.00  0.00    +0.000 A 
ATOM      5  O   UNL     1       8.176   5.245  20.711  0.00  0.00    +0.000 OA
ATOM      6  N   UNL     1       6.222   5.012  19.553  0.00  0.00    +0.000 NA
ATOM      7  C   UNL     1       5.599   5.244  18.442  0.00  0.00    +0.000 A 
ENDROOT
BRANCH   2   8
ATOM      8  O   UNL     1       7.691   7.739  16.825  0.00  0.00    +0.000 OA
ATOM      9  H   UNL     1       6.906   8.131  16.412  0.00  0.00    +0.000 HD
ENDBRANCH   2   8
BRANCH   1  10
ATOM     10  C   UNL     1       5.462   6.093  16.056  0.00  0.00    +0.000 C 
BRANCH  10  12
ATOM     11  C   UNL     1       7.148   4.228  15.616  0.00  0.00    +0.000 C 
ATOM     12  C   UNL     1       6.154   5.207  14.992  0.00  0.00    +0.000 C 
ATOM     13  C   UNL     1       5.101   4.433  14.188  0.00  0.00    +0.000 C 
ENDBRANCH  10  12
ENDBRANCH   1  10
BRANCH   7  14
ATOM     14  S   UNL     1       3.981   4.525  18.329  0.00  0.00    +0.000 S 
BRANCH  14  15
ATOM     15  C   UNL     1       3.165   5.242  19.798  0.00  0.00    +0.000 C 
BRANCH  15  16
ATOM     16  C   UNL     1       2.582   6.574  19.499  0.00  0.00    +0.000 A 
ATOM     17  N   UNL     1       2.629   7.290  18.393  0.00  0.00    +0.000 NA
ATOM     18  N   UNL     1       1.961   8.466  18.668  0.00  0.00    +0.000 NA
ATOM     19  C   UNL     1       1.553   8.407  19.921  0.00  0.00    +0.000 A 
ATOM     20  O   UNL     1       1.929   7.222  20.514  0.00  0.00    +0.000 OA
BRANCH  19  21
ATOM     21  C   UNL     1       0.798   9.438  20.577  0.00  0.00    +0.000 A 
ATOM     22  C   UNL     1       0.304  10.605  20.023  0.00  0.00    +0.000 A 
ATOM     23  C   UNL     1      -0.429  11.391  20.962  0.00  0.00    +0.000 A 
ATOM     24  C   UNL     1      -0.461  10.806  22.208  0.00  0.00    +0.000 A 
ATOM     25  S   UNL     1       0.389   9.323  22.239  0.00  0.00    +0.000 S 
ENDBRANCH  19  21
ENDBRANCH  15  16
ENDBRANCH  14  15
ENDBRANCH   7  14
TORSDOF 7
ENDMDL
MODEL 4
REMARK VINA RESULT:      -7.0      1.783      2.392
REMARK  Name = 
REMARK  9 active torsions:
REMARK  status: ('A' for Active; 'I' for Inactive)
REMARK    1  A    between atoms: C_1  and  C_2
REMARK    2  A    between atoms: C_2  and  C_3
REMARK    3  A    between atoms: C_2  and  C_4
REMARK    4  A    between atoms: C_4  and  N_5
REMARK    5  A    between atoms: C_6  and  O_7
REMARK    6  A    between atoms: C_12  and  S_13
REMARK    7  A    between atoms: S_13  and  C_14
REMARK    8  A    between atoms: C_14  and  C_15
REMARK    9  A    between atoms: C_18  and  C_19
REMARK                            x       y       z     vdW  Elec       q    Type
REMARK                         _______ _______ _______ _____ _____    ______ ____
ROOT
ATOM      1  N   UNL     1       5.979   6.126  17.386  0.00  0.00    +0.000 N 
ATOM      2  C   UNL     1       7.242   6.669  17.612  0.00  0.00    +0.000 A 
ATOM      3  C   UNL     1       7.931   6.412  18.723  0.00  0.00    +0.000 A 
ATOM      4  C   UNL     1       7.326   5.537  19.738  0.00  0.00    +0.000 A 
ATOM      5  O   UNL     1       8.002   5.184  20.697  0.00  0.00    +0.000 OA
ATOM      6  N   UNL     1       6.004   5.207  19.594  0.00  0.00    +0.000 NA
ATOM      7  C   UNL     1       5.393   5.479  18.485  0.00  0.00    +0.000 A 
ENDROOT
BRANCH   2   8
ATOM      8  O   UNL     1       7.804   7.529  16.694  0.00  0.00    +0.000 OA
ATOM      9  H   UNL     1       8.572   7.942  17.119  0.00  0.00    +0.000 HD
ENDBRANCH   2   8
BRANCH   1  10
ATOM     10  C   UNL     1       5.322   6.220  16.060  0.00  0.00    +0.000 C 
BRANCH  10  12
ATOM     11  C   UNL     1       7.093   5.102  14.601  0.00  0.00    +0.000 C 
ATOM     12  C   UNL     1       5.654   5.042  15.111  0.00  0.00    +0.000 C 
ATOM     13  C   UNL     1       5.413   3.708  15.829  0.00  0.00    +0.000 C 
ENDBRANCH  10  12
ENDBRANCH   1  10
BRANCH   7  14
ATOM     14  S   UNL     1       3.680   5.021  18.444  0.00  0.00    +0.000 S 
BRANCH  14  15
ATOM     15  C   UNL     1       2.959   6.215  19.624  0.00  0.00    +0.000 C 
BRANCH  15  16
ATOM     16  C   UNL     1       2.449   7.424  18.929  0.00  0.00    +0.000 A 
ATOM     17  N   UNL     1       2.711   7.880  17.721  0.00  0.00    +0.000 NA
ATOM     18  N   UNL     1       2.007   9.060  17.594  0.00  0.00    +0.000 NA
ATOM     19  C   UNL     1       1.365   9.262  18.728  0.00  0.00    +0.000 A 
ATOM     20  O   UNL     1       1.615   8.253  19.632  0.00  0.00    +0.000 OA
BRANCH  19  21
ATOM     21  C   UNL     1       0.500  10.382  18.982  0.00  0.00    +0.000 A 
ATOM     22  C   UNL     1      -0.721  10.656  18.394  0.00  0.00    +0.000 A 
ATOM     23  C   UNL     1      -1.323  11.844  18.908  0.00  0.00    +0.000 A 
ATOM     24  C   UNL     1      -0.537  12.446  19.864  0.00  0.00    +0.000 A 
ATOM     25  S   UNL     1       0.914  11.584  20.134  0.00  0.00    +0.000 S 
ENDBRANCH  19  21
ENDBRANCH  15  16
ENDBRANCH  14  15
ENDBRANCH   7  14
TORSDOF 7
ENDMDL
MODEL 5
REMARK VINA RESULT:      -7.0      2.856      4.532
REMARK  Name = 
REMARK  9 active torsions:
REMARK  status: ('A' for Active; 'I' for Inactive)
REMARK    1  A    between atoms: C_1  and  C_2
REMARK    2  A    between atoms: C_2  and  C_3
REMARK    3  A    between atoms: C_2  and  C_4
REMARK    4  A    between atoms: C_4  and  N_5
REMARK    5  A    between atoms: C_6  and  O_7
REMARK    6  A    between atoms: C_12  and  S_13
REMARK    7  A    between atoms: S_13  and  C_14
REMARK    8  A    between atoms: C_14  and  C_15
REMARK    9  A    between atoms: C_18  and  C_19
REMARK                            x       y       z     vdW  Elec       q    Type
REMARK                         _______ _______ _______ _____ _____    ______ ____
ROOT
ATOM      1  N   UNL     1       4.014   4.303  19.195  0.00  0.00    +0.000 N 
ATOM      2  C   UNL     1       3.993   2.922  19.370  0.00  0.00    +0.000 A 
ATOM      3  C   UNL     1       2.889   2.203  19.170  0.00  0.00    +0.000 A 
ATOM      4  C   UNL     1       1.660   2.901  18.762  0.00  0.00    +0.000 A 
ATOM      5  O   UNL     1       0.680   2.240  18.443  0.00  0.00    +0.000 OA
ATOM      6  N   UNL     1       1.653   4.270  18.821  0.00  0.00    +0.000 NA
ATOM      7  C   UNL     1       2.762   4.910  19.012  0.00  0.00    +0.000 A 
ENDROOT
BRANCH   2   8
ATOM      8  O   UNL     1       5.121   2.257  19.798  0.00  0.00    +0.000 OA
ATOM      9  H   UNL     1       5.707   2.162  19.032  0.00  0.00    +0.000 HD
ENDBRANCH   2   8
BRANCH   1  10
ATOM     10  C   UNL     1       5.288   5.063  19.188  0.00  0.00    +0.000 C 
BRANCH  10  12
ATOM     11  C   UNL     1       5.648   6.059  16.865  0.00  0.00    +0.000 C 
ATOM     12  C   UNL     1       6.065   4.970  17.852  0.00  0.00    +0.000 C 
ATOM     13  C   UNL     1       7.574   5.061  18.116  0.00  0.00    +0.000 C 
ENDBRANCH  10  12
ENDBRANCH   1  10
BRANCH   7  14
ATOM     14  S   UNL     1       2.603   6.674  19.092  0.00  0.00    +0.000 S 
BRANCH  14  15
ATOM     15  C   UNL     1       1.686   6.884  20.658  0.00  0.00    +0.000 C 
BRANCH  15  16
ATOM     16  C   UNL     1       1.385   8.314  20.924  0.00  0.00    +0.000 A 
ATOM     17  N   UNL     1       1.244   8.951  22.069  0.00  0.00    +0.000 NA
ATOM     18  N   UNL     1       0.929  10.255  21.747  0.00  0.00    +0.000 NA
ATOM     19  C   UNL     1       0.887  10.339  20.431  0.00  0.00    +0.000 A 
ATOM     20  O   UNL     1       1.160   9.124  19.843  0.00  0.00    +0.000 OA
BRANCH  19  21
ATOM     21  C   UNL     1       0.609  11.547  19.705  0.00  0.00    +0.000 A 
ATOM     22  C   UNL     1       1.489  12.570  19.399  0.00  0.00    +0.000 A 
ATOM     23  C   UNL     1       0.878  13.610  18.635  0.00  0.00    +0.000 A 
ATOM     24  C   UNL     1      -0.453  13.354  18.393  0.00  0.00    +0.000 A 
ATOM     25  S   UNL     1      -0.956  11.874  19.084  0.00  0.00    +0.000 S 
ENDBRANCH  19  21
ENDBRANCH  15  16
ENDBRANCH  14  15
ENDBRANCH   7  14
TORSDOF 7
ENDMDL
MODEL 6
REMARK VINA RESULT:      -7.0      3.125      4.855
REMARK  Name = 
REMARK  9 active torsions:
REMARK  status: ('A' for Active; 'I' for Inactive)
REMARK    1  A    between atoms: C_1  and  C_2
REMARK    2  A    between atoms: C_2  and  C_3
REMARK    3  A    between atoms: C_2  and  C_4
REMARK    4  A    between atoms: C_4  and  N_5
REMARK    5  A    between atoms: C_6  and  O_7
REMARK    6  A    between atoms: C_12  and  S_13
REMARK    7  A    between atoms: S_13  and  C_14
REMARK    8  A    between atoms: C_14  and  C_15
REMARK    9  A    between atoms: C_18  and  C_19
REMARK                            x       y       z     vdW  Elec       q    Type
REMARK                         _______ _______ _______ _____ _____    ______ ____
ROOT
ATOM      1  N   UNL     1       4.093   4.382  18.845  0.00  0.00    +0.000 N 
ATOM      2  C   UNL     1       4.033   3.048  19.242  0.00  0.00    +0.000 A 
ATOM      3  C   UNL     1       2.916   2.330  19.136  0.00  0.00    +0.000 A 
ATOM      4  C   UNL     1       1.714   2.979  18.591  0.00  0.00    +0.000 A 
ATOM      5  O   UNL     1       0.723   2.296  18.361  0.00  0.00    +0.000 OA
ATOM      6  N   UNL     1       1.740   4.339  18.425  0.00  0.00    +0.000 NA
ATOM      7  C   UNL     1       2.861   4.977  18.536  0.00  0.00    +0.000 A 
ENDROOT
BRANCH   2   8
ATOM      8  O   UNL     1       5.135   2.438  19.799  0.00  0.00    +0.000 OA
ATOM      9  H   UNL     1       4.812   1.722  20.368  0.00  0.00    +0.000 HD
ENDBRANCH   2   8
BRANCH   1  10
ATOM     10  C   UNL     1       5.386   5.102  18.744  0.00  0.00    +0.000 C 
BRANCH  10  12
ATOM     11  C   UNL     1       5.974   6.183  16.508  0.00  0.00    +0.000 C 
ATOM     12  C   UNL     1       6.092   4.932  17.377  0.00  0.00    +0.000 C 
ATOM     13  C   UNL     1       7.572   4.588  17.591  0.00  0.00    +0.000 C 
ENDBRANCH  10  12
ENDBRANCH   1  10
BRANCH   7  14
ATOM     14  S   UNL     1       2.745   6.734  18.323  0.00  0.00    +0.000 S 
BRANCH  14  15
ATOM     15  C   UNL     1       2.166   7.261  19.974  0.00  0.00    +0.000 C 
BRANCH  15  16
ATOM     16  C   UNL     1       1.431   8.549  19.906  0.00  0.00    +0.000 A 
ATOM     17  N   UNL     1       1.421   9.469  18.962  0.00  0.00    +0.000 NA
ATOM     18  N   UNL     1       0.604  10.482  19.422  0.00  0.00    +0.000 NA
ATOM     19  C   UNL     1       0.171  10.131  20.617  0.00  0.00    +0.000 A 
ATOM     20  O   UNL     1       0.674   8.903  20.991  0.00  0.00    +0.000 OA
BRANCH  19  21
ATOM     21  C   UNL     1      -0.725  10.917  21.419  0.00  0.00    +0.000 A 
ATOM     22  C   UNL     1      -0.966  10.802  22.776  0.00  0.00    +0.000 A 
ATOM     23  C   UNL     1      -1.899  11.771  23.252  0.00  0.00    +0.000 A 
ATOM     24  C   UNL     1      -2.352  12.589  22.240  0.00  0.00    +0.000 A 
ATOM     25  S   UNL     1      -1.656  12.184  20.733  0.00  0.00    +0.000 S 
ENDBRANCH  19  21
ENDBRANCH  15  16
ENDBRANCH  14  15
ENDBRANCH   7  14
TORSDOF 7
ENDMDL
MODEL 7
REMARK VINA RESULT:      -7.0      3.501      6.298
REMARK  Name = 
REMARK  9 active torsions:
REMARK  status: ('A' for Active; 'I' for Inactive)
REMARK    1  A    between atoms: C_1  and  C_2
REMARK    2  A    between atoms: C_2  and  C_3
REMARK    3  A    between atoms: C_2  and  C_4
REMARK    4  A    between atoms: C_4  and  N_5
REMARK    5  A    between atoms: C_6  and  O_7
REMARK    6  A    between atoms: C_12  and  S_13
REMARK    7  A    between atoms: S_13  and  C_14
REMARK    8  A    between atoms: C_14  and  C_15
REMARK    9  A    between atoms: C_18  and  C_19
REMARK                            x       y       z     vdW  Elec       q    Type
REMARK                         _______ _______ _______ _____ _____    ______ ____
ROOT
ATOM      1  N   UNL     1       3.893   5.184  18.931  0.00  0.00    +0.000 N 
ATOM      2  C   UNL     1       2.926   5.928  19.603  0.00  0.00    +0.000 A 
ATOM      3  C   UNL     1       2.504   7.108  19.149  0.00  0.00    +0.000 A 
ATOM      4  C   UNL     1       3.092   7.634  17.908  0.00  0.00    +0.000 A 
ATOM      5  O   UNL     1       2.617   8.648  17.409  0.00  0.00    +0.000 OA
ATOM      6  N   UNL     1       4.192   6.995  17.399  0.00  0.00    +0.000 NA
ATOM      7  C   UNL     1       4.545   5.846  17.881  0.00  0.00    +0.000 A 
ENDROOT
BRANCH   2   8
ATOM      8  O   UNL     1       2.400   5.474  20.792  0.00  0.00    +0.000 OA
ATOM      9  H   UNL     1       2.265   6.247  21.361  0.00  0.00    +0.000 HD
ENDBRANCH   2   8
BRANCH   1  10
ATOM     10  C   UNL     1       4.185   3.779  19.305  0.00  0.00    +0.000 C 
BRANCH  10  12
ATOM     11  C   UNL     1       2.460   3.228  17.506  0.00  0.00    +0.000 C 
ATOM     12  C   UNL     1       3.133   2.763  18.797  0.00  0.00    +0.000 C 
ATOM     13  C   UNL     1       3.791   1.395  18.573  0.00  0.00    +0.000 C 
ENDBRANCH  10  12
ENDBRANCH   1  10
BRANCH   7  14
ATOM     14  S   UNL     1       6.000   5.146  17.148  0.00  0.00    +0.000 S 
BRANCH  14  15
ATOM     15  C   UNL     1       7.303   5.757  18.274  0.00  0.00    +0.000 C 
BRANCH  15  16
ATOM     16  C   UNL     1       7.630   7.180  18.003  0.00  0.00    +0.000 A 
ATOM     17  N   UNL     1       7.331   7.935  16.965  0.00  0.00    +0.000 NA
ATOM     18  N   UNL     1       7.914   9.163  17.202  0.00  0.00    +0.000 NA
ATOM     19  C   UNL     1       8.541   9.087  18.360  0.00  0.00    +0.000 A 
ATOM     20  O   UNL     1       8.406   7.836  18.922  0.00  0.00    +0.000 OA
BRANCH  19  21
ATOM     21  C   UNL     1       9.257  10.175  18.967  0.00  0.00    +0.000 A 
ATOM     22  C   UNL     1       9.306  10.510  20.308  0.00  0.00    +0.000 A 
ATOM     23  C   UNL     1      10.142  11.638  20.562  0.00  0.00    +0.000 A 
ATOM     24  C   UNL     1      10.695  12.139  19.405  0.00  0.00    +0.000 A 
ATOM     25  S   UNL     1      10.205  11.253  18.028  0.00  0.00    +0.000 S 
ENDBRANCH  19  21
ENDBRANCH  15  16
ENDBRANCH  14  15
ENDBRANCH   7  14
TORSDOF 7
ENDMDL
MODEL 8
REMARK VINA RESULT:      -6.8      2.737      6.996
REMARK  Name = 
REMARK  9 active torsions:
REMARK  status: ('A' for Active; 'I' for Inactive)
REMARK    1  A    between atoms: C_1  and  C_2
REMARK    2  A    between atoms: C_2  and  C_3
REMARK    3  A    between atoms: C_2  and  C_4
REMARK    4  A    between atoms: C_4  and  N_5
REMARK    5  A    between atoms: C_6  and  O_7
REMARK    6  A    between atoms: C_12  and  S_13
REMARK    7  A    between atoms: S_13  and  C_14
REMARK    8  A    between atoms: C_14  and  C_15
REMARK    9  A    between atoms: C_18  and  C_19
REMARK                            x       y       z     vdW  Elec       q    Type
REMARK                         _______ _______ _______ _____ _____    ______ ____
ROOT
ATOM      1  N   UNL     1       2.965   4.735  18.297  0.00  0.00    +0.000 N 
ATOM      2  C   UNL     1       2.077   3.808  17.757  0.00  0.00    +0.000 A 
ATOM      3  C   UNL     1       2.354   2.505  17.722  0.00  0.00    +0.000 A 
ATOM      4  C   UNL     1       3.642   2.045  18.264  0.00  0.00    +0.000 A 
ATOM      5  O   UNL     1       3.848   0.842  18.363  0.00  0.00    +0.000 OA
ATOM      6  N   UNL     1       4.580   2.994  18.576  0.00  0.00    +0.000 NA
ATOM      7  C   UNL     1       4.244   4.244  18.597  0.00  0.00    +0.000 A 
ENDROOT
BRANCH   2   8
ATOM      8  O   UNL     1       0.888   4.225  17.201  0.00  0.00    +0.000 OA
ATOM      9  H   UNL     1       0.624   5.037  17.661  0.00  0.00    +0.000 HD
ENDBRANCH   2   8
BRANCH   1  10
ATOM     10  C   UNL     1       2.559   6.139  18.548  0.00  0.00    +0.000 C 
BRANCH  10  12
ATOM     11  C   UNL     1       1.717   7.850  20.245  0.00  0.00    +0.000 C 
ATOM     12  C   UNL     1       2.349   6.473  20.045  0.00  0.00    +0.000 C 
ATOM     13  C   UNL     1       1.472   5.400  20.703  0.00  0.00    +0.000 C 
ENDBRANCH  10  12
ENDBRANCH   1  10
BRANCH   7  14
ATOM     14  S   UNL     1       5.563   5.364  18.990  0.00  0.00    +0.000 S 
BRANCH  14  15
ATOM     15  C   UNL     1       5.520   6.491  17.552  0.00  0.00    +0.000 C 
BRANCH  15  16
ATOM     16  C   UNL     1       6.215   5.900  16.380  0.00  0.00    +0.000 A 
ATOM     17  N   UNL     1       7.480   5.978  16.018  0.00  0.00    +0.000 NA
ATOM     18  N   UNL     1       7.583   5.283  14.830  0.00  0.00    +0.000 NA
ATOM     19  C   UNL     1       6.381   4.832  14.529  0.00  0.00    +0.000 A 
ATOM     20  O   UNL     1       5.455   5.202  15.480  0.00  0.00    +0.000 OA
BRANCH  19  21
ATOM     21  C   UNL     1       6.080   4.039  13.370  0.00  0.00    +0.000 A 
ATOM     22  C   UNL     1       4.839   3.596  12.949  0.00  0.00    +0.000 A 
ATOM     23  C   UNL     1       4.904   2.853  11.732  0.00  0.00    +0.000 A 
ATOM     24  C   UNL     1       6.196   2.741  11.268  0.00  0.00    +0.000 A 
ATOM     25  S   UNL     1       7.314   3.525  12.295  0.00  0.00    +0.000 S 
ENDBRANCH  19  21
ENDBRANCH  15  16
ENDBRANCH  14  15
ENDBRANCH   7  14
TORSDOF 7
ENDMDL
MODEL 9
REMARK VINA RESULT:      -6.8      3.416      6.221
REMARK  Name = 
REMARK  9 active torsions:
REMARK  status: ('A' for Active; 'I' for Inactive)
REMARK    1  A    between atoms: C_1  and  C_2
REMARK    2  A    between atoms: C_2  and  C_3
REMARK    3  A    between atoms: C_2  and  C_4
REMARK    4  A    between atoms: C_4  and  N_5
REMARK    5  A    between atoms: C_6  and  O_7
REMARK    6  A    between atoms: C_12  and  S_13
REMARK    7  A    between atoms: S_13  and  C_14
REMARK    8  A    between atoms: C_14  and  C_15
REMARK    9  A    between atoms: C_18  and  C_19
REMARK                            x       y       z     vdW  Elec       q    Type
REMARK                         _______ _______ _______ _____ _____    ______ ____
ROOT
ATOM      1  N   UNL     1       3.351   4.453  18.605  0.00  0.00    +0.000 N 
ATOM      2  C   UNL     1       2.570   3.602  19.383  0.00  0.00    +0.000 A 
ATOM      3  C   UNL     1       3.110   2.678  20.177  0.00  0.00    +0.000 A 
ATOM      4  C   UNL     1       4.575   2.556  20.217  0.00  0.00    +0.000 A 
ATOM      5  O   UNL     1       5.085   1.807  21.042  0.00  0.00    +0.000 OA
ATOM      6  N   UNL     1       5.301   3.243  19.280  0.00  0.00    +0.000 NA
ATOM      7  C   UNL     1       4.716   4.133  18.543  0.00  0.00    +0.000 A 
ENDROOT
BRANCH   2   8
ATOM      8  O   UNL     1       1.196   3.670  19.322  0.00  0.00    +0.000 OA
ATOM      9  H   UNL     1       0.958   4.604  19.210  0.00  0.00    +0.000 HD
ENDBRANCH   2   8
BRANCH   1  10
ATOM     10  C   UNL     1       2.765   5.624  17.911  0.00  0.00    +0.000 C 
BRANCH  10  12
ATOM     11  C   UNL     1       2.697   8.170  17.732  0.00  0.00    +0.000 C 
ATOM     12  C   UNL     1       3.037   6.974  18.620  0.00  0.00    +0.000 C 
ATOM     13  C   UNL     1       2.235   7.052  19.925  0.00  0.00    +0.000 C 
ENDBRANCH  10  12
ENDBRANCH   1  10
BRANCH   7  14
ATOM     14  S   UNL     1       5.768   4.926  17.356  0.00  0.00    +0.000 S 
BRANCH  14  15
ATOM     15  C   UNL     1       7.117   5.542  18.423  0.00  0.00    +0.000 C 
BRANCH  15  16
ATOM     16  C   UNL     1       7.511   6.926  18.054  0.00  0.00    +0.000 A 
ATOM     17  N   UNL     1       7.357   7.576  16.918  0.00  0.00    +0.000 NA
ATOM     18  N   UNL     1       7.940   8.814  17.102  0.00  0.00    +0.000 NA
ATOM     19  C   UNL     1       8.423   8.846  18.329  0.00  0.00    +0.000 A 
ATOM     20  O   UNL     1       8.190   7.660  18.990  0.00  0.00    +0.000 OA
BRANCH  19  21
ATOM     21  C   UNL     1       9.090   9.980  18.907  0.00  0.00    +0.000 A 
ATOM     22  C   UNL     1       9.277  10.255  20.250  0.00  0.00    +0.000 A 
ATOM     23  C   UNL     1      10.012  11.459  20.466  0.00  0.00    +0.000 A 
ATOM     24  C   UNL     1      10.353  12.073  19.282  0.00  0.00    +0.000 A 
ATOM     25  S   UNL     1       9.786  11.202  17.925  0.00  0.00    +0.000 S 
ENDBRANCH  19  21
ENDBRANCH  15  16
ENDBRANCH  14  15
ENDBRANCH   7  14
TORSDOF 7
ENDMDL
