MODEL 1
REMARK VINA RESULT:      -7.5      0.000      0.000
REMARK  Name = 
REMARK  7 active torsions:
REMARK  status: ('A' for Active; 'I' for Inactive)
REMARK    1  A    between atoms: C_1  and  C_2
REMARK    2  A    between atoms: C_2  and  N_3
REMARK    3  A    between atoms: N_3  and  C_4
REMARK    4  A    between atoms: C_4  and  C_5
REMARK    5  A    between atoms: C_5  and  N_6
REMARK    6  A    between atoms: N_6  and  C_7
REMARK    7  A    between atoms: C_17  and  O_18
REMARK                            x       y       z     vdW  Elec       q    Type
REMARK                         _______ _______ _______ _____ _____    ______ ____
ROOT
ATOM      1  C   UNL     1       4.767   3.830  17.914  0.00  0.00    +0.000 A 
ATOM      2  C   UNL     1       4.672   2.722  18.830  0.00  0.00    +0.000 A 
ATOM      3  C   UNL     1       3.849   2.698  19.961  0.00  0.00    +0.000 A 
ATOM      4  C   UNL     1       3.116   3.836  20.248  0.00  0.00    +0.000 A 
ATOM      5  N   UNL     1       2.264   4.125  21.275  0.00  0.00    +0.000 NA
ATOM      6  N   UNL     1       1.846   5.373  21.107  0.00  0.00    +0.000 NA
ATOM      7  N   UNL     1       2.416   5.835  19.978  0.00  0.00    +0.000 N 
ATOM      8  C   UNL     1       2.250   7.116  19.463  0.00  0.00    +0.000 A 
ATOM      9  C   UNL     1       1.497   8.052  20.193  0.00  0.00    +0.000 A 
ATOM     10  C   UNL     1       1.273   9.307  19.653  0.00  0.00    +0.000 A 
ATOM     11  C   UNL     1       1.781   9.587  18.386  0.00  0.00    +0.000 A 
ATOM     12  C   UNL     1       2.556   8.648  17.665  0.00  0.00    +0.000 A 
ATOM     13  C   UNL     1       2.835   7.386  18.214  0.00  0.00    +0.000 A 
ATOM     14  C   UNL     1       3.738   6.334  17.509  0.00  0.00    +0.000 A 
ATOM     15  O   UNL     1       4.238   6.592  16.424  0.00  0.00    +0.000 OA
ATOM     16  C   UNL     1       3.970   4.992  18.214  0.00  0.00    +0.000 A 
ATOM     17  C   UNL     1       3.211   4.901  19.389  0.00  0.00    +0.000 A 
ENDROOT
BRANCH   1  18
ATOM     18  N   UNL     1       5.696   3.721  16.816  0.00  0.00    +0.000 N 
ATOM     19  H   UNL     1       5.177   3.811  15.941  0.00  0.00    +0.000 HD
BRANCH  18  20
ATOM     20  C   UNL     1       6.865   4.660  16.836  0.00  0.00    +0.000 C 
BRANCH  20  21
ATOM     21  C   UNL     1       7.582   4.928  18.188  0.00  0.00    +0.000 C 
BRANCH  21  22
ATOM     22  N   UNL     1       7.560   6.320  18.699  0.00  0.00    +0.000 NA
ATOM     23  H   UNL     1       6.727   6.443  19.272  0.00  0.00    +0.000 HD
BRANCH  22  25
ATOM     24  C   UNL     1       8.065   8.649  17.917  0.00  0.00    +0.000 C 
ATOM     25  C   UNL     1       7.515   7.269  17.567  0.00  0.00    +0.000 C 
ENDBRANCH  22  25
ENDBRANCH  21  22
ENDBRANCH  20  21
ENDBRANCH  18  20
ENDBRANCH   1  18
BRANCH  11  26
ATOM     26  O   UNL     1       1.531  10.801  17.820  0.00  0.00    +0.000 OA
ATOM     27  H   UNL     1       1.659  10.736  16.852  0.00  0.00    +0.000 HD
ENDBRANCH  11  26
TORSDOF 6
ENDMDL
MODEL 2
REMARK VINA RESULT:      -7.4      2.470      6.125
REMARK  Name = 
REMARK  7 active torsions:
REMARK  status: ('A' for Active; 'I' for Inactive)
REMARK    1  A    between atoms: C_1  and  C_2
REMARK    2  A    between atoms: C_2  and  N_3
REMARK    3  A    between atoms: N_3  and  C_4
REMARK    4  A    between atoms: C_4  and  C_5
REMARK    5  A    between atoms: C_5  and  N_6
REMARK    6  A    between atoms: N_6  and  C_7
REMARK    7  A    between atoms: C_17  and  O_18
REMARK                            x       y       z     vdW  Elec       q    Type
REMARK                         _______ _______ _______ _____ _____    ______ ____
ROOT
ATOM      1  C   UNL     1       2.386   6.160  19.822  0.00  0.00    +0.000 A 
ATOM      2  C   UNL     1       1.586   5.184  20.516  0.00  0.00    +0.000 A 
ATOM      3  C   UNL     1       1.647   3.804  20.291  0.00  0.00    +0.000 A 
ATOM      4  C   UNL     1       2.497   3.351  19.297  0.00  0.00    +0.000 A 
ATOM      5  N   UNL     1       2.750   2.093  18.831  0.00  0.00    +0.000 NA
ATOM      6  N   UNL     1       3.624   2.205  17.839  0.00  0.00    +0.000 NA
ATOM      7  N   UNL     1       3.922   3.512  17.715  0.00  0.00    +0.000 N 
ATOM      8  C   UNL     1       4.787   4.050  16.769  0.00  0.00    +0.000 A 
ATOM      9  C   UNL     1       5.354   3.201  15.802  0.00  0.00    +0.000 A 
ATOM     10  C   UNL     1       6.267   3.721  14.900  0.00  0.00    +0.000 A 
ATOM     11  C   UNL     1       6.614   5.066  15.005  0.00  0.00    +0.000 A 
ATOM     12  C   UNL     1       6.026   5.920  15.966  0.00  0.00    +0.000 A 
ATOM     13  C   UNL     1       5.062   5.426  16.861  0.00  0.00    +0.000 A 
ATOM     14  C   UNL     1       4.323   6.322  17.895  0.00  0.00    +0.000 A 
ATOM     15  O   UNL     1       4.577   7.516  17.954  0.00  0.00    +0.000 OA
ATOM     16  C   UNL     1       3.288   5.663  18.814  0.00  0.00    +0.000 A 
ATOM     17  C   UNL     1       3.253   4.275  18.620  0.00  0.00    +0.000 A 
ENDROOT
BRANCH   1  18
ATOM     18  N   UNL     1       2.176   7.552  20.135  0.00  0.00    +0.000 N 
ATOM     19  H   UNL     1       2.034   8.063  19.262  0.00  0.00    +0.000 HD
BRANCH  18  20
ATOM     20  C   UNL     1       1.079   7.858  21.111  0.00  0.00    +0.000 C 
BRANCH  20  21
ATOM     21  C   UNL     1       0.367   9.235  21.025  0.00  0.00    +0.000 C 
BRANCH  21  22
ATOM     22  N   UNL     1       0.586  10.180  22.146  0.00  0.00    +0.000 NA
ATOM     23  H   UNL     1       1.445   9.920  22.628  0.00  0.00    +0.000 HD
BRANCH  22  25
ATOM     24  C   UNL     1      -1.413  11.357  23.102  0.00  0.00    +0.000 C 
ATOM     25  C   UNL     1      -0.544  10.102  23.095  0.00  0.00    +0.000 C 
ENDBRANCH  22  25
ENDBRANCH  21  22
ENDBRANCH  20  21
ENDBRANCH  18  20
ENDBRANCH   1  18
BRANCH  11  26
ATOM     26  O   UNL     1       7.547   5.583  14.155  0.00  0.00    +0.000 OA
ATOM     27  H   UNL     1       8.345   5.827  14.666  0.00  0.00    +0.000 HD
ENDBRANCH  11  26
TORSDOF 6
ENDMDL
MODEL 3
REMARK VINA RESULT:      -7.3      1.320      1.962
REMARK  Name = 
REMARK  7 active torsions:
REMARK  status: ('A' for Active; 'I' for Inactive)
REMARK    1  A    between atoms: C_1  and  C_2
REMARK    2  A    between atoms: C_2  and  N_3
REMARK    3  A    between atoms: N_3  and  C_4
REMARK    4  A    between atoms: C_4  and  C_5
REMARK    5  A    between atoms: C_5  and  N_6
REMARK    6  A    between atoms: N_6  and  C_7
REMARK    7  A    between atoms: C_17  and  O_18
REMARK                            x       y       z     vdW  Elec       q    Type
REMARK                         _______ _______ _______ _____ _____    ______ ____
ROOT
ATOM      1  C   UNL     1       4.646   3.755  18.191  0.00  0.00    +0.000 A 
ATOM      2  C   UNL     1       4.448   2.677  19.124  0.00  0.00    +0.000 A 
ATOM      3  C   UNL     1       3.546   2.710  20.194  0.00  0.00    +0.000 A 
ATOM      4  C   UNL     1       2.835   3.879  20.400  0.00  0.00    +0.000 A 
ATOM      5  N   UNL     1       1.923   4.224  21.355  0.00  0.00    +0.000 NA
ATOM      6  N   UNL     1       1.563   5.481  21.128  0.00  0.00    +0.000 NA
ATOM      7  N   UNL     1       2.227   5.893  20.031  0.00  0.00    +0.000 N 
ATOM      8  C   UNL     1       2.143   7.165  19.475  0.00  0.00    +0.000 A 
ATOM      9  C   UNL     1       1.373   8.145  20.126  0.00  0.00    +0.000 A 
ATOM     10  C   UNL     1       1.233   9.391  19.541  0.00  0.00    +0.000 A 
ATOM     11  C   UNL     1       1.839   9.620  18.307  0.00  0.00    +0.000 A 
ATOM     12  C   UNL     1       2.630   8.637  17.667  0.00  0.00    +0.000 A 
ATOM     13  C   UNL     1       2.825   7.381  18.265  0.00  0.00    +0.000 A 
ATOM     14  C   UNL     1       3.737   6.281  17.652  0.00  0.00    +0.000 A 
ATOM     15  O   UNL     1       4.322   6.493  16.600  0.00  0.00    +0.000 OA
ATOM     16  C   UNL     1       3.871   4.952  18.404  0.00  0.00    +0.000 A 
ATOM     17  C   UNL     1       3.028   4.918  19.524  0.00  0.00    +0.000 A 
ENDROOT
BRANCH   1  18
ATOM     18  N   UNL     1       5.647   3.586  17.165  0.00  0.00    +0.000 N 
ATOM     19  H   UNL     1       5.206   3.732  16.255  0.00  0.00    +0.000 HD
BRANCH  18  20
ATOM     20  C   UNL     1       6.883   4.425  17.295  0.00  0.00    +0.000 C 
BRANCH  20  21
ATOM     21  C   UNL     1       7.563   4.956  16.004  0.00  0.00    +0.000 C 
BRANCH  21  22
ATOM     22  N   UNL     1       6.677   5.523  14.959  0.00  0.00    +0.000 NA
ATOM     23  H   UNL     1       5.708   5.353  15.226  0.00  0.00    +0.000 HD
BRANCH  22  25
ATOM     24  C   UNL     1       6.009   3.696  13.376  0.00  0.00    +0.000 C 
ATOM     25  C   UNL     1       6.945   4.867  13.663  0.00  0.00    +0.000 C 
ENDBRANCH  22  25
ENDBRANCH  21  22
ENDBRANCH  20  21
ENDBRANCH  18  20
ENDBRANCH   1  18
BRANCH  11  26
ATOM     26  O   UNL     1       1.673  10.827  17.695  0.00  0.00    +0.000 OA
ATOM     27  H   UNL     1       1.328  10.682  16.791  0.00  0.00    +0.000 HD
ENDBRANCH  11  26
TORSDOF 6
ENDMDL
MODEL 4
REMARK VINA RESULT:      -7.3      1.886      2.860
REMARK  Name = 
REMARK  7 active torsions:
REMARK  status: ('A' for Active; 'I' for Inactive)
REMARK    1  A    between atoms: C_1  and  C_2
REMARK    2  A    between atoms: C_2  and  N_3
REMARK    3  A    between atoms: N_3  and  C_4
REMARK    4  A    between atoms: C_4  and  C_5
REMARK    5  A    between atoms: C_5  and  N_6
REMARK    6  A    between atoms: N_6  and  C_7
REMARK    7  A    between atoms: C_17  and  O_18
REMARK                            x       y       z     vdW  Elec       q    Type
REMARK                         _______ _______ _______ _____ _____    ______ ____
ROOT
ATOM      1  C   UNL     1       4.842   4.099  18.094  0.00  0.00    +0.000 A 
ATOM      2  C   UNL     1       4.679   2.971  18.974  0.00  0.00    +0.000 A 
ATOM      3  C   UNL     1       3.751   2.909  20.019  0.00  0.00    +0.000 A 
ATOM      4  C   UNL     1       2.971   4.028  20.255  0.00  0.00    +0.000 A 
ATOM      5  N   UNL     1       2.018   4.281  21.199  0.00  0.00    +0.000 NA
ATOM      6  N   UNL     1       1.596   5.526  21.015  0.00  0.00    +0.000 NA
ATOM      7  N   UNL     1       2.264   6.020  19.956  0.00  0.00    +0.000 N 
ATOM      8  C   UNL     1       2.124   7.309  19.452  0.00  0.00    +0.000 A 
ATOM      9  C   UNL     1       1.286   8.217  20.123  0.00  0.00    +0.000 A 
ATOM     10  C   UNL     1       1.092   9.479  19.588  0.00  0.00    +0.000 A 
ATOM     11  C   UNL     1       1.716   9.793  18.382  0.00  0.00    +0.000 A 
ATOM     12  C   UNL     1       2.575   8.883  17.722  0.00  0.00    +0.000 A 
ATOM     13  C   UNL     1       2.823   7.614  18.271  0.00  0.00    +0.000 A 
ATOM     14  C   UNL     1       3.810   6.593  17.638  0.00  0.00    +0.000 A 
ATOM     15  O   UNL     1       4.408   6.882  16.612  0.00  0.00    +0.000 OA
ATOM     16  C   UNL     1       3.997   5.241  18.336  0.00  0.00    +0.000 A 
ATOM     17  C   UNL     1       3.129   5.113  19.430  0.00  0.00    +0.000 A 
ENDROOT
BRANCH   1  18
ATOM     18  N   UNL     1       5.876   4.029  17.089  0.00  0.00    +0.000 N 
ATOM     19  H   UNL     1       6.623   3.425  17.435  0.00  0.00    +0.000 HD
BRANCH  18  20
ATOM     20  C   UNL     1       5.444   3.606  15.717  0.00  0.00    +0.000 C 
BRANCH  20  21
ATOM     21  C   UNL     1       6.073   4.314  14.486  0.00  0.00    +0.000 C 
BRANCH  21  22
ATOM     22  N   UNL     1       6.556   3.449  13.384  0.00  0.00    +0.000 NA
ATOM     23  H   UNL     1       7.425   3.837  13.022  0.00  0.00    +0.000 HD
BRANCH  22  25
ATOM     24  C   UNL     1       5.598   2.121  11.483  0.00  0.00    +0.000 C 
ATOM     25  C   UNL     1       5.553   3.410  12.300  0.00  0.00    +0.000 C 
ENDBRANCH  22  25
ENDBRANCH  21  22
ENDBRANCH  20  21
ENDBRANCH  18  20
ENDBRANCH   1  18
BRANCH  11  26
ATOM     26  O   UNL     1       1.499  11.015  17.817  0.00  0.00    +0.000 OA
ATOM     27  H   UNL     1       2.108  11.130  17.060  0.00  0.00    +0.000 HD
ENDBRANCH  11  26
TORSDOF 6
ENDMDL
MODEL 5
REMARK VINA RESULT:      -7.2      2.023      2.996
REMARK  Name = 
REMARK  7 active torsions:
REMARK  status: ('A' for Active; 'I' for Inactive)
REMARK    1  A    between atoms: C_1  and  C_2
REMARK    2  A    between atoms: C_2  and  N_3
REMARK    3  A    between atoms: N_3  and  C_4
REMARK    4  A    between atoms: C_4  and  C_5
REMARK    5  A    between atoms: C_5  and  N_6
REMARK    6  A    between atoms: N_6  and  C_7
REMARK    7  A    between atoms: C_17  and  O_18
REMARK                            x       y       z     vdW  Elec       q    Type
REMARK                         _______ _______ _______ _____ _____    ______ ____
ROOT
ATOM      1  C   UNL     1       4.575   5.436  17.201  0.00  0.00    +0.000 A 
ATOM      2  C   UNL     1       4.869   4.103  17.657  0.00  0.00    +0.000 A 
ATOM      3  C   UNL     1       4.290   3.503  18.781  0.00  0.00    +0.000 A 
ATOM      4  C   UNL     1       3.414   4.263  19.536  0.00  0.00    +0.000 A 
ATOM      5  N   UNL     1       2.727   3.976  20.680  0.00  0.00    +0.000 NA
ATOM      6  N   UNL     1       2.050   5.065  21.022  0.00  0.00    +0.000 NA
ATOM      7  N   UNL     1       2.299   5.999  20.085  0.00  0.00    +0.000 N 
ATOM      8  C   UNL     1       1.793   7.294  20.091  0.00  0.00    +0.000 A 
ATOM      9  C   UNL     1       1.019   7.719  21.185  0.00  0.00    +0.000 A 
ATOM     10  C   UNL     1       0.459   8.985  21.164  0.00  0.00    +0.000 A 
ATOM     11  C   UNL     1       0.659   9.783  20.040  0.00  0.00    +0.000 A 
ATOM     12  C   UNL     1       1.456   9.358  18.951  0.00  0.00    +0.000 A 
ATOM     13  C   UNL     1       2.073   8.097  18.971  0.00  0.00    +0.000 A 
ATOM     14  C   UNL     1       3.018   7.595  17.843  0.00  0.00    +0.000 A 
ATOM     15  O   UNL     1       3.248   8.312  16.880  0.00  0.00    +0.000 OA
ATOM     16  C   UNL     1       3.634   6.198  17.984  0.00  0.00    +0.000 A 
ATOM     17  C   UNL     1       3.139   5.540  19.118  0.00  0.00    +0.000 A 
ENDROOT
BRANCH   1  18
ATOM     18  N   UNL     1       5.288   5.930  16.048  0.00  0.00    +0.000 N 
ATOM     19  H   UNL     1       5.358   6.946  16.121  0.00  0.00    +0.000 HD
BRANCH  18  20
ATOM     20  C   UNL     1       6.634   5.323  15.787  0.00  0.00    +0.000 C 
BRANCH  20  21
ATOM     21  C   UNL     1       6.947   4.791  14.362  0.00  0.00    +0.000 C 
BRANCH  21  22
ATOM     22  N   UNL     1       6.174   3.616  13.895  0.00  0.00    +0.000 NA
ATOM     23  H   UNL     1       6.567   2.778  14.321  0.00  0.00    +0.000 HD
BRANCH  22  25
ATOM     24  C   UNL     1       4.978   3.018  11.772  0.00  0.00    +0.000 C 
ATOM     25  C   UNL     1       6.270   3.503  12.425  0.00  0.00    +0.000 C 
ENDBRANCH  22  25
ENDBRANCH  21  22
ENDBRANCH  20  21
ENDBRANCH  18  20
ENDBRANCH   1  18
BRANCH  11  26
ATOM     26  O   UNL     1       0.075  11.014  19.983  0.00  0.00    +0.000 OA
ATOM     27  H   UNL     1       0.769  11.701  20.049  0.00  0.00    +0.000 HD
ENDBRANCH  11  26
TORSDOF 6
ENDMDL
MODEL 6
REMARK VINA RESULT:      -7.1      1.146      1.449
REMARK  Name = 
REMARK  7 active torsions:
REMARK  status: ('A' for Active; 'I' for Inactive)
REMARK    1  A    between atoms: C_1  and  C_2
REMARK    2  A    between atoms: C_2  and  N_3
REMARK    3  A    between atoms: N_3  and  C_4
REMARK    4  A    between atoms: C_4  and  C_5
REMARK    5  A    between atoms: C_5  and  N_6
REMARK    6  A    between atoms: N_6  and  C_7
REMARK    7  A    between atoms: C_17  and  O_18
REMARK                            x       y       z     vdW  Elec       q    Type
REMARK                         _______ _______ _______ _____ _____    ______ ____
ROOT
ATOM      1  C   UNL     1       4.121   4.820  17.229  0.00  0.00    +0.000 A 
ATOM      2  C   UNL     1       4.259   3.517  17.825  0.00  0.00    +0.000 A 
ATOM      3  C   UNL     1       3.684   3.138  19.043  0.00  0.00    +0.000 A 
ATOM      4  C   UNL     1       2.977   4.097  19.747  0.00  0.00    +0.000 A 
ATOM      5  N   UNL     1       2.339   4.043  20.953  0.00  0.00    +0.000 NA
ATOM      6  N   UNL     1       1.844   5.250  21.196  0.00  0.00    +0.000 NA
ATOM      7  N   UNL     1       2.154   6.027  20.141  0.00  0.00    +0.000 N 
ATOM      8  C   UNL     1       1.833   7.375  20.018  0.00  0.00    +0.000 A 
ATOM      9  C   UNL     1       1.205   8.028  21.093  0.00  0.00    +0.000 A 
ATOM     10  C   UNL     1       0.824   9.351  20.950  0.00  0.00    +0.000 A 
ATOM     11  C   UNL     1       1.053   9.981  19.728  0.00  0.00    +0.000 A 
ATOM     12  C   UNL     1       1.705   9.326  18.657  0.00  0.00    +0.000 A 
ATOM     13  C   UNL     1       2.142   7.998  18.796  0.00  0.00    +0.000 A 
ATOM     14  C   UNL     1       2.926   7.241  17.687  0.00  0.00    +0.000 A 
ATOM     15  O   UNL     1       3.185   7.804  16.634  0.00  0.00    +0.000 OA
ATOM     16  C   UNL     1       3.352   5.794  17.963  0.00  0.00    +0.000 A 
ATOM     17  C   UNL     1       2.851   5.346  19.193  0.00  0.00    +0.000 A 
ENDROOT
BRANCH   1  18
ATOM     18  N   UNL     1       4.812   5.073  15.988  0.00  0.00    +0.000 N 
ATOM     19  H   UNL     1       5.088   6.056  15.965  0.00  0.00    +0.000 HD
BRANCH  18  20
ATOM     20  C   UNL     1       5.983   4.186  15.685  0.00  0.00    +0.000 C 
BRANCH  20  21
ATOM     21  C   UNL     1       7.411   4.701  16.010  0.00  0.00    +0.000 C 
BRANCH  21  22
ATOM     22  N   UNL     1       8.004   4.276  17.300  0.00  0.00    +0.000 NA
ATOM     23  H   UNL     1       7.716   3.318  17.491  0.00  0.00    +0.000 HD
BRANCH  22  25
ATOM     24  C   UNL     1       7.577   6.638  18.031  0.00  0.00    +0.000 C 
ATOM     25  C   UNL     1       7.523   5.154  18.387  0.00  0.00    +0.000 C 
ENDBRANCH  22  25
ENDBRANCH  21  22
ENDBRANCH  20  21
ENDBRANCH  18  20
ENDBRANCH   1  18
BRANCH  11  26
ATOM     26  O   UNL     1       0.643  11.269  19.554  0.00  0.00    +0.000 OA
ATOM     27  H   UNL     1       1.424  11.834  19.384  0.00  0.00    +0.000 HD
ENDBRANCH  11  26
TORSDOF 6
ENDMDL
MODEL 7
REMARK VINA RESULT:      -7.0      2.304      5.900
REMARK  Name = 
REMARK  7 active torsions:
REMARK  status: ('A' for Active; 'I' for Inactive)
REMARK    1  A    between atoms: C_1  and  C_2
REMARK    2  A    between atoms: C_2  and  N_3
REMARK    3  A    between atoms: N_3  and  C_4
REMARK    4  A    between atoms: C_4  and  C_5
REMARK    5  A    between atoms: C_5  and  N_6
REMARK    6  A    between atoms: N_6  and  C_7
REMARK    7  A    between atoms: C_17  and  O_18
REMARK                            x       y       z     vdW  Elec       q    Type
REMARK                         _______ _______ _______ _____ _____    ______ ____
ROOT
ATOM      1  C   UNL     1       2.363   6.190  19.819  0.00  0.00    +0.000 A 
ATOM      2  C   UNL     1       1.536   5.223  20.492  0.00  0.00    +0.000 A 
ATOM      3  C   UNL     1       1.568   3.845  20.249  0.00  0.00    +0.000 A 
ATOM      4  C   UNL     1       2.417   3.387  19.256  0.00  0.00    +0.000 A 
ATOM      5  N   UNL     1       2.647   2.131  18.775  0.00  0.00    +0.000 NA
ATOM      6  N   UNL     1       3.533   2.236  17.793  0.00  0.00    +0.000 NA
ATOM      7  N   UNL     1       3.861   3.539  17.690  0.00  0.00    +0.000 N 
ATOM      8  C   UNL     1       4.747   4.070  16.760  0.00  0.00    +0.000 A 
ATOM      9  C   UNL     1       5.304   3.223  15.786  0.00  0.00    +0.000 A 
ATOM     10  C   UNL     1       6.238   3.734  14.901  0.00  0.00    +0.000 A 
ATOM     11  C   UNL     1       6.613   5.070  15.028  0.00  0.00    +0.000 A 
ATOM     12  C   UNL     1       6.034   5.923  15.996  0.00  0.00    +0.000 A 
ATOM     13  C   UNL     1       5.051   5.438  16.874  0.00  0.00    +0.000 A 
ATOM     14  C   UNL     1       4.322   6.336  17.913  0.00  0.00    +0.000 A 
ATOM     15  O   UNL     1       4.602   7.524  17.992  0.00  0.00    +0.000 OA
ATOM     16  C   UNL     1       3.264   5.688  18.813  0.00  0.00    +0.000 A 
ATOM     17  C   UNL     1       3.200   4.303  18.600  0.00  0.00    +0.000 A 
ENDROOT
BRANCH   1  18
ATOM     18  N   UNL     1       2.181   7.583  20.150  0.00  0.00    +0.000 N 
ATOM     19  H   UNL     1       3.088   7.978  20.400  0.00  0.00    +0.000 HD
BRANCH  18  20
ATOM     20  C   UNL     1       1.500   8.429  19.116  0.00  0.00    +0.000 C 
BRANCH  20  21
ATOM     21  C   UNL     1       0.952   9.821  19.535  0.00  0.00    +0.000 C 
BRANCH  21  22
ATOM     22  N   UNL     1      -0.520   9.963  19.640  0.00  0.00    +0.000 NA
ATOM     23  H   UNL     1      -0.940   9.036  19.593  0.00  0.00    +0.000 HD
BRANCH  22  25
ATOM     24  C   UNL     1      -1.600   9.951  17.376  0.00  0.00    +0.000 C 
ATOM     25  C   UNL     1      -1.027  10.783  18.521  0.00  0.00    +0.000 C 
ENDBRANCH  22  25
ENDBRANCH  21  22
ENDBRANCH  20  21
ENDBRANCH  18  20
ENDBRANCH   1  18
BRANCH  11  26
ATOM     26  O   UNL     1       7.566   5.577  14.194  0.00  0.00    +0.000 OA
ATOM     27  H   UNL     1       8.004   4.840  13.723  0.00  0.00    +0.000 HD
ENDBRANCH  11  26
TORSDOF 6
ENDMDL
MODEL 8
REMARK VINA RESULT:      -6.9      2.333      5.573
REMARK  Name = 
REMARK  7 active torsions:
REMARK  status: ('A' for Active; 'I' for Inactive)
REMARK    1  A    between atoms: C_1  and  C_2
REMARK    2  A    between atoms: C_2  and  N_3
REMARK    3  A    between atoms: N_3  and  C_4
REMARK    4  A    between atoms: C_4  and  C_5
REMARK    5  A    between atoms: C_5  and  N_6
REMARK    6  A    between atoms: N_6  and  C_7
REMARK    7  A    between atoms: C_17  and  O_18
REMARK                            x       y       z     vdW  Elec       q    Type
REMARK                         _______ _______ _______ _____ _____    ______ ____
ROOT
ATOM      1  C   UNL     1       2.369   6.202  19.759  0.00  0.00    +0.000 A 
ATOM      2  C   UNL     1       1.569   5.233  20.462  0.00  0.00    +0.000 A 
ATOM      3  C   UNL     1       1.636   3.850  20.256  0.00  0.00    +0.000 A 
ATOM      4  C   UNL     1       2.493   3.387  19.274  0.00  0.00    +0.000 A 
ATOM      5  N   UNL     1       2.753   2.123  18.826  0.00  0.00    +0.000 NA
ATOM      6  N   UNL     1       3.633   2.224  17.838  0.00  0.00    +0.000 NA
ATOM      7  N   UNL     1       3.927   3.531  17.698  0.00  0.00    +0.000 N 
ATOM      8  C   UNL     1       4.796   4.058  16.750  0.00  0.00    +0.000 A 
ATOM      9  C   UNL     1       5.371   3.198  15.798  0.00  0.00    +0.000 A 
ATOM     10  C   UNL     1       6.288   3.708  14.895  0.00  0.00    +0.000 A 
ATOM     11  C   UNL     1       6.630   5.056  14.983  0.00  0.00    +0.000 A 
ATOM     12  C   UNL     1       6.033   5.922  15.929  0.00  0.00    +0.000 A 
ATOM     13  C   UNL     1       5.065   5.436  16.824  0.00  0.00    +0.000 A 
ATOM     14  C   UNL     1       4.317   6.344  17.841  0.00  0.00    +0.000 A 
ATOM     15  O   UNL     1       4.567   7.540  17.885  0.00  0.00    +0.000 OA
ATOM     16  C   UNL     1       3.279   5.694  18.763  0.00  0.00    +0.000 A 
ATOM     17  C   UNL     1       3.249   4.303  18.589  0.00  0.00    +0.000 A 
ENDROOT
BRANCH   1  18
ATOM     18  N   UNL     1       2.152   7.598  20.051  0.00  0.00    +0.000 N 
ATOM     19  H   UNL     1       3.032   8.001  20.375  0.00  0.00    +0.000 HD
BRANCH  18  20
ATOM     20  C   UNL     1       1.564   8.426  18.948  0.00  0.00    +0.000 C 
BRANCH  20  21
ATOM     21  C   UNL     1       1.137   9.887  19.259  0.00  0.00    +0.000 C 
BRANCH  21  22
ATOM     22  N   UNL     1       1.457  10.914  18.239  0.00  0.00    +0.000 NA
ATOM     23  H   UNL     1       2.362  10.694  17.827  0.00  0.00    +0.000 HD
BRANCH  22  25
ATOM     24  C   UNL     1       2.483  13.202  18.167  0.00  0.00    +0.000 C 
ATOM     25  C   UNL     1       1.524  12.247  18.873  0.00  0.00    +0.000 C 
ENDBRANCH  22  25
ENDBRANCH  21  22
ENDBRANCH  20  21
ENDBRANCH  18  20
ENDBRANCH   1  18
BRANCH  11  26
ATOM     26  O   UNL     1       7.566   5.564  14.131  0.00  0.00    +0.000 OA
ATOM     27  H   UNL     1       7.301   5.368  13.210  0.00  0.00    +0.000 HD
ENDBRANCH  11  26
TORSDOF 6
ENDMDL
MODEL 9
REMARK VINA RESULT:      -6.8      2.446      4.379
REMARK  Name = 
REMARK  7 active torsions:
REMARK  status: ('A' for Active; 'I' for Inactive)
REMARK    1  A    between atoms: C_1  and  C_2
REMARK    2  A    between atoms: C_2  and  N_3
REMARK    3  A    between atoms: N_3  and  C_4
REMARK    4  A    between atoms: C_4  and  C_5
REMARK    5  A    between atoms: C_5  and  N_6
REMARK    6  A    between atoms: N_6  and  C_7
REMARK    7  A    between atoms: C_17  and  O_18
REMARK                            x       y       z     vdW  Elec       q    Type
REMARK                         _______ _______ _______ _____ _____    ______ ____
ROOT
ATOM      1  C   UNL     1       5.189   3.991  18.528  0.00  0.00    +0.000 A 
ATOM      2  C   UNL     1       6.005   3.827  17.354  0.00  0.00    +0.000 A 
ATOM      3  C   UNL     1       6.081   4.750  16.306  0.00  0.00    +0.000 A 
ATOM      4  C   UNL     1       5.277   5.874  16.379  0.00  0.00    +0.000 A 
ATOM      5  N   UNL     1       5.107   6.920  15.517  0.00  0.00    +0.000 NA
ATOM      6  N   UNL     1       4.188   7.721  16.040  0.00  0.00    +0.000 NA
ATOM      7  N   UNL     1       3.817   7.186  17.219  0.00  0.00    +0.000 N 
ATOM      8  C   UNL     1       2.853   7.715  18.069  0.00  0.00    +0.000 A 
ATOM      9  C   UNL     1       2.134   8.853  17.663  0.00  0.00    +0.000 A 
ATOM     10  C   UNL     1       1.221   9.422  18.535  0.00  0.00    +0.000 A 
ATOM     11  C   UNL     1       1.068   8.858  19.800  0.00  0.00    +0.000 A 
ATOM     12  C   UNL     1       1.778   7.700  20.196  0.00  0.00    +0.000 A 
ATOM     13  C   UNL     1       2.675   7.079  19.311  0.00  0.00    +0.000 A 
ATOM     14  C   UNL     1       3.434   5.766  19.653  0.00  0.00    +0.000 A 
ATOM     15  O   UNL     1       3.262   5.230  20.738  0.00  0.00    +0.000 OA
ATOM     16  C   UNL     1       4.384   5.185  18.600  0.00  0.00    +0.000 A 
ATOM     17  C   UNL     1       4.485   6.032  17.487  0.00  0.00    +0.000 A 
ENDROOT
BRANCH   1  18
ATOM     18  N   UNL     1       5.184   2.927  19.503  0.00  0.00    +0.000 N 
ATOM     19  H   UNL     1       5.390   3.327  20.420  0.00  0.00    +0.000 HD
BRANCH  18  20
ATOM     20  C   UNL     1       3.948   2.081  19.560  0.00  0.00    +0.000 C 
BRANCH  20  21
ATOM     21  C   UNL     1       3.230   1.720  18.230  0.00  0.00    +0.000 C 
BRANCH  21  22
ATOM     22  N   UNL     1       1.748   1.671  18.255  0.00  0.00    +0.000 NA
ATOM     23  H   UNL     1       1.414   1.448  17.319  0.00  0.00    +0.000 HD
BRANCH  22  25
ATOM     24  C   UNL     1       1.284   4.035  17.556  0.00  0.00    +0.000 C 
ATOM     25  C   UNL     1       1.210   2.986  18.662  0.00  0.00    +0.000 C 
ENDBRANCH  22  25
ENDBRANCH  21  22
ENDBRANCH  20  21
ENDBRANCH  18  20
ENDBRANCH   1  18
BRANCH  11  26
ATOM     26  O   UNL     1       0.207   9.433  20.687  0.00  0.00    +0.000 OA
ATOM     27  H   UNL     1       0.043   8.809  21.423  0.00  0.00    +0.000 HD
ENDBRANCH  11  26
TORSDOF 6
ENDMDL
