MODEL 1
REMARK VINA RESULT:      -8.0      0.000      0.000
REMARK  Name = 
REMARK  8 active torsions:
REMARK  status: ('A' for Active; 'I' for Inactive)
REMARK    1  A    between atoms: C_1  and  C_2
REMARK    2  A    between atoms: C_2  and  C_3
REMARK    3  A    between atoms: C_3  and  C_4
REMARK    4  A    between atoms: C_6  and  O_7
REMARK    5  A    between atoms: C_9  and  S_10
REMARK    6  A    between atoms: S_10  and  C_11
REMARK    7  A    between atoms: C_11  and  C_12
REMARK    8  A    between atoms: N_14  and  C_15
REMARK                            x       y       z     vdW  Elec       q    Type
REMARK                         _______ _______ _______ _____ _____    ______ ____
ROOT
ATOM      1  C   UNL     1       2.093   4.679  20.165  0.00  0.00    +0.000 C 
ATOM      2  O   UNL     1       1.150   4.387  19.433  0.00  0.00    +0.000 OA
ATOM      3  N   UNL     1       2.656   5.946  20.306  0.00  0.00    +0.000 N 
ATOM      4  H   UNL     1       3.547   5.973  20.783  0.00  0.00    +0.000 HD
ENDROOT
BRANCH   3   5
ATOM      5  C   UNL     1       2.267   7.116  19.587  0.00  0.00    +0.000 A 
ATOM      6  C   UNL     1       2.737   7.318  18.281  0.00  0.00    +0.000 A 
ATOM      7  C   UNL     1       2.480   8.497  17.593  0.00  0.00    +0.000 A 
ATOM      8  C   UNL     1       1.717   9.491  18.189  0.00  0.00    +0.000 A 
ATOM      9  C   UNL     1       1.176   9.306  19.465  0.00  0.00    +0.000 A 
ATOM     10  C   UNL     1       0.394  10.336  20.018  0.00  0.00    +0.000 A 
ATOM     11  C   UNL     1      -0.173  10.207  21.280  0.00  0.00    +0.000 A 
ATOM     12  C   UNL     1       0.032   9.041  22.003  0.00  0.00    +0.000 A 
ATOM     13  C   UNL     1       0.817   8.008  21.472  0.00  0.00    +0.000 A 
ATOM     14  C   UNL     1       1.422   8.106  20.189  0.00  0.00    +0.000 A 
ENDBRANCH   3   5
BRANCH   1  15
ATOM     15  C   UNL     1       2.716   3.606  21.042  0.00  0.00    +0.000 C 
BRANCH  15  16
ATOM     16  S   UNL     1       3.618   2.399  20.021  0.00  0.00    +0.000 S 
BRANCH  16  21
ATOM     17  C   UNL     1       5.252   4.470  17.121  0.00  0.00    +0.000 A 
ATOM     18  C   UNL     1       6.263   5.185  17.726  0.00  0.00    +0.000 A 
ATOM     19  C   UNL     1       6.407   4.983  19.077  0.00  0.00    +0.000 A 
ATOM     20  N   UNL     1       5.646   4.160  19.804  0.00  0.00    +0.000 NA
ATOM     21  C   UNL     1       4.700   3.494  19.134  0.00  0.00    +0.000 A 
ATOM     22  N   UNL     1       4.470   3.614  17.812  0.00  0.00    +0.000 NA
BRANCH  19  23
ATOM     23  O   UNL     1       7.366   5.642  19.787  0.00  0.00    +0.000 OA
ATOM     24  H   UNL     1       8.206   5.177  19.687  0.00  0.00    +0.000 HD
ENDBRANCH  19  23
BRANCH  17  25
ATOM     25  C   UNL     1       4.993   4.608  15.639  0.00  0.00    +0.000 C 
BRANCH  25  27
ATOM     26  C   UNL     1       6.136   3.852  13.521  0.00  0.00    +0.000 C 
ATOM     27  C   UNL     1       6.291   4.613  14.828  0.00  0.00    +0.000 C 
ENDBRANCH  25  27
ENDBRANCH  17  25
ENDBRANCH  16  21
ENDBRANCH  15  16
ENDBRANCH   1  15
TORSDOF 7
ENDMDL
MODEL 2
REMARK VINA RESULT:      -7.8      3.054      4.972
REMARK  Name = 
REMARK  8 active torsions:
REMARK  status: ('A' for Active; 'I' for Inactive)
REMARK    1  A    between atoms: C_1  and  C_2
REMARK    2  A    between atoms: C_2  and  C_3
REMARK    3  A    between atoms: C_3  and  C_4
REMARK    4  A    between atoms: C_6  and  O_7
REMARK    5  A    between atoms: C_9  and  S_10
REMARK    6  A    between atoms: S_10  and  C_11
REMARK    7  A    between atoms: C_11  and  C_12
REMARK    8  A    between atoms: N_14  and  C_15
REMARK                            x       y       z     vdW  Elec       q    Type
REMARK                         _______ _______ _______ _____ _____    ______ ____
ROOT
ATOM      1  C   UNL     1       4.791   3.682  17.095  0.00  0.00    +0.000 C 
ATOM      2  O   UNL     1       3.701   3.456  16.574  0.00  0.00    +0.000 OA
ATOM      3  N   UNL     1       5.024   3.859  18.457  0.00  0.00    +0.000 N 
ATOM      4  H   UNL     1       5.930   4.242  18.696  0.00  0.00    +0.000 HD
ENDROOT
BRANCH   3   5
ATOM      5  C   UNL     1       4.029   3.858  19.481  0.00  0.00    +0.000 A 
ATOM      6  C   UNL     1       3.796   2.690  20.223  0.00  0.00    +0.000 A 
ATOM      7  C   UNL     1       2.758   2.612  21.143  0.00  0.00    +0.000 A 
ATOM      8  C   UNL     1       1.948   3.716  21.364  0.00  0.00    +0.000 A 
ATOM      9  C   UNL     1       2.184   4.920  20.692  0.00  0.00    +0.000 A 
ATOM     10  C   UNL     1       1.346   6.016  20.966  0.00  0.00    +0.000 A 
ATOM     11  C   UNL     1       1.535   7.238  20.333  0.00  0.00    +0.000 A 
ATOM     12  C   UNL     1       2.570   7.381  19.420  0.00  0.00    +0.000 A 
ATOM     13  C   UNL     1       3.409   6.296  19.128  0.00  0.00    +0.000 A 
ATOM     14  C   UNL     1       3.243   5.026  19.747  0.00  0.00    +0.000 A 
ENDBRANCH   3   5
BRANCH   1  15
ATOM     15  C   UNL     1       6.034   3.752  16.224  0.00  0.00    +0.000 C 
BRANCH  15  16
ATOM     16  S   UNL     1       6.259   5.437  15.575  0.00  0.00    +0.000 S 
BRANCH  16  21
ATOM     17  C   UNL     1       7.888   8.119  17.926  0.00  0.00    +0.000 A 
ATOM     18  C   UNL     1       8.326   7.406  19.021  0.00  0.00    +0.000 A 
ATOM     19  C   UNL     1       8.090   6.054  18.982  0.00  0.00    +0.000 A 
ATOM     20  N   UNL     1       7.481   5.420  17.976  0.00  0.00    +0.000 NA
ATOM     21  C   UNL     1       7.104   6.186  16.947  0.00  0.00    +0.000 A 
ATOM     22  N   UNL     1       7.284   7.518  16.878  0.00  0.00    +0.000 NA
BRANCH  19  23
ATOM     23  O   UNL     1       8.468   5.245  20.014  0.00  0.00    +0.000 OA
ATOM     24  H   UNL     1       9.432   5.248  20.077  0.00  0.00    +0.000 HD
ENDBRANCH  19  23
BRANCH  17  25
ATOM     25  C   UNL     1       8.088   9.614  17.852  0.00  0.00    +0.000 C 
BRANCH  25  27
ATOM     26  C   UNL     1      10.163  10.977  18.300  0.00  0.00    +0.000 C 
ATOM     27  C   UNL     1       9.071  10.114  18.913  0.00  0.00    +0.000 C 
ENDBRANCH  25  27
ENDBRANCH  17  25
ENDBRANCH  16  21
ENDBRANCH  15  16
ENDBRANCH   1  15
TORSDOF 7
ENDMDL
MODEL 3
REMARK VINA RESULT:      -7.4      2.789      4.184
REMARK  Name = 
REMARK  8 active torsions:
REMARK  status: ('A' for Active; 'I' for Inactive)
REMARK    1  A    between atoms: C_1  and  C_2
REMARK    2  A    between atoms: C_2  and  C_3
REMARK    3  A    between atoms: C_3  and  C_4
REMARK    4  A    between atoms: C_6  and  O_7
REMARK    5  A    between atoms: C_9  and  S_10
REMARK    6  A    between atoms: S_10  and  C_11
REMARK    7  A    between atoms: C_11  and  C_12
REMARK    8  A    between atoms: N_14  and  C_15
REMARK                            x       y       z     vdW  Elec       q    Type
REMARK                         _______ _______ _______ _____ _____    ______ ____
ROOT
ATOM      1  C   UNL     1       4.440   4.764  16.796  0.00  0.00    +0.000 C 
ATOM      2  O   UNL     1       4.172   3.682  17.314  0.00  0.00    +0.000 OA
ATOM      3  N   UNL     1       4.112   6.018  17.307  0.00  0.00    +0.000 N 
ATOM      4  H   UNL     1       4.219   6.790  16.662  0.00  0.00    +0.000 HD
ENDROOT
BRANCH   3   5
ATOM      5  C   UNL     1       3.364   6.264  18.498  0.00  0.00    +0.000 A 
ATOM      6  C   UNL     1       3.332   5.295  19.512  0.00  0.00    +0.000 A 
ATOM      7  C   UNL     1       2.523   5.444  20.631  0.00  0.00    +0.000 A 
ATOM      8  C   UNL     1       1.748   6.586  20.774  0.00  0.00    +0.000 A 
ATOM      9  C   UNL     1       1.797   7.605  19.817  0.00  0.00    +0.000 A 
ATOM     10  C   UNL     1       1.006   8.752  20.018  0.00  0.00    +0.000 A 
ATOM     11  C   UNL     1       1.017   9.799  19.105  0.00  0.00    +0.000 A 
ATOM     12  C   UNL     1       1.824   9.713  17.980  0.00  0.00    +0.000 A 
ATOM     13  C   UNL     1       2.611   8.574  17.758  0.00  0.00    +0.000 A 
ATOM     14  C   UNL     1       2.621   7.477  18.664  0.00  0.00    +0.000 A 
ENDBRANCH   3   5
BRANCH   1  15
ATOM     15  C   UNL     1       5.227   4.794  15.496  0.00  0.00    +0.000 C 
BRANCH  15  16
ATOM     16  S   UNL     1       6.945   4.266  15.785  0.00  0.00    +0.000 S 
BRANCH  16  21
ATOM     17  C   UNL     1       7.764   7.511  17.827  0.00  0.00    +0.000 A 
ATOM     18  C   UNL     1       7.977   7.070  19.116  0.00  0.00    +0.000 A 
ATOM     19  C   UNL     1       7.856   5.716  19.307  0.00  0.00    +0.000 A 
ATOM     20  N   UNL     1       7.554   4.839  18.346  0.00  0.00    +0.000 NA
ATOM     21  C   UNL     1       7.380   5.351  17.123  0.00  0.00    +0.000 A 
ATOM     22  N   UNL     1       7.474   6.659  16.820  0.00  0.00    +0.000 NA
BRANCH  19  23
ATOM     23  O   UNL     1       8.034   5.163  20.542  0.00  0.00    +0.000 OA
ATOM     24  H   UNL     1       7.765   5.803  21.214  0.00  0.00    +0.000 HD
ENDBRANCH  19  23
BRANCH  17  25
ATOM     25  C   UNL     1       7.867   8.979  17.490  0.00  0.00    +0.000 C 
BRANCH  25  27
ATOM     26  C   UNL     1       8.785  11.137  18.421  0.00  0.00    +0.000 C 
ATOM     27  C   UNL     1       9.038   9.652  18.209  0.00  0.00    +0.000 C 
ENDBRANCH  25  27
ENDBRANCH  17  25
ENDBRANCH  16  21
ENDBRANCH  15  16
ENDBRANCH   1  15
TORSDOF 7
ENDMDL
MODEL 4
REMARK VINA RESULT:      -7.3      2.950      5.249
REMARK  Name = 
REMARK  8 active torsions:
REMARK  status: ('A' for Active; 'I' for Inactive)
REMARK    1  A    between atoms: C_1  and  C_2
REMARK    2  A    between atoms: C_2  and  C_3
REMARK    3  A    between atoms: C_3  and  C_4
REMARK    4  A    between atoms: C_6  and  O_7
REMARK    5  A    between atoms: C_9  and  S_10
REMARK    6  A    between atoms: S_10  and  C_11
REMARK    7  A    between atoms: C_11  and  C_12
REMARK    8  A    between atoms: N_14  and  C_15
REMARK                            x       y       z     vdW  Elec       q    Type
REMARK                         _______ _______ _______ _____ _____    ______ ____
ROOT
ATOM      1  C   UNL     1       5.465   6.484  17.467  0.00  0.00    +0.000 C 
ATOM      2  O   UNL     1       4.940   7.538  17.111  0.00  0.00    +0.000 OA
ATOM      3  N   UNL     1       4.924   5.565  18.362  0.00  0.00    +0.000 N 
ATOM      4  H   UNL     1       5.568   4.863  18.704  0.00  0.00    +0.000 HD
ENDROOT
BRANCH   3   5
ATOM      5  C   UNL     1       3.688   5.709  19.062  0.00  0.00    +0.000 A 
ATOM      6  C   UNL     1       3.181   6.991  19.322  0.00  0.00    +0.000 A 
ATOM      7  C   UNL     1       2.046   7.176  20.101  0.00  0.00    +0.000 A 
ATOM      8  C   UNL     1       1.374   6.076  20.613  0.00  0.00    +0.000 A 
ATOM      9  C   UNL     1       1.809   4.778  20.327  0.00  0.00    +0.000 A 
ATOM     10  C   UNL     1       1.081   3.696  20.854  0.00  0.00    +0.000 A 
ATOM     11  C   UNL     1       1.462   2.384  20.600  0.00  0.00    +0.000 A 
ATOM     12  C   UNL     1       2.575   2.139  19.809  0.00  0.00    +0.000 A 
ATOM     13  C   UNL     1       3.318   3.205  19.283  0.00  0.00    +0.000 A 
ATOM     14  C   UNL     1       2.966   4.562  19.528  0.00  0.00    +0.000 A 
ENDBRANCH   3   5
BRANCH   1  15
ATOM     15  C   UNL     1       6.809   6.087  16.881  0.00  0.00    +0.000 C 
BRANCH  15  16
ATOM     16  S   UNL     1       6.807   4.324  16.431  0.00  0.00    +0.000 S 
BRANCH  16  21
ATOM     17  C   UNL     1       6.317   3.735  12.586  0.00  0.00    +0.000 A 
ATOM     18  C   UNL     1       7.167   4.637  11.981  0.00  0.00    +0.000 A 
ATOM     19  C   UNL     1       7.897   5.428  12.834  0.00  0.00    +0.000 A 
ATOM     20  N   UNL     1       7.827   5.369  14.167  0.00  0.00    +0.000 NA
ATOM     21  C   UNL     1       6.990   4.455  14.668  0.00  0.00    +0.000 A 
ATOM     22  N   UNL     1       6.228   3.628  13.928  0.00  0.00    +0.000 NA
BRANCH  19  23
ATOM     23  O   UNL     1       8.764   6.365  12.353  0.00  0.00    +0.000 OA
ATOM     24  H   UNL     1       8.767   7.124  12.949  0.00  0.00    +0.000 HD
ENDBRANCH  19  23
BRANCH  17  25
ATOM     25  C   UNL     1       5.460   2.811  11.754  0.00  0.00    +0.000 C 
BRANCH  25  27
ATOM     26  C   UNL     1       3.615   3.709  10.286  0.00  0.00    +0.000 C 
ATOM     27  C   UNL     1       4.004   3.280  11.692  0.00  0.00    +0.000 C 
ENDBRANCH  25  27
ENDBRANCH  17  25
ENDBRANCH  16  21
ENDBRANCH  15  16
ENDBRANCH   1  15
TORSDOF 7
ENDMDL
MODEL 5
REMARK VINA RESULT:      -7.3      6.424      8.459
REMARK  Name = 
REMARK  8 active torsions:
REMARK  status: ('A' for Active; 'I' for Inactive)
REMARK    1  A    between atoms: C_1  and  C_2
REMARK    2  A    between atoms: C_2  and  C_3
REMARK    3  A    between atoms: C_3  and  C_4
REMARK    4  A    between atoms: C_6  and  O_7
REMARK    5  A    between atoms: C_9  and  S_10
REMARK    6  A    between atoms: S_10  and  C_11
REMARK    7  A    between atoms: C_11  and  C_12
REMARK    8  A    between atoms: N_14  and  C_15
REMARK                            x       y       z     vdW  Elec       q    Type
REMARK                         _______ _______ _______ _____ _____    ______ ____
ROOT
ATOM      1  C   UNL     1       7.749   7.906  17.715  0.00  0.00    +0.000 C 
ATOM      2  O   UNL     1       8.199   7.200  18.615  0.00  0.00    +0.000 OA
ATOM      3  N   UNL     1       6.779   7.528  16.789  0.00  0.00    +0.000 N 
ATOM      4  H   UNL     1       6.673   8.148  15.995  0.00  0.00    +0.000 HD
ENDROOT
BRANCH   3   5
ATOM      5  C   UNL     1       6.175   6.239  16.691  0.00  0.00    +0.000 A 
ATOM      6  C   UNL     1       6.853   5.201  16.033  0.00  0.00    +0.000 A 
ATOM      7  C   UNL     1       6.251   3.969  15.813  0.00  0.00    +0.000 A 
ATOM      8  C   UNL     1       4.964   3.737  16.277  0.00  0.00    +0.000 A 
ATOM      9  C   UNL     1       4.276   4.722  16.993  0.00  0.00    +0.000 A 
ATOM     10  C   UNL     1       2.981   4.431  17.458  0.00  0.00    +0.000 A 
ATOM     11  C   UNL     1       2.251   5.367  18.179  0.00  0.00    +0.000 A 
ATOM     12  C   UNL     1       2.811   6.608  18.448  0.00  0.00    +0.000 A 
ATOM     13  C   UNL     1       4.097   6.919  17.984  0.00  0.00    +0.000 A 
ATOM     14  C   UNL     1       4.872   5.991  17.234  0.00  0.00    +0.000 A 
ENDBRANCH   3   5
BRANCH   1  15
ATOM     15  C   UNL     1       8.235   9.339  17.578  0.00  0.00    +0.000 C 
BRANCH  15  16
ATOM     16  S   UNL     1       9.021   9.891  19.123  0.00  0.00    +0.000 S 
BRANCH  16  21
ATOM     17  C   UNL     1       9.638  13.740  18.702  0.00  0.00    +0.000 A 
ATOM     18  C   UNL     1      10.726  13.831  17.860  0.00  0.00    +0.000 A 
ATOM     19  C   UNL     1      11.248  12.635  17.433  0.00  0.00    +0.000 A 
ATOM     20  N   UNL     1      10.772  11.435  17.779  0.00  0.00    +0.000 NA
ATOM     21  C   UNL     1       9.706  11.440  18.584  0.00  0.00    +0.000 A 
ATOM     22  N   UNL     1       9.113  12.550  19.063  0.00  0.00    +0.000 NA
BRANCH  19  23
ATOM     23  O   UNL     1      12.331  12.598  16.605  0.00  0.00    +0.000 OA
ATOM     24  H   UNL     1      12.867  13.387  16.753  0.00  0.00    +0.000 HD
ENDBRANCH  19  23
BRANCH  17  25
ATOM     25  C   UNL     1       8.977  14.986  19.241  0.00  0.00    +0.000 C 
BRANCH  25  27
ATOM     26  C   UNL     1      10.296  15.083  21.389  0.00  0.00    +0.000 C 
ATOM     27  C   UNL     1       9.930  15.813  20.106  0.00  0.00    +0.000 C 
ENDBRANCH  25  27
ENDBRANCH  17  25
ENDBRANCH  16  21
ENDBRANCH  15  16
ENDBRANCH   1  15
TORSDOF 7
ENDMDL
MODEL 6
REMARK VINA RESULT:      -7.2      4.306      8.119
REMARK  Name = 
REMARK  8 active torsions:
REMARK  status: ('A' for Active; 'I' for Inactive)
REMARK    1  A    between atoms: C_1  and  C_2
REMARK    2  A    between atoms: C_2  and  C_3
REMARK    3  A    between atoms: C_3  and  C_4
REMARK    4  A    between atoms: C_6  and  O_7
REMARK    5  A    between atoms: C_9  and  S_10
REMARK    6  A    between atoms: S_10  and  C_11
REMARK    7  A    between atoms: C_11  and  C_12
REMARK    8  A    between atoms: N_14  and  C_15
REMARK                            x       y       z     vdW  Elec       q    Type
REMARK                         _______ _______ _______ _____ _____    ______ ____
ROOT
ATOM      1  C   UNL     1       2.314   8.094  18.457  0.00  0.00    +0.000 C 
ATOM      2  O   UNL     1       2.286   7.707  19.623  0.00  0.00    +0.000 OA
ATOM      3  N   UNL     1       3.046   7.516  17.422  0.00  0.00    +0.000 N 
ATOM      4  H   UNL     1       3.122   8.074  16.582  0.00  0.00    +0.000 HD
ENDROOT
BRANCH   3   5
ATOM      5  C   UNL     1       3.931   6.403  17.546  0.00  0.00    +0.000 A 
ATOM      6  C   UNL     1       5.318   6.606  17.482  0.00  0.00    +0.000 A 
ATOM      7  C   UNL     1       6.207   5.539  17.479  0.00  0.00    +0.000 A 
ATOM      8  C   UNL     1       5.726   4.241  17.572  0.00  0.00    +0.000 A 
ATOM      9  C   UNL     1       4.355   3.996  17.701  0.00  0.00    +0.000 A 
ATOM     10  C   UNL     1       3.920   2.662  17.812  0.00  0.00    +0.000 A 
ATOM     11  C   UNL     1       2.571   2.357  17.947  0.00  0.00    +0.000 A 
ATOM     12  C   UNL     1       1.640   3.385  17.979  0.00  0.00    +0.000 A 
ATOM     13  C   UNL     1       2.054   4.719  17.861  0.00  0.00    +0.000 A 
ATOM     14  C   UNL     1       3.425   5.072  17.711  0.00  0.00    +0.000 A 
ENDBRANCH   3   5
BRANCH   1  15
ATOM     15  C   UNL     1       1.465   9.285  18.047  0.00  0.00    +0.000 C 
BRANCH  15  16
ATOM     16  S   UNL     1       0.842  10.156  19.518  0.00  0.00    +0.000 S 
BRANCH  16  21
ATOM     17  C   UNL     1      -2.444  10.378  17.391  0.00  0.00    +0.000 A 
ATOM     18  C   UNL     1      -3.174  11.389  17.978  0.00  0.00    +0.000 A 
ATOM     19  C   UNL     1      -2.586  11.994  19.061  0.00  0.00    +0.000 A 
ATOM     20  N   UNL     1      -1.390  11.664  19.555  0.00  0.00    +0.000 NA
ATOM     21  C   UNL     1      -0.744  10.685  18.915  0.00  0.00    +0.000 A 
ATOM     22  N   UNL     1      -1.223  10.023  17.845  0.00  0.00    +0.000 NA
BRANCH  19  23
ATOM     23  O   UNL     1      -3.218  13.001  19.731  0.00  0.00    +0.000 OA
ATOM     24  H   UNL     1      -4.169  12.835  19.722  0.00  0.00    +0.000 HD
ENDBRANCH  19  23
BRANCH  17  25
ATOM     25  C   UNL     1      -2.984   9.635  16.193  0.00  0.00    +0.000 C 
BRANCH  25  27
ATOM     26  C   UNL     1      -3.212  10.001  13.707  0.00  0.00    +0.000 C 
ATOM     27  C   UNL     1      -3.451  10.587  15.090  0.00  0.00    +0.000 C 
ENDBRANCH  25  27
ENDBRANCH  17  25
ENDBRANCH  16  21
ENDBRANCH  15  16
ENDBRANCH   1  15
TORSDOF 7
ENDMDL
MODEL 7
REMARK VINA RESULT:      -7.2      3.159      4.532
REMARK  Name = 
REMARK  8 active torsions:
REMARK  status: ('A' for Active; 'I' for Inactive)
REMARK    1  A    between atoms: C_1  and  C_2
REMARK    2  A    between atoms: C_2  and  C_3
REMARK    3  A    between atoms: C_3  and  C_4
REMARK    4  A    between atoms: C_6  and  O_7
REMARK    5  A    between atoms: C_9  and  S_10
REMARK    6  A    between atoms: S_10  and  C_11
REMARK    7  A    between atoms: C_11  and  C_12
REMARK    8  A    between atoms: N_14  and  C_15
REMARK                            x       y       z     vdW  Elec       q    Type
REMARK                         _______ _______ _______ _____ _____    ______ ____
ROOT
ATOM      1  C   UNL     1       1.838   8.786  18.591  0.00  0.00    +0.000 C 
ATOM      2  O   UNL     1       1.594   8.416  19.738  0.00  0.00    +0.000 OA
ATOM      3  N   UNL     1       1.299   9.905  17.962  0.00  0.00    +0.000 N 
ATOM      4  H   UNL     1       1.440   9.949  16.961  0.00  0.00    +0.000 HD
ENDROOT
BRANCH   3   5
ATOM      5  C   UNL     1       0.330  10.791  18.521  0.00  0.00    +0.000 A 
ATOM      6  C   UNL     1       0.724  11.739  19.478  0.00  0.00    +0.000 A 
ATOM      7  C   UNL     1      -0.206  12.537  20.132  0.00  0.00    +0.000 A 
ATOM      8  C   UNL     1      -1.553  12.425  19.820  0.00  0.00    +0.000 A 
ATOM      9  C   UNL     1      -1.983  11.537  18.828  0.00  0.00    +0.000 A 
ATOM     10  C   UNL     1      -3.357  11.474  18.535  0.00  0.00    +0.000 A 
ATOM     11  C   UNL     1      -3.843  10.615  17.557  0.00  0.00    +0.000 A 
ATOM     12  C   UNL     1      -2.957   9.810  16.855  0.00  0.00    +0.000 A 
ATOM     13  C   UNL     1      -1.585   9.853  17.140  0.00  0.00    +0.000 A 
ATOM     14  C   UNL     1      -1.050  10.711  18.141  0.00  0.00    +0.000 A 
ENDBRANCH   3   5
BRANCH   1  15
ATOM     15  C   UNL     1       2.838   8.005  17.753  0.00  0.00    +0.000 C 
BRANCH  15  16
ATOM     16  S   UNL     1       2.787   6.239  18.189  0.00  0.00    +0.000 S 
BRANCH  16  21
ATOM     17  C   UNL     1       6.671   6.143  17.667  0.00  0.00    +0.000 A 
ATOM     18  C   UNL     1       6.895   5.015  16.906  0.00  0.00    +0.000 A 
ATOM     19  C   UNL     1       5.776   4.298  16.564  0.00  0.00    +0.000 A 
ATOM     20  N   UNL     1       4.530   4.624  16.919  0.00  0.00    +0.000 NA
ATOM     21  C   UNL     1       4.403   5.741  17.643  0.00  0.00    +0.000 A 
ATOM     22  N   UNL     1       5.429   6.520  18.034  0.00  0.00    +0.000 NA
BRANCH  19  23
ATOM     23  O   UNL     1       5.872   3.158  15.821  0.00  0.00    +0.000 OA
ATOM     24  H   UNL     1       4.999   2.935  15.474  0.00  0.00    +0.000 HD
ENDBRANCH  19  23
BRANCH  17  25
ATOM     25  C   UNL     1       7.823   7.014  18.108  0.00  0.00    +0.000 C 
BRANCH  25  27
ATOM     26  C   UNL     1       8.584   9.406  18.365  0.00  0.00    +0.000 C 
ATOM     27  C   UNL     1       7.684   8.450  17.597  0.00  0.00    +0.000 C 
ENDBRANCH  25  27
ENDBRANCH  17  25
ENDBRANCH  16  21
ENDBRANCH  15  16
ENDBRANCH   1  15
TORSDOF 7
ENDMDL
MODEL 8
REMARK VINA RESULT:      -7.2      1.784      2.617
REMARK  Name = 
REMARK  8 active torsions:
REMARK  status: ('A' for Active; 'I' for Inactive)
REMARK    1  A    between atoms: C_1  and  C_2
REMARK    2  A    between atoms: C_2  and  C_3
REMARK    3  A    between atoms: C_3  and  C_4
REMARK    4  A    between atoms: C_6  and  O_7
REMARK    5  A    between atoms: C_9  and  S_10
REMARK    6  A    between atoms: S_10  and  C_11
REMARK    7  A    between atoms: C_11  and  C_12
REMARK    8  A    between atoms: N_14  and  C_15
REMARK                            x       y       z     vdW  Elec       q    Type
REMARK                         _______ _______ _______ _____ _____    ______ ____
ROOT
ATOM      1  C   UNL     1       2.561   5.647  19.188  0.00  0.00    +0.000 C 
ATOM      2  O   UNL     1       1.956   5.445  18.137  0.00  0.00    +0.000 OA
ATOM      3  N   UNL     1       2.579   6.842  19.903  0.00  0.00    +0.000 N 
ATOM      4  H   UNL     1       3.285   6.905  20.624  0.00  0.00    +0.000 HD
ENDROOT
BRANCH   3   5
ATOM      5  C   UNL     1       1.937   8.057  19.514  0.00  0.00    +0.000 A 
ATOM      6  C   UNL     1       2.085   8.533  18.202  0.00  0.00    +0.000 A 
ATOM      7  C   UNL     1       1.576   9.767  17.819  0.00  0.00    +0.000 A 
ATOM      8  C   UNL     1       0.880  10.541  18.735  0.00  0.00    +0.000 A 
ATOM      9  C   UNL     1       0.656  10.077  20.036  0.00  0.00    +0.000 A 
ATOM     10  C   UNL     1      -0.072  10.892  20.922  0.00  0.00    +0.000 A 
ATOM     11  C   UNL     1      -0.330  10.483  22.225  0.00  0.00    +0.000 A 
ATOM     12  C   UNL     1       0.134   9.248  22.655  0.00  0.00    +0.000 A 
ATOM     13  C   UNL     1       0.870   8.427  21.789  0.00  0.00    +0.000 A 
ATOM     14  C   UNL     1       1.163   8.815  20.452  0.00  0.00    +0.000 A 
ENDBRANCH   3   5
BRANCH   1  15
ATOM     15  C   UNL     1       3.349   4.514  19.823  0.00  0.00    +0.000 C 
BRANCH  15  16
ATOM     16  S   UNL     1       3.503   3.121  18.663  0.00  0.00    +0.000 S 
BRANCH  16  21
ATOM     17  C   UNL     1       6.982   4.655  17.707  0.00  0.00    +0.000 A 
ATOM     18  C   UNL     1       7.087   4.466  16.345  0.00  0.00    +0.000 A 
ATOM     19  C   UNL     1       6.018   3.843  15.749  0.00  0.00    +0.000 A 
ATOM     20  N   UNL     1       4.926   3.427  16.396  0.00  0.00    +0.000 NA
ATOM     21  C   UNL     1       4.902   3.665  17.711  0.00  0.00    +0.000 A 
ATOM     22  N   UNL     1       5.890   4.268  18.399  0.00  0.00    +0.000 NA
BRANCH  19  23
ATOM     23  O   UNL     1       6.012   3.591  14.408  0.00  0.00    +0.000 OA
ATOM     24  H   UNL     1       5.324   4.126  13.992  0.00  0.00    +0.000 HD
ENDBRANCH  19  23
BRANCH  17  25
ATOM     25  C   UNL     1       8.093   5.328  18.477  0.00  0.00    +0.000 C 
BRANCH  25  27
ATOM     26  C   UNL     1       7.736   7.692  17.669  0.00  0.00    +0.000 C 
ATOM     27  C   UNL     1       7.730   6.762  18.872  0.00  0.00    +0.000 C 
ENDBRANCH  25  27
ENDBRANCH  17  25
ENDBRANCH  16  21
ENDBRANCH  15  16
ENDBRANCH   1  15
TORSDOF 7
ENDMDL
MODEL 9
REMARK VINA RESULT:      -7.1      1.705      2.146
REMARK  Name = 
REMARK  8 active torsions:
REMARK  status: ('A' for Active; 'I' for Inactive)
REMARK    1  A    between atoms: C_1  and  C_2
REMARK    2  A    between atoms: C_2  and  C_3
REMARK    3  A    between atoms: C_3  and  C_4
REMARK    4  A    between atoms: C_6  and  O_7
REMARK    5  A    between atoms: C_9  and  S_10
REMARK    6  A    between atoms: S_10  and  C_11
REMARK    7  A    between atoms: C_11  and  C_12
REMARK    8  A    between atoms: N_14  and  C_15
REMARK                            x       y       z     vdW  Elec       q    Type
REMARK                         _______ _______ _______ _____ _____    ______ ____
ROOT
ATOM      1  C   UNL     1       1.795   4.823  20.859  0.00  0.00    +0.000 C 
ATOM      2  O   UNL     1       0.730   4.559  20.305  0.00  0.00    +0.000 OA
ATOM      3  N   UNL     1       2.540   5.986  20.684  0.00  0.00    +0.000 N 
ATOM      4  H   UNL     1       3.484   5.955  21.048  0.00  0.00    +0.000 HD
ENDROOT
BRANCH   3   5
ATOM      5  C   UNL     1       2.223   7.054  19.791  0.00  0.00    +0.000 A 
ATOM      6  C   UNL     1       2.643   6.991  18.454  0.00  0.00    +0.000 A 
ATOM      7  C   UNL     1       2.459   8.060  17.586  0.00  0.00    +0.000 A 
ATOM      8  C   UNL     1       1.819   9.208  18.031  0.00  0.00    +0.000 A 
ATOM      9  C   UNL     1       1.329   9.289  19.339  0.00  0.00    +0.000 A 
ATOM     10  C   UNL     1       0.671  10.467  19.736  0.00  0.00    +0.000 A 
ATOM     11  C   UNL     1       0.158  10.604  21.020  0.00  0.00    +0.000 A 
ATOM     12  C   UNL     1       0.293   9.559  21.923  0.00  0.00    +0.000 A 
ATOM     13  C   UNL     1       0.955   8.381  21.547  0.00  0.00    +0.000 A 
ATOM     14  C   UNL     1       1.502   8.206  20.246  0.00  0.00    +0.000 A 
ENDBRANCH   3   5
BRANCH   1  15
ATOM     15  C   UNL     1       2.377   3.839  21.861  0.00  0.00    +0.000 C 
BRANCH  15  16
ATOM     16  S   UNL     1       2.963   2.341  21.011  0.00  0.00    +0.000 S 
BRANCH  16  21
ATOM     17  C   UNL     1       5.073   4.231  18.300  0.00  0.00    +0.000 A 
ATOM     18  C   UNL     1       4.350   4.094  17.134  0.00  0.00    +0.000 A 
ATOM     19  C   UNL     1       3.176   3.390  17.243  0.00  0.00    +0.000 A 
ATOM     20  N   UNL     1       2.719   2.852  18.377  0.00  0.00    +0.000 NA
ATOM     21  C   UNL     1       3.474   3.046  19.462  0.00  0.00    +0.000 A 
ATOM     22  N   UNL     1       4.640   3.719  19.472  0.00  0.00    +0.000 NA
BRANCH  19  23
ATOM     23  O   UNL     1       2.380   3.180  16.155  0.00  0.00    +0.000 OA
ATOM     24  H   UNL     1       2.584   2.315  15.779  0.00  0.00    +0.000 HD
ENDBRANCH  19  23
BRANCH  17  25
ATOM     25  C   UNL     1       6.382   4.984  18.309  0.00  0.00    +0.000 C 
BRANCH  25  27
ATOM     26  C   UNL     1       7.207   5.466  15.974  0.00  0.00    +0.000 C 
ATOM     27  C   UNL     1       7.307   4.538  17.174  0.00  0.00    +0.000 C 
ENDBRANCH  25  27
ENDBRANCH  17  25
ENDBRANCH  16  21
ENDBRANCH  15  16
ENDBRANCH   1  15
TORSDOF 7
ENDMDL
