MODEL 1
REMARK VINA RESULT:      -6.6      0.000      0.000
REMARK  Name = 
REMARK  6 active torsions:
REMARK  status: ('A' for Active; 'I' for Inactive)
REMARK    1  A    between atoms: C_1  and  C_2
REMARK    2  A    between atoms: C_4  and  C_5
REMARK    3  A    between atoms: N_6  and  C_7
REMARK    4  A    between atoms: C_7  and  C_8
REMARK    5  A    between atoms: C_8  and  O_9
REMARK    6  A    between atoms: O_9  and  C_10
REMARK                            x       y       z     vdW  Elec       q    Type
REMARK                         _______ _______ _______ _____ _____    ______ ____
ROOT
ATOM      1  C   UNL     1       3.607   2.555  17.946  0.00  0.00    +0.000 C 
ENDROOT
BRANCH   1   2
ATOM      2  C   UNL     1       2.190   3.111  17.985  0.00  0.00    +0.000 C 
BRANCH   2   8
ATOM      3  C   UNL     1       2.132   7.656  19.618  0.00  0.00    +0.000 C 
ATOM      4  C   UNL     1       2.011   6.179  19.656  0.00  0.00    +0.000 A 
ATOM      5  C   UNL     1       1.656   5.366  20.754  0.00  0.00    +0.000 A 
ATOM      6  C   UNL     1       1.682   4.073  20.277  0.00  0.00    +0.000 A 
ATOM      7  C   UNL     1       1.389   2.791  20.961  0.00  0.00    +0.000 C 
ATOM      8  N   UNL     1       2.043   4.175  18.958  0.00  0.00    +0.000 N 
ATOM      9  N   UNL     1       2.246   5.449  18.561  0.00  0.00    +0.000 NA
ENDBRANCH   2   8
ENDBRANCH   1   2
BRANCH   1  10
ATOM     10  O   UNL     1       4.386   3.239  16.956  0.00  0.00    +0.000 OA
BRANCH  10  11
ATOM     11  C   UNL     1       5.255   4.211  17.381  0.00  0.00    +0.000 A 
ATOM     12  C   UNL     1       5.591   4.414  18.723  0.00  0.00    +0.000 A 
ATOM     13  C   UNL     1       6.516   5.399  19.082  0.00  0.00    +0.000 A 
ATOM     14  C   UNL     1       7.125   6.176  18.099  0.00  0.00    +0.000 A 
ATOM     15 CL   UNL     1       8.270   7.374  18.553  0.00  0.00    +0.000 Cl
ATOM     16  C   UNL     1       6.820   5.974  16.757  0.00  0.00    +0.000 A 
ATOM     17  C   UNL     1       5.891   4.992  16.400  0.00  0.00    +0.000 A 
ATOM     18 CL   UNL     1       5.539   4.786  14.721  0.00  0.00    +0.000 Cl
ENDBRANCH  10  11
ENDBRANCH   1  10
TORSDOF 4
ENDMDL
MODEL 2
REMARK VINA RESULT:      -6.5      3.089      5.661
REMARK  Name = 
REMARK  6 active torsions:
REMARK  status: ('A' for Active; 'I' for Inactive)
REMARK    1  A    between atoms: C_1  and  C_2
REMARK    2  A    between atoms: C_4  and  C_5
REMARK    3  A    between atoms: N_6  and  C_7
REMARK    4  A    between atoms: C_7  and  C_8
REMARK    5  A    between atoms: C_8  and  O_9
REMARK    6  A    between atoms: O_9  and  C_10
REMARK                            x       y       z     vdW  Elec       q    Type
REMARK                         _______ _______ _______ _____ _____    ______ ____
ROOT
ATOM      1  C   UNL     1       3.963   7.052  17.559  0.00  0.00    +0.000 C 
ENDROOT
BRANCH   1   2
ATOM      2  C   UNL     1       5.407   7.255  17.118  0.00  0.00    +0.000 C 
BRANCH   2   8
ATOM      3  C   UNL     1       6.232   4.047  13.603  0.00  0.00    +0.000 C 
ATOM      4  C   UNL     1       6.327   4.674  14.943  0.00  0.00    +0.000 A 
ATOM      5  C   UNL     1       7.087   4.242  16.052  0.00  0.00    +0.000 A 
ATOM      6  C   UNL     1       6.838   5.162  17.049  0.00  0.00    +0.000 A 
ATOM      7  C   UNL     1       7.361   5.241  18.434  0.00  0.00    +0.000 C 
ATOM      8  N   UNL     1       5.966   6.068  16.503  0.00  0.00    +0.000 N 
ATOM      9  N   UNL     1       5.644   5.790  15.222  0.00  0.00    +0.000 NA
ENDBRANCH   2   8
ENDBRANCH   1   2
BRANCH   1  10
ATOM     10  O   UNL     1       3.582   5.677  17.408  0.00  0.00    +0.000 OA
BRANCH  10  11
ATOM     11  C   UNL     1       3.083   5.025  18.506  0.00  0.00    +0.000 A 
ATOM     12  C   UNL     1       2.376   5.665  19.530  0.00  0.00    +0.000 A 
ATOM     13  C   UNL     1       1.861   4.930  20.602  0.00  0.00    +0.000 A 
ATOM     14  C   UNL     1       2.031   3.548  20.647  0.00  0.00    +0.000 A 
ATOM     15 CL   UNL     1       1.380   2.656  21.964  0.00  0.00    +0.000 Cl
ATOM     16  C   UNL     1       2.712   2.891  19.627  0.00  0.00    +0.000 A 
ATOM     17  C   UNL     1       3.232   3.628  18.558  0.00  0.00    +0.000 A 
ATOM     18 CL   UNL     1       4.077   2.768  17.320  0.00  0.00    +0.000 Cl
ENDBRANCH  10  11
ENDBRANCH   1  10
TORSDOF 4
ENDMDL
MODEL 3
REMARK VINA RESULT:      -6.4      3.016      5.338
REMARK  Name = 
REMARK  6 active torsions:
REMARK  status: ('A' for Active; 'I' for Inactive)
REMARK    1  A    between atoms: C_1  and  C_2
REMARK    2  A    between atoms: C_4  and  C_5
REMARK    3  A    between atoms: N_6  and  C_7
REMARK    4  A    between atoms: C_7  and  C_8
REMARK    5  A    between atoms: C_8  and  O_9
REMARK    6  A    between atoms: O_9  and  C_10
REMARK                            x       y       z     vdW  Elec       q    Type
REMARK                         _______ _______ _______ _____ _____    ______ ____
ROOT
ATOM      1  C   UNL     1       3.785   3.190  18.117  0.00  0.00    +0.000 C 
ENDROOT
BRANCH   1   2
ATOM      2  C   UNL     1       4.724   3.541  16.970  0.00  0.00    +0.000 C 
BRANCH   2   8
ATOM      3  C   UNL     1       8.125   5.745  19.597  0.00  0.00    +0.000 C 
ATOM      4  C   UNL     1       7.164   5.536  18.487  0.00  0.00    +0.000 A 
ATOM      5  C   UNL     1       6.927   6.373  17.376  0.00  0.00    +0.000 A 
ATOM      6  C   UNL     1       5.951   5.736  16.638  0.00  0.00    +0.000 A 
ATOM      7  C   UNL     1       5.302   6.127  15.364  0.00  0.00    +0.000 C 
ATOM      8  N   UNL     1       5.662   4.586  17.327  0.00  0.00    +0.000 N 
ATOM      9  N   UNL     1       6.391   4.445  18.454  0.00  0.00    +0.000 NA
ENDBRANCH   2   8
ENDBRANCH   1   2
BRANCH   1  10
ATOM     10  O   UNL     1       2.538   3.884  17.973  0.00  0.00    +0.000 OA
BRANCH  10  11
ATOM     11  C   UNL     1       2.335   5.006  18.735  0.00  0.00    +0.000 A 
ATOM     12  C   UNL     1       2.623   6.302  18.295  0.00  0.00    +0.000 A 
ATOM     13  C   UNL     1       2.354   7.405  19.110  0.00  0.00    +0.000 A 
ATOM     14  C   UNL     1       1.776   7.220  20.365  0.00  0.00    +0.000 A 
ATOM     15 CL   UNL     1       1.437   8.586  21.352  0.00  0.00    +0.000 Cl
ATOM     16  C   UNL     1       1.461   5.941  20.811  0.00  0.00    +0.000 A 
ATOM     17  C   UNL     1       1.737   4.838  19.997  0.00  0.00    +0.000 A 
ATOM     18 CL   UNL     1       1.337   3.269  20.599  0.00  0.00    +0.000 Cl
ENDBRANCH  10  11
ENDBRANCH   1  10
TORSDOF 4
ENDMDL
MODEL 4
REMARK VINA RESULT:      -6.4      1.638      3.337
REMARK  Name = 
REMARK  6 active torsions:
REMARK  status: ('A' for Active; 'I' for Inactive)
REMARK    1  A    between atoms: C_1  and  C_2
REMARK    2  A    between atoms: C_4  and  C_5
REMARK    3  A    between atoms: N_6  and  C_7
REMARK    4  A    between atoms: C_7  and  C_8
REMARK    5  A    between atoms: C_8  and  O_9
REMARK    6  A    between atoms: O_9  and  C_10
REMARK                            x       y       z     vdW  Elec       q    Type
REMARK                         _______ _______ _______ _____ _____    ______ ____
ROOT
ATOM      1  C   UNL     1       4.708   5.532  19.398  0.00  0.00    +0.000 C 
ENDROOT
BRANCH   1   2
ATOM      2  C   UNL     1       3.218   5.825  19.284  0.00  0.00    +0.000 C 
BRANCH   2   8
ATOM      3  C   UNL     1       1.310   2.439  22.152  0.00  0.00    +0.000 C 
ATOM      4  C   UNL     1       1.566   3.203  20.907  0.00  0.00    +0.000 A 
ATOM      5  C   UNL     1       0.998   2.999  19.631  0.00  0.00    +0.000 A 
ATOM      6  C   UNL     1       1.554   3.966  18.822  0.00  0.00    +0.000 A 
ATOM      7  C   UNL     1       1.336   4.258  17.385  0.00  0.00    +0.000 C 
ATOM      8  N   UNL     1       2.404   4.677  19.630  0.00  0.00    +0.000 N 
ATOM      9  N   UNL     1       2.424   4.229  20.903  0.00  0.00    +0.000 NA
ENDBRANCH   2   8
ENDBRANCH   1   2
BRANCH   1  10
ATOM     10  O   UNL     1       5.036   4.322  18.702  0.00  0.00    +0.000 OA
BRANCH  10  11
ATOM     11  C   UNL     1       5.549   4.429  17.435  0.00  0.00    +0.000 A 
ATOM     12  C   UNL     1       4.820   4.131  16.278  0.00  0.00    +0.000 A 
ATOM     13  C   UNL     1       5.394   4.300  15.015  0.00  0.00    +0.000 A 
ATOM     14  C   UNL     1       6.694   4.786  14.899  0.00  0.00    +0.000 A 
ATOM     15 CL   UNL     1       7.383   5.002  13.339  0.00  0.00    +0.000 Cl
ATOM     16  C   UNL     1       7.427   5.109  16.036  0.00  0.00    +0.000 A 
ATOM     17  C   UNL     1       6.854   4.934  17.299  0.00  0.00    +0.000 A 
ATOM     18 CL   UNL     1       7.807   5.341  18.682  0.00  0.00    +0.000 Cl
ENDBRANCH  10  11
ENDBRANCH   1  10
TORSDOF 4
ENDMDL
MODEL 5
REMARK VINA RESULT:      -6.4      3.954      6.925
REMARK  Name = 
REMARK  6 active torsions:
REMARK  status: ('A' for Active; 'I' for Inactive)
REMARK    1  A    between atoms: C_1  and  C_2
REMARK    2  A    between atoms: C_4  and  C_5
REMARK    3  A    between atoms: N_6  and  C_7
REMARK    4  A    between atoms: C_7  and  C_8
REMARK    5  A    between atoms: C_8  and  O_9
REMARK    6  A    between atoms: O_9  and  C_10
REMARK                            x       y       z     vdW  Elec       q    Type
REMARK                         _______ _______ _______ _____ _____    ______ ____
ROOT
ATOM      1  C   UNL     1       5.695   5.836  15.651  0.00  0.00    +0.000 C 
ENDROOT
BRANCH   1   2
ATOM      2  C   UNL     1       6.926   5.030  15.254  0.00  0.00    +0.000 C 
BRANCH   2   8
ATOM      3  C   UNL     1       5.212   2.412  11.575  0.00  0.00    +0.000 C 
ATOM      4  C   UNL     1       6.072   3.389  12.285  0.00  0.00    +0.000 A 
ATOM      5  C   UNL     1       7.108   4.184  11.749  0.00  0.00    +0.000 A 
ATOM      6  C   UNL     1       7.592   4.921  12.809  0.00  0.00    +0.000 A 
ATOM      7  C   UNL     1       8.672   5.935  12.860  0.00  0.00    +0.000 C 
ATOM      8  N   UNL     1       6.845   4.538  13.894  0.00  0.00    +0.000 N 
ATOM      9  N   UNL     1       5.914   3.608  13.595  0.00  0.00    +0.000 NA
ENDBRANCH   2   8
ENDBRANCH   1   2
BRANCH   1  10
ATOM     10  O   UNL     1       5.396   5.641  17.040  0.00  0.00    +0.000 OA
BRANCH  10  11
ATOM     11  C   UNL     1       4.313   4.863  17.360  0.00  0.00    +0.000 A 
ATOM     12  C   UNL     1       4.323   3.465  17.305  0.00  0.00    +0.000 A 
ATOM     13  C   UNL     1       3.195   2.732  17.684  0.00  0.00    +0.000 A 
ATOM     14  C   UNL     1       2.055   3.391  18.140  0.00  0.00    +0.000 A 
ATOM     15 CL   UNL     1       0.680   2.478  18.616  0.00  0.00    +0.000 Cl
ATOM     16  C   UNL     1       2.034   4.780  18.223  0.00  0.00    +0.000 A 
ATOM     17  C   UNL     1       3.161   5.512  17.838  0.00  0.00    +0.000 A 
ATOM     18 CL   UNL     1       3.084   7.235  17.950  0.00  0.00    +0.000 Cl
ENDBRANCH  10  11
ENDBRANCH   1  10
TORSDOF 4
ENDMDL
MODEL 6
REMARK VINA RESULT:      -6.4      3.445      5.700
REMARK  Name = 
REMARK  6 active torsions:
REMARK  status: ('A' for Active; 'I' for Inactive)
REMARK    1  A    between atoms: C_1  and  C_2
REMARK    2  A    between atoms: C_4  and  C_5
REMARK    3  A    between atoms: N_6  and  C_7
REMARK    4  A    between atoms: C_7  and  C_8
REMARK    5  A    between atoms: C_8  and  O_9
REMARK    6  A    between atoms: O_9  and  C_10
REMARK                            x       y       z     vdW  Elec       q    Type
REMARK                         _______ _______ _______ _____ _____    ______ ____
ROOT
ATOM      1  C   UNL     1       4.504   5.863  16.768  0.00  0.00    +0.000 C 
ENDROOT
BRANCH   1   2
ATOM      2  C   UNL     1       5.917   5.879  16.198  0.00  0.00    +0.000 C 
BRANCH   2   8
ATOM      3  C   UNL     1       8.295   9.659  18.036  0.00  0.00    +0.000 C 
ATOM      4  C   UNL     1       7.878   8.247  17.866  0.00  0.00    +0.000 A 
ATOM      5  C   UNL     1       8.308   7.121  18.601  0.00  0.00    +0.000 A 
ATOM      6  C   UNL     1       7.628   6.049  18.063  0.00  0.00    +0.000 A 
ATOM      7  C   UNL     1       7.657   4.613  18.427  0.00  0.00    +0.000 C 
ATOM      8  N   UNL     1       6.850   6.573  17.062  0.00  0.00    +0.000 N 
ATOM      9  N   UNL     1       6.987   7.909  16.928  0.00  0.00    +0.000 NA
ENDBRANCH   2   8
ENDBRANCH   1   2
BRANCH   1  10
ATOM     10  O   UNL     1       4.534   6.078  18.186  0.00  0.00    +0.000 OA
BRANCH  10  11
ATOM     11  C   UNL     1       3.817   5.221  18.981  0.00  0.00    +0.000 A 
ATOM     12  C   UNL     1       4.154   3.876  19.167  0.00  0.00    +0.000 A 
ATOM     13  C   UNL     1       3.400   3.068  20.024  0.00  0.00    +0.000 A 
ATOM     14  C   UNL     1       2.317   3.605  20.716  0.00  0.00    +0.000 A 
ATOM     15 CL   UNL     1       1.407   2.605  21.777  0.00  0.00    +0.000 Cl
ATOM     16  C   UNL     1       1.980   4.947  20.561  0.00  0.00    +0.000 A 
ATOM     17  C   UNL     1       2.731   5.751  19.699  0.00  0.00    +0.000 A 
ATOM     18 CL   UNL     1       2.269   7.408  19.533  0.00  0.00    +0.000 Cl
ENDBRANCH  10  11
ENDBRANCH   1  10
TORSDOF 4
ENDMDL
MODEL 7
REMARK VINA RESULT:      -6.4      1.136      2.107
REMARK  Name = 
REMARK  6 active torsions:
REMARK  status: ('A' for Active; 'I' for Inactive)
REMARK    1  A    between atoms: C_1  and  C_2
REMARK    2  A    between atoms: C_4  and  C_5
REMARK    3  A    between atoms: N_6  and  C_7
REMARK    4  A    between atoms: C_7  and  C_8
REMARK    5  A    between atoms: C_8  and  O_9
REMARK    6  A    between atoms: O_9  and  C_10
REMARK                            x       y       z     vdW  Elec       q    Type
REMARK                         _______ _______ _______ _____ _____    ______ ____
ROOT
ATOM      1  C   UNL     1       4.029   2.395  17.548  0.00  0.00    +0.000 C 
ENDROOT
BRANCH   1   2
ATOM      2  C   UNL     1       2.514   2.300  17.672  0.00  0.00    +0.000 C 
BRANCH   2   8
ATOM      3  C   UNL     1       1.158   2.572  22.299  0.00  0.00    +0.000 C 
ATOM      4  C   UNL     1       1.440   3.034  20.919  0.00  0.00    +0.000 A 
ATOM      5  C   UNL     1       1.314   4.340  20.398  0.00  0.00    +0.000 A 
ATOM      6  C   UNL     1       1.697   4.247  19.077  0.00  0.00    +0.000 A 
ATOM      7  C   UNL     1       1.784   5.290  18.027  0.00  0.00    +0.000 C 
ATOM      8  N   UNL     1       2.021   2.929  18.880  0.00  0.00    +0.000 N 
ATOM      9  N   UNL     1       1.872   2.175  19.989  0.00  0.00    +0.000 NA
ENDBRANCH   2   8
ENDBRANCH   1   2
BRANCH   1  10
ATOM     10  O   UNL     1       4.394   3.512  16.726  0.00  0.00    +0.000 OA
BRANCH  10  11
ATOM     11  C   UNL     1       5.281   4.423  17.238  0.00  0.00    +0.000 A 
ATOM     12  C   UNL     1       5.484   4.618  18.608  0.00  0.00    +0.000 A 
ATOM     13  C   UNL     1       6.434   5.538  19.061  0.00  0.00    +0.000 A 
ATOM     14  C   UNL     1       7.202   6.256  18.146  0.00  0.00    +0.000 A 
ATOM     15 CL   UNL     1       8.376   7.374  18.716  0.00  0.00    +0.000 Cl
ATOM     16  C   UNL     1       7.030   6.060  16.779  0.00  0.00    +0.000 A 
ATOM     17  C   UNL     1       6.075   5.144  16.328  0.00  0.00    +0.000 A 
ATOM     18 CL   UNL     1       5.892   4.942  14.622  0.00  0.00    +0.000 Cl
ENDBRANCH  10  11
ENDBRANCH   1  10
TORSDOF 4
ENDMDL
MODEL 8
REMARK VINA RESULT:      -6.3      3.345      5.837
REMARK  Name = 
REMARK  6 active torsions:
REMARK  status: ('A' for Active; 'I' for Inactive)
REMARK    1  A    between atoms: C_1  and  C_2
REMARK    2  A    between atoms: C_4  and  C_5
REMARK    3  A    between atoms: N_6  and  C_7
REMARK    4  A    between atoms: C_7  and  C_8
REMARK    5  A    between atoms: C_8  and  O_9
REMARK    6  A    between atoms: O_9  and  C_10
REMARK                            x       y       z     vdW  Elec       q    Type
REMARK                         _______ _______ _______ _____ _____    ______ ____
ROOT
ATOM      1  C   UNL     1       6.396   5.886  18.103  0.00  0.00    +0.000 C 
ENDROOT
BRANCH   1   2
ATOM      2  C   UNL     1       7.026   4.656  17.461  0.00  0.00    +0.000 C 
BRANCH   2   8
ATOM      3  C   UNL     1       7.866   5.394  12.762  0.00  0.00    +0.000 C 
ATOM      4  C   UNL     1       7.162   4.912  13.975  0.00  0.00    +0.000 A 
ATOM      5  C   UNL     1       5.965   4.167  14.045  0.00  0.00    +0.000 A 
ATOM      6  C   UNL     1       5.733   3.969  15.389  0.00  0.00    +0.000 A 
ATOM      7  C   UNL     1       4.637   3.248  16.079  0.00  0.00    +0.000 C 
ATOM      8  N   UNL     1       6.771   4.590  16.036  0.00  0.00    +0.000 N 
ATOM      9  N   UNL     1       7.652   5.168  15.193  0.00  0.00    +0.000 NA
ENDBRANCH   2   8
ENDBRANCH   1   2
BRANCH   1  10
ATOM     10  O   UNL     1       5.708   5.523  19.308  0.00  0.00    +0.000 OA
BRANCH  10  11
ATOM     11  C   UNL     1       4.575   4.758  19.196  0.00  0.00    +0.000 A 
ATOM     12  C   UNL     1       4.494   3.431  19.629  0.00  0.00    +0.000 A 
ATOM     13  C   UNL     1       3.295   2.720  19.519  0.00  0.00    +0.000 A 
ATOM     14  C   UNL     1       2.163   3.340  18.993  0.00  0.00    +0.000 A 
ATOM     15 CL   UNL     1       0.691   2.460  18.877  0.00  0.00    +0.000 Cl
ATOM     16  C   UNL     1       2.218   4.667  18.578  0.00  0.00    +0.000 A 
ATOM     17  C   UNL     1       3.420   5.373  18.683  0.00  0.00    +0.000 A 
ATOM     18 CL   UNL     1       3.441   7.015  18.145  0.00  0.00    +0.000 Cl
ENDBRANCH  10  11
ENDBRANCH   1  10
TORSDOF 4
ENDMDL
MODEL 9
REMARK VINA RESULT:      -6.3      1.395      1.834
REMARK  Name = 
REMARK  6 active torsions:
REMARK  status: ('A' for Active; 'I' for Inactive)
REMARK    1  A    between atoms: C_1  and  C_2
REMARK    2  A    between atoms: C_4  and  C_5
REMARK    3  A    between atoms: N_6  and  C_7
REMARK    4  A    between atoms: C_7  and  C_8
REMARK    5  A    between atoms: C_8  and  O_9
REMARK    6  A    between atoms: O_9  and  C_10
REMARK                            x       y       z     vdW  Elec       q    Type
REMARK                         _______ _______ _______ _____ _____    ______ ____
ROOT
ATOM      1  C   UNL     1       2.518   3.180  16.995  0.00  0.00    +0.000 C 
ENDROOT
BRANCH   1   2
ATOM      2  C   UNL     1       1.717   2.904  18.262  0.00  0.00    +0.000 C 
BRANCH   2   8
ATOM      3  C   UNL     1       2.193   7.479  19.735  0.00  0.00    +0.000 C 
ATOM      4  C   UNL     1       1.997   6.014  19.840  0.00  0.00    +0.000 A 
ATOM      5  C   UNL     1       1.788   5.248  21.008  0.00  0.00    +0.000 A 
ATOM      6  C   UNL     1       1.660   3.945  20.575  0.00  0.00    +0.000 A 
ATOM      7  C   UNL     1       1.415   2.699  21.339  0.00  0.00    +0.000 C 
ATOM      8  N   UNL     1       1.798   3.996  19.211  0.00  0.00    +0.000 N 
ATOM      9  N   UNL     1       2.002   5.246  18.745  0.00  0.00    +0.000 NA
ENDBRANCH   2   8
ENDBRANCH   1   2
BRANCH   1  10
ATOM     10  O   UNL     1       3.905   2.883  17.206  0.00  0.00    +0.000 OA
BRANCH  10  11
ATOM     11  C   UNL     1       4.792   3.928  17.210  0.00  0.00    +0.000 A 
ATOM     12  C   UNL     1       5.077   4.704  16.081  0.00  0.00    +0.000 A 
ATOM     13  C   UNL     1       5.965   5.781  16.166  0.00  0.00    +0.000 A 
ATOM     14  C   UNL     1       6.557   6.101  17.385  0.00  0.00    +0.000 A 
ATOM     15 CL   UNL     1       7.636   7.436  17.479  0.00  0.00    +0.000 Cl
ATOM     16  C   UNL     1       6.269   5.356  18.524  0.00  0.00    +0.000 A 
ATOM     17  C   UNL     1       5.386   4.275  18.436  0.00  0.00    +0.000 A 
ATOM     18 CL   UNL     1       5.067   3.373  19.875  0.00  0.00    +0.000 Cl
ENDBRANCH  10  11
ENDBRANCH   1  10
TORSDOF 4
ENDMDL
