MODEL 1
REMARK VINA RESULT:      -6.6      0.000      0.000
REMARK  Name = 
REMARK  5 active torsions:
REMARK  status: ('A' for Active; 'I' for Inactive)
REMARK    1  A    between atoms: C_1  and  C_2
REMARK    2  A    between atoms: C_2  and  O_3
REMARK    3  A    between atoms: O_3  and  C_4
REMARK    4  A    between atoms: C_4  and  C_6
REMARK    5  A    between atoms: C_11  and  N_12
REMARK                            x       y       z     vdW  Elec       q    Type
REMARK                         _______ _______ _______ _____ _____    ______ ____
ROOT
ATOM      1  C   UNL     1       5.934   5.598  17.241  0.00  0.00    +0.000 A 
ATOM      2  S   UNL     1       7.523   6.060  17.716  0.00  0.00    +0.000 S 
ATOM      3  C   UNL     1       7.200   5.523  19.305  0.00  0.00    +0.000 A 
ATOM      4  N   UNL     1       8.132   5.621  20.267  0.00  0.00    +0.000 N 
ATOM      5  N   UNL     1       6.011   5.011  19.495  0.00  0.00    +0.000 NA
ATOM      6  C   UNL     1       5.281   5.030  18.320  0.00  0.00    +0.000 A 
ATOM      7  H   UNL     1       9.101   5.731  19.990  0.00  0.00    +0.000 HD
ATOM      8  H   UNL     1       7.989   5.045  21.089  0.00  0.00    +0.000 HD
ENDROOT
BRANCH   6   9
ATOM      9  N   UNL     1       4.032   4.494  18.324  0.00  0.00    +0.000 N 
ATOM     10  C   UNL     1       3.787   3.111  17.926  0.00  0.00    +0.000 C 
ATOM     11  C   UNL     1       2.437   3.148  17.217  0.00  0.00    +0.000 C 
ATOM     12  C   UNL     1       1.709   4.289  17.902  0.00  0.00    +0.000 C 
ATOM     13  C   UNL     1       2.817   5.299  18.191  0.00  0.00    +0.000 C 
ENDBRANCH   6   9
BRANCH   1  14
ATOM     14  C   UNL     1       5.465   5.857  15.905  0.00  0.00    +0.000 C 
ATOM     15  O   UNL     1       5.055   6.927  15.475  0.00  0.00    +0.000 OA
BRANCH  14  16
ATOM     16  O   UNL     1       5.411   4.688  15.200  0.00  0.00    +0.000 OA
BRANCH  16  18
ATOM     17  C   UNL     1       6.077   3.697  13.142  0.00  0.00    +0.000 C 
ATOM     18  C   UNL     1       6.559   4.411  14.393  0.00  0.00    +0.000 C 
ENDBRANCH  16  18
ENDBRANCH  14  16
ENDBRANCH   1  14
TORSDOF 4
ENDMDL
MODEL 2
REMARK VINA RESULT:      -6.4      0.539      1.137
REMARK  Name = 
REMARK  5 active torsions:
REMARK  status: ('A' for Active; 'I' for Inactive)
REMARK    1  A    between atoms: C_1  and  C_2
REMARK    2  A    between atoms: C_2  and  O_3
REMARK    3  A    between atoms: O_3  and  C_4
REMARK    4  A    between atoms: C_4  and  C_6
REMARK    5  A    between atoms: C_11  and  N_12
REMARK                            x       y       z     vdW  Elec       q    Type
REMARK                         _______ _______ _______ _____ _____    ______ ____
ROOT
ATOM      1  C   UNL     1       5.839   5.480  16.906  0.00  0.00    +0.000 A 
ATOM      2  S   UNL     1       7.361   6.027  17.498  0.00  0.00    +0.000 S 
ATOM      3  C   UNL     1       6.990   5.380  19.035  0.00  0.00    +0.000 A 
ATOM      4  N   UNL     1       7.857   5.489  20.054  0.00  0.00    +0.000 N 
ATOM      5  N   UNL     1       5.833   4.776  19.127  0.00  0.00    +0.000 NA
ATOM      6  C   UNL     1       5.171   4.809  17.913  0.00  0.00    +0.000 A 
ATOM      7  H   UNL     1       8.829   5.682  19.842  0.00  0.00    +0.000 HD
ATOM      8  H   UNL     1       7.710   4.860  20.835  0.00  0.00    +0.000 HD
ENDROOT
BRANCH   6   9
ATOM      9  N   UNL     1       3.966   4.187  17.814  0.00  0.00    +0.000 N 
ATOM     10  C   UNL     1       2.731   4.827  18.259  0.00  0.00    +0.000 C 
ATOM     11  C   UNL     1       1.892   3.687  18.828  0.00  0.00    +0.000 C 
ATOM     12  C   UNL     1       2.330   2.485  18.015  0.00  0.00    +0.000 C 
ATOM     13  C   UNL     1       3.818   2.731  17.782  0.00  0.00    +0.000 C 
ENDBRANCH   6   9
BRANCH   1  14
ATOM     14  C   UNL     1       5.428   5.780  15.559  0.00  0.00    +0.000 C 
ATOM     15  O   UNL     1       5.142   6.885  15.116  0.00  0.00    +0.000 OA
BRANCH  14  16
ATOM     16  O   UNL     1       5.266   4.620  14.857  0.00  0.00    +0.000 OA
BRANCH  16  18
ATOM     17  C   UNL     1       6.118   3.622  12.872  0.00  0.00    +0.000 C 
ATOM     18  C   UNL     1       6.461   4.088  14.276  0.00  0.00    +0.000 C 
ENDBRANCH  16  18
ENDBRANCH  14  16
ENDBRANCH   1  14
TORSDOF 4
ENDMDL
MODEL 3
REMARK VINA RESULT:      -6.1      1.223      1.726
REMARK  Name = 
REMARK  5 active torsions:
REMARK  status: ('A' for Active; 'I' for Inactive)
REMARK    1  A    between atoms: C_1  and  C_2
REMARK    2  A    between atoms: C_2  and  O_3
REMARK    3  A    between atoms: O_3  and  C_4
REMARK    4  A    between atoms: C_4  and  C_6
REMARK    5  A    between atoms: C_11  and  N_12
REMARK                            x       y       z     vdW  Elec       q    Type
REMARK                         _______ _______ _______ _____ _____    ______ ____
ROOT
ATOM      1  C   UNL     1       5.733   6.116  17.833  0.00  0.00    +0.000 A 
ATOM      2  S   UNL     1       7.416   6.421  18.027  0.00  0.00    +0.000 S 
ATOM      3  C   UNL     1       7.411   5.509  19.471  0.00  0.00    +0.000 A 
ATOM      4  N   UNL     1       8.536   5.348  20.187  0.00  0.00    +0.000 N 
ATOM      5  N   UNL     1       6.259   4.984  19.801  0.00  0.00    +0.000 NA
ATOM      6  C   UNL     1       5.293   5.307  18.864  0.00  0.00    +0.000 A 
ATOM      7  H   UNL     1       9.426   5.509  19.730  0.00  0.00    +0.000 HD
ATOM      8  H   UNL     1       8.534   4.588  20.858  0.00  0.00    +0.000 HD
ENDROOT
BRANCH   6   9
ATOM      9  N   UNL     1       4.040   4.806  19.027  0.00  0.00    +0.000 N 
ATOM     10  C   UNL     1       3.018   5.521  19.787  0.00  0.00    +0.000 C 
ATOM     11  C   UNL     1       2.219   4.424  20.483  0.00  0.00    +0.000 C 
ATOM     12  C   UNL     1       2.325   3.250  19.528  0.00  0.00    +0.000 C 
ATOM     13  C   UNL     1       3.735   3.376  18.958  0.00  0.00    +0.000 C 
ENDBRANCH   6   9
BRANCH   1  14
ATOM     14  C   UNL     1       5.003   6.708  16.743  0.00  0.00    +0.000 C 
ATOM     15  O   UNL     1       3.912   7.259  16.814  0.00  0.00    +0.000 OA
BRANCH  14  16
ATOM     16  O   UNL     1       5.643   6.449  15.564  0.00  0.00    +0.000 OA
BRANCH  16  18
ATOM     17  C   UNL     1       6.836   4.610  14.638  0.00  0.00    +0.000 C 
ATOM     18  C   UNL     1       5.469   5.122  15.056  0.00  0.00    +0.000 C 
ENDBRANCH  16  18
ENDBRANCH  14  16
ENDBRANCH   1  14
TORSDOF 4
ENDMDL
MODEL 4
REMARK VINA RESULT:      -6.0      1.541      1.891
REMARK  Name = 
REMARK  5 active torsions:
REMARK  status: ('A' for Active; 'I' for Inactive)
REMARK    1  A    between atoms: C_1  and  C_2
REMARK    2  A    between atoms: C_2  and  O_3
REMARK    3  A    between atoms: O_3  and  C_4
REMARK    4  A    between atoms: C_4  and  C_6
REMARK    5  A    between atoms: C_11  and  N_12
REMARK                            x       y       z     vdW  Elec       q    Type
REMARK                         _______ _______ _______ _____ _____    ______ ____
ROOT
ATOM      1  C   UNL     1       5.780   4.480  17.588  0.00  0.00    +0.000 A 
ATOM      2  S   UNL     1       7.480   4.719  17.706  0.00  0.00    +0.000 S 
ATOM      3  C   UNL     1       7.292   5.226  19.327  0.00  0.00    +0.000 A 
ATOM      4  N   UNL     1       8.355   5.595  20.059  0.00  0.00    +0.000 N 
ATOM      5  N   UNL     1       6.066   5.208  19.783  0.00  0.00    +0.000 NA
ATOM      6  C   UNL     1       5.191   4.767  18.806  0.00  0.00    +0.000 A 
ATOM      7  H   UNL     1       9.275   5.297  19.758  0.00  0.00    +0.000 HD
ATOM      8  H   UNL     1       8.221   5.613  21.064  0.00  0.00    +0.000 HD
ENDROOT
BRANCH   6   9
ATOM      9  N   UNL     1       3.875   4.644  19.122  0.00  0.00    +0.000 N 
ATOM     10  C   UNL     1       3.038   5.809  19.395  0.00  0.00    +0.000 C 
ATOM     11  C   UNL     1       2.079   5.345  20.487  0.00  0.00    +0.000 C 
ATOM     12  C   UNL     1       1.923   3.862  20.214  0.00  0.00    +0.000 C 
ATOM     13  C   UNL     1       3.307   3.439  19.728  0.00  0.00    +0.000 C 
ENDBRANCH   6   9
BRANCH   1  14
ATOM     14  C   UNL     1       5.182   4.080  16.341  0.00  0.00    +0.000 C 
ATOM     15  O   UNL     1       3.984   3.978  16.110  0.00  0.00    +0.000 OA
BRANCH  14  16
ATOM     16  O   UNL     1       6.156   3.691  15.466  0.00  0.00    +0.000 OA
BRANCH  16  18
ATOM     17  C   UNL     1       6.017   3.589  13.093  0.00  0.00    +0.000 C 
ATOM     18  C   UNL     1       6.270   4.493  14.286  0.00  0.00    +0.000 C 
ENDBRANCH  16  18
ENDBRANCH  14  16
ENDBRANCH   1  14
TORSDOF 4
ENDMDL
MODEL 5
REMARK VINA RESULT:      -6.0      2.868      4.068
REMARK  Name = 
REMARK  5 active torsions:
REMARK  status: ('A' for Active; 'I' for Inactive)
REMARK    1  A    between atoms: C_1  and  C_2
REMARK    2  A    between atoms: C_2  and  O_3
REMARK    3  A    between atoms: O_3  and  C_4
REMARK    4  A    between atoms: C_4  and  C_6
REMARK    5  A    between atoms: C_11  and  N_12
REMARK                            x       y       z     vdW  Elec       q    Type
REMARK                         _______ _______ _______ _____ _____    ______ ____
ROOT
ATOM      1  C   UNL     1       3.877   5.601  18.920  0.00  0.00    +0.000 A 
ATOM      2  S   UNL     1       5.350   6.117  18.193  0.00  0.00    +0.000 S 
ATOM      3  C   UNL     1       6.014   4.563  18.447  0.00  0.00    +0.000 A 
ATOM      4  N   UNL     1       7.271   4.282  18.067  0.00  0.00    +0.000 N 
ATOM      5  N   UNL     1       5.214   3.695  19.011  0.00  0.00    +0.000 NA
ATOM      6  C   UNL     1       3.982   4.268  19.271  0.00  0.00    +0.000 A 
ATOM      7  H   UNL     1       7.712   4.880  17.378  0.00  0.00    +0.000 HD
ATOM      8  H   UNL     1       7.505   3.299  17.987  0.00  0.00    +0.000 HD
ENDROOT
BRANCH   6   9
ATOM      9  N   UNL     1       3.009   3.493  19.819  0.00  0.00    +0.000 N 
ATOM     10  C   UNL     1       1.864   3.031  19.040  0.00  0.00    +0.000 C 
ATOM     11  C   UNL     1       0.699   3.043  20.026  0.00  0.00    +0.000 C 
ATOM     12  C   UNL     1       1.363   2.766  21.361  0.00  0.00    +0.000 C 
ATOM     13  C   UNL     1       2.705   3.485  21.251  0.00  0.00    +0.000 C 
ENDBRANCH   6   9
BRANCH   1  14
ATOM     14  C   UNL     1       2.793   6.528  19.112  0.00  0.00    +0.000 C 
ATOM     15  O   UNL     1       2.165   6.707  20.148  0.00  0.00    +0.000 OA
BRANCH  14  16
ATOM     16  O   UNL     1       2.459   7.102  17.918  0.00  0.00    +0.000 OA
BRANCH  16  18
ATOM     17  C   UNL     1       1.256   9.154  17.843  0.00  0.00    +0.000 C 
ATOM     18  C   UNL     1       2.636   8.520  17.854  0.00  0.00    +0.000 C 
ENDBRANCH  16  18
ENDBRANCH  14  16
ENDBRANCH   1  14
TORSDOF 4
ENDMDL
MODEL 6
REMARK VINA RESULT:      -5.9      2.822      3.791
REMARK  Name = 
REMARK  5 active torsions:
REMARK  status: ('A' for Active; 'I' for Inactive)
REMARK    1  A    between atoms: C_1  and  C_2
REMARK    2  A    between atoms: C_2  and  O_3
REMARK    3  A    between atoms: O_3  and  C_4
REMARK    4  A    between atoms: C_4  and  C_6
REMARK    5  A    between atoms: C_11  and  N_12
REMARK                            x       y       z     vdW  Elec       q    Type
REMARK                         _______ _______ _______ _____ _____    ______ ____
ROOT
ATOM      1  C   UNL     1       4.208   5.403  17.902  0.00  0.00    +0.000 A 
ATOM      2  S   UNL     1       4.417   6.974  17.230  0.00  0.00    +0.000 S 
ATOM      3  C   UNL     1       2.967   7.482  17.979  0.00  0.00    +0.000 A 
ATOM      4  N   UNL     1       2.519   8.739  17.827  0.00  0.00    +0.000 N 
ATOM      5  N   UNL     1       2.361   6.576  18.702  0.00  0.00    +0.000 NA
ATOM      6  C   UNL     1       3.067   5.387  18.683  0.00  0.00    +0.000 A 
ATOM      7  H   UNL     1       3.173   9.451  17.526  0.00  0.00    +0.000 HD
ATOM      8  H   UNL     1       1.830   9.052  18.502  0.00  0.00    +0.000 HD
ENDROOT
BRANCH   6   9
ATOM      9  N   UNL     1       2.601   4.344  19.419  0.00  0.00    +0.000 N 
ATOM     10  C   UNL     1       1.822   3.265  18.819  0.00  0.00    +0.000 C 
ATOM     11  C   UNL     1       0.807   2.880  19.891  0.00  0.00    +0.000 C 
ATOM     12  C   UNL     1       1.531   3.185  21.188  0.00  0.00    +0.000 C 
ATOM     13  C   UNL     1       2.349   4.431  20.859  0.00  0.00    +0.000 C 
ENDBRANCH   6   9
BRANCH   1  14
ATOM     14  C   UNL     1       5.131   4.344  17.587  0.00  0.00    +0.000 C 
ATOM     15  O   UNL     1       4.995   3.501  16.710  0.00  0.00    +0.000 OA
BRANCH  14  16
ATOM     16  O   UNL     1       6.141   4.323  18.506  0.00  0.00    +0.000 OA
BRANCH  16  18
ATOM     17  C   UNL     1       7.813   5.970  18.900  0.00  0.00    +0.000 C 
ATOM     18  C   UNL     1       7.406   4.793  18.030  0.00  0.00    +0.000 C 
ENDBRANCH  16  18
ENDBRANCH  14  16
ENDBRANCH   1  14
TORSDOF 4
ENDMDL
MODEL 7
REMARK VINA RESULT:      -5.9      2.483      3.347
REMARK  Name = 
REMARK  5 active torsions:
REMARK  status: ('A' for Active; 'I' for Inactive)
REMARK    1  A    between atoms: C_1  and  C_2
REMARK    2  A    between atoms: C_2  and  O_3
REMARK    3  A    between atoms: O_3  and  C_4
REMARK    4  A    between atoms: C_4  and  C_6
REMARK    5  A    between atoms: C_11  and  N_12
REMARK                            x       y       z     vdW  Elec       q    Type
REMARK                         _______ _______ _______ _____ _____    ______ ____
ROOT
ATOM      1  C   UNL     1       4.329   5.440  18.108  0.00  0.00    +0.000 A 
ATOM      2  S   UNL     1       4.459   6.973  17.336  0.00  0.00    +0.000 S 
ATOM      3  C   UNL     1       2.931   7.413  17.960  0.00  0.00    +0.000 A 
ATOM      4  N   UNL     1       2.399   8.616  17.692  0.00  0.00    +0.000 N 
ATOM      5  N   UNL     1       2.351   6.512  18.711  0.00  0.00    +0.000 NA
ATOM      6  C   UNL     1       3.145   5.385  18.820  0.00  0.00    +0.000 A 
ATOM      7  H   UNL     1       3.015   9.356  17.378  0.00  0.00    +0.000 HD
ATOM      8  H   UNL     1       1.647   8.918  18.301  0.00  0.00    +0.000 HD
ENDROOT
BRANCH   6   9
ATOM      9  N   UNL     1       2.714   4.361  19.603  0.00  0.00    +0.000 N 
ATOM     10  C   UNL     1       2.090   3.169  19.036  0.00  0.00    +0.000 C 
ATOM     11  C   UNL     1       1.027   2.770  20.054  0.00  0.00    +0.000 C 
ATOM     12  C   UNL     1       1.607   3.241  21.373  0.00  0.00    +0.000 C 
ATOM     13  C   UNL     1       2.334   4.532  21.006  0.00  0.00    +0.000 C 
ENDBRANCH   6   9
BRANCH   1  14
ATOM     14  C   UNL     1       5.348   4.439  17.924  0.00  0.00    +0.000 C 
ATOM     15  O   UNL     1       6.300   4.228  18.665  0.00  0.00    +0.000 OA
BRANCH  14  16
ATOM     16  O   UNL     1       5.184   3.830  16.713  0.00  0.00    +0.000 OA
BRANCH  16  18
ATOM     17  C   UNL     1       5.657   4.332  14.436  0.00  0.00    +0.000 C 
ATOM     18  C   UNL     1       6.263   4.009  15.791  0.00  0.00    +0.000 C 
ENDBRANCH  16  18
ENDBRANCH  14  16
ENDBRANCH   1  14
TORSDOF 4
ENDMDL
MODEL 8
REMARK VINA RESULT:      -5.9      1.071      1.076
REMARK  Name = 
REMARK  5 active torsions:
REMARK  status: ('A' for Active; 'I' for Inactive)
REMARK    1  A    between atoms: C_1  and  C_2
REMARK    2  A    between atoms: C_2  and  O_3
REMARK    3  A    between atoms: O_3  and  C_4
REMARK    4  A    between atoms: C_4  and  C_6
REMARK    5  A    between atoms: C_11  and  N_12
REMARK                            x       y       z     vdW  Elec       q    Type
REMARK                         _______ _______ _______ _____ _____    ______ ____
ROOT
ATOM      1  C   UNL     1       5.890   4.508  17.365  0.00  0.00    +0.000 A 
ATOM      2  S   UNL     1       7.519   4.993  17.638  0.00  0.00    +0.000 S 
ATOM      3  C   UNL     1       7.175   5.199  19.298  0.00  0.00    +0.000 A 
ATOM      4  N   UNL     1       8.126   5.611  20.152  0.00  0.00    +0.000 N 
ATOM      5  N   UNL     1       5.950   4.914  19.658  0.00  0.00    +0.000 NA
ATOM      6  C   UNL     1       5.207   4.500  18.567  0.00  0.00    +0.000 A 
ATOM      7  H   UNL     1       9.096   5.515  19.876  0.00  0.00    +0.000 HD
ATOM      8  H   UNL     1       7.946   5.447  21.136  0.00  0.00    +0.000 HD
ENDROOT
BRANCH   6   9
ATOM      9  N   UNL     1       3.917   4.121  18.766  0.00  0.00    +0.000 N 
ATOM     10  C   UNL     1       3.509   2.721  18.711  0.00  0.00    +0.000 C 
ATOM     11  C   UNL     1       2.115   2.750  18.093  0.00  0.00    +0.000 C 
ATOM     12  C   UNL     1       1.558   4.088  18.539  0.00  0.00    +0.000 C 
ATOM     13  C   UNL     1       2.777   5.007  18.524  0.00  0.00    +0.000 C 
ENDBRANCH   6   9
BRANCH   1  14
ATOM     14  C   UNL     1       5.425   4.222  16.032  0.00  0.00    +0.000 C 
ATOM     15  O   UNL     1       4.261   4.230  15.652  0.00  0.00    +0.000 OA
BRANCH  14  16
ATOM     16  O   UNL     1       6.469   3.799  15.260  0.00  0.00    +0.000 OA
BRANCH  16  18
ATOM     17  C   UNL     1       6.172   3.554  12.912  0.00  0.00    +0.000 C 
ATOM     18  C   UNL     1       6.626   4.491  14.018  0.00  0.00    +0.000 C 
ENDBRANCH  16  18
ENDBRANCH  14  16
ENDBRANCH   1  14
TORSDOF 4
ENDMDL
MODEL 9
REMARK VINA RESULT:      -5.8      1.675      2.669
REMARK  Name = 
REMARK  5 active torsions:
REMARK  status: ('A' for Active; 'I' for Inactive)
REMARK    1  A    between atoms: C_1  and  C_2
REMARK    2  A    between atoms: C_2  and  O_3
REMARK    3  A    between atoms: O_3  and  C_4
REMARK    4  A    between atoms: C_4  and  C_6
REMARK    5  A    between atoms: C_11  and  N_12
REMARK                            x       y       z     vdW  Elec       q    Type
REMARK                         _______ _______ _______ _____ _____    ______ ____
ROOT
ATOM      1  C   UNL     1       5.610   5.984  17.715  0.00  0.00    +0.000 A 
ATOM      2  S   UNL     1       7.226   6.505  17.993  0.00  0.00    +0.000 S 
ATOM      3  C   UNL     1       7.300   5.522  19.388  0.00  0.00    +0.000 A 
ATOM      4  N   UNL     1       8.412   5.477  20.140  0.00  0.00    +0.000 N 
ATOM      5  N   UNL     1       6.222   4.827  19.643  0.00  0.00    +0.000 NA
ATOM      6  C   UNL     1       5.252   5.066  18.686  0.00  0.00    +0.000 A 
ATOM      7  H   UNL     1       9.285   5.784  19.728  0.00  0.00    +0.000 HD
ATOM      8  H   UNL     1       8.493   4.687  20.770  0.00  0.00    +0.000 HD
ENDROOT
BRANCH   6   9
ATOM      9  N   UNL     1       4.076   4.390  18.771  0.00  0.00    +0.000 N 
ATOM     10  C   UNL     1       3.650   3.452  17.737  0.00  0.00    +0.000 C 
ATOM     11  C   UNL     1       2.136   3.618  17.666  0.00  0.00    +0.000 C 
ATOM     12  C   UNL     1       1.757   4.012  19.080  0.00  0.00    +0.000 C 
ATOM     13  C   UNL     1       2.928   4.877  19.538  0.00  0.00    +0.000 C 
ENDBRANCH   6   9
BRANCH   1  14
ATOM     14  C   UNL     1       4.841   6.531  16.628  0.00  0.00    +0.000 C 
ATOM     15  O   UNL     1       5.256   6.793  15.506  0.00  0.00    +0.000 OA
BRANCH  14  16
ATOM     16  O   UNL     1       3.587   6.852  17.063  0.00  0.00    +0.000 OA
BRANCH  16  18
ATOM     17  C   UNL     1       1.979   8.409  17.869  0.00  0.00    +0.000 C 
ATOM     18  C   UNL     1       3.458   8.157  17.637  0.00  0.00    +0.000 C 
ENDBRANCH  16  18
ENDBRANCH  14  16
ENDBRANCH   1  14
TORSDOF 4
ENDMDL
