MODEL 1
REMARK VINA RESULT:      -7.9      0.000      0.000
REMARK  Name = 
REMARK  6 active torsions:
REMARK  status: ('A' for Active; 'I' for Inactive)
REMARK    1  A    between atoms: C_1  and  C_2
REMARK    2  A    between atoms: C_2  and  O_3
REMARK    3  A    between atoms: O_3  and  C_4
REMARK    4  A    between atoms: N_6  and  C_7
REMARK    5  A    between atoms: C_9  and  N_10
REMARK    6  A    between atoms: C_13  and  C_14
REMARK                            x       y       z     vdW  Elec       q    Type
REMARK                         _______ _______ _______ _____ _____    ______ ____
ROOT
ATOM      1  C   UNL     1       4.587   4.922  17.125  0.00  0.00    +0.000 A 
ATOM      2  C   UNL     1       4.360   4.036  18.186  0.00  0.00    +0.000 A 
ATOM      3  C   UNL     1       3.573   4.363  19.298  0.00  0.00    +0.000 A 
ATOM      4  C   UNL     1       3.076   5.661  19.313  0.00  0.00    +0.000 A 
ATOM      5  N   UNL     1       2.298   6.337  20.212  0.00  0.00    +0.000 N 
ATOM      6  C   UNL     1       2.080   7.614  19.753  0.00  0.00    +0.000 A 
ATOM      7  N   UNL     1       2.684   7.783  18.590  0.00  0.00    +0.000 NA
ATOM      8  C   UNL     1       3.312   6.592  18.310  0.00  0.00    +0.000 A 
ATOM      9  C   UNL     1       4.098   6.233  17.200  0.00  0.00    +0.000 A 
ATOM     10  H   UNL     1       1.920   5.948  21.060  0.00  0.00    +0.000 HD
ENDROOT
BRANCH   6  11
ATOM     11  C   UNL     1       1.263   8.592  20.470  0.00  0.00    +0.000 A 
ATOM     12  C   UNL     1       0.596   9.628  19.795  0.00  0.00    +0.000 A 
ATOM     13  C   UNL     1      -0.187  10.548  20.498  0.00  0.00    +0.000 A 
ATOM     14  C   UNL     1      -0.306  10.439  21.881  0.00  0.00    +0.000 A 
ATOM     15 BR   UNL     1      -1.380  11.674  22.826  0.00  0.00    +0.000 Br
ATOM     16  C   UNL     1       0.351   9.421  22.568  0.00  0.00    +0.000 A 
ATOM     17  C   UNL     1       1.129   8.498  21.861  0.00  0.00    +0.000 A 
ENDBRANCH   6  11
BRANCH   1  20
ATOM     18  C   UNL     1       6.664   4.502  15.848  0.00  0.00    +0.000 C 
ATOM     19  O   UNL     1       7.495   4.703  16.721  0.00  0.00    +0.000 OA
ATOM     20  N   UNL     1       5.304   4.542  15.972  0.00  0.00    +0.000 N 
ATOM     21  H   UNL     1       4.791   4.221  15.162  0.00  0.00    +0.000 HD
BRANCH  18  22
ATOM     22  O   UNL     1       6.991   4.220  14.559  0.00  0.00    +0.000 OA
BRANCH  22  24
ATOM     23  C   UNL     1       6.353   3.478  12.367  0.00  0.00    +0.000 C 
ATOM     24  C   UNL     1       5.855   3.980  13.711  0.00  0.00    +0.000 C 
ENDBRANCH  22  24
ENDBRANCH  18  22
ENDBRANCH   1  20
BRANCH   3  25
ATOM     25  N   UNL     1       3.403   3.443  20.334  0.00  0.00    +0.000 N 
ATOM     26  H   UNL     1       4.154   2.757  20.380  0.00  0.00    +0.000 HD
ATOM     27  H   UNL     1       2.488   3.028  20.419  0.00  0.00    +0.000 HD
ENDBRANCH   3  25
TORSDOF 5
ENDMDL
MODEL 2
REMARK VINA RESULT:      -7.9      0.079      1.011
REMARK  Name = 
REMARK  6 active torsions:
REMARK  status: ('A' for Active; 'I' for Inactive)
REMARK    1  A    between atoms: C_1  and  C_2
REMARK    2  A    between atoms: C_2  and  O_3
REMARK    3  A    between atoms: O_3  and  C_4
REMARK    4  A    between atoms: N_6  and  C_7
REMARK    5  A    between atoms: C_9  and  N_10
REMARK    6  A    between atoms: C_13  and  C_14
REMARK                            x       y       z     vdW  Elec       q    Type
REMARK                         _______ _______ _______ _____ _____    ______ ____
ROOT
ATOM      1  C   UNL     1       4.628   4.968  17.062  0.00  0.00    +0.000 A 
ATOM      2  C   UNL     1       4.427   4.064  18.113  0.00  0.00    +0.000 A 
ATOM      3  C   UNL     1       3.650   4.365  19.239  0.00  0.00    +0.000 A 
ATOM      4  C   UNL     1       3.135   5.656  19.279  0.00  0.00    +0.000 A 
ATOM      5  N   UNL     1       2.361   6.308  20.197  0.00  0.00    +0.000 N 
ATOM      6  C   UNL     1       2.119   7.588  19.759  0.00  0.00    +0.000 A 
ATOM      7  N   UNL     1       2.706   7.782  18.591  0.00  0.00    +0.000 NA
ATOM      8  C   UNL     1       3.346   6.604  18.286  0.00  0.00    +0.000 A 
ATOM      9  C   UNL     1       4.122   6.271  17.161  0.00  0.00    +0.000 A 
ATOM     10  H   UNL     1       1.999   5.902  21.045  0.00  0.00    +0.000 HD
ENDROOT
BRANCH   6  11
ATOM     11  C   UNL     1       1.298   8.545  20.501  0.00  0.00    +0.000 A 
ATOM     12  C   UNL     1       1.145   8.456  21.894  0.00  0.00    +0.000 A 
ATOM     13  C   UNL     1       0.363   9.385  22.585  0.00  0.00    +0.000 A 
ATOM     14  C   UNL     1      -0.273  10.408  21.887  0.00  0.00    +0.000 A 
ATOM     15 BR   UNL     1      -1.315  11.674  22.827  0.00  0.00    +0.000 Br
ATOM     16  C   UNL     1      -0.136  10.510  20.504  0.00  0.00    +0.000 A 
ATOM     17  C   UNL     1       0.652   9.582  19.816  0.00  0.00    +0.000 A 
ENDBRANCH   6  11
BRANCH   1  20
ATOM     18  C   UNL     1       6.694   4.543  15.768  0.00  0.00    +0.000 C 
ATOM     19  O   UNL     1       7.529   4.686  16.647  0.00  0.00    +0.000 OA
ATOM     20  N   UNL     1       5.335   4.615  15.894  0.00  0.00    +0.000 N 
ATOM     21  H   UNL     1       4.814   4.339  15.072  0.00  0.00    +0.000 HD
BRANCH  18  22
ATOM     22  O   UNL     1       7.013   4.302  14.468  0.00  0.00    +0.000 OA
BRANCH  22  24
ATOM     23  C   UNL     1       6.405   3.460  12.304  0.00  0.00    +0.000 C 
ATOM     24  C   UNL     1       5.889   3.933  13.652  0.00  0.00    +0.000 C 
ENDBRANCH  22  24
ENDBRANCH  18  22
ENDBRANCH   1  20
BRANCH   3  25
ATOM     25  N   UNL     1       3.506   3.427  20.263  0.00  0.00    +0.000 N 
ATOM     26  H   UNL     1       2.986   2.601  19.972  0.00  0.00    +0.000 HD
ATOM     27  H   UNL     1       3.206   3.784  21.158  0.00  0.00    +0.000 HD
ENDBRANCH   3  25
TORSDOF 5
ENDMDL
MODEL 3
REMARK VINA RESULT:      -7.9      5.939      6.646
REMARK  Name = 
REMARK  6 active torsions:
REMARK  status: ('A' for Active; 'I' for Inactive)
REMARK    1  A    between atoms: C_1  and  C_2
REMARK    2  A    between atoms: C_2  and  O_3
REMARK    3  A    between atoms: O_3  and  C_4
REMARK    4  A    between atoms: N_6  and  C_7
REMARK    5  A    between atoms: C_9  and  N_10
REMARK    6  A    between atoms: C_13  and  C_14
REMARK                            x       y       z     vdW  Elec       q    Type
REMARK                         _______ _______ _______ _____ _____    ______ ____
ROOT
ATOM      1  C   UNL     1       6.828   5.553  16.707  0.00  0.00    +0.000 A 
ATOM      2  C   UNL     1       7.280   5.027  17.924  0.00  0.00    +0.000 A 
ATOM      3  C   UNL     1       7.902   5.807  18.907  0.00  0.00    +0.000 A 
ATOM      4  C   UNL     1       8.103   7.141  18.570  0.00  0.00    +0.000 A 
ATOM      5  N   UNL     1       8.673   8.184  19.245  0.00  0.00    +0.000 N 
ATOM      6  C   UNL     1       8.620   9.313  18.464  0.00  0.00    +0.000 A 
ATOM      7  N   UNL     1       8.032   9.037  17.313  0.00  0.00    +0.000 NA
ATOM      8  C   UNL     1       7.717   7.699  17.358  0.00  0.00    +0.000 A 
ATOM      9  C   UNL     1       7.086   6.894  16.393  0.00  0.00    +0.000 A 
ATOM     10  H   UNL     1       9.045   8.137  20.180  0.00  0.00    +0.000 HD
ENDROOT
BRANCH   6  11
ATOM     11  C   UNL     1       9.126  10.613  18.903  0.00  0.00    +0.000 A 
ATOM     12  C   UNL     1       9.562  10.824  20.221  0.00  0.00    +0.000 A 
ATOM     13  C   UNL     1      10.049  12.072  20.620  0.00  0.00    +0.000 A 
ATOM     14  C   UNL     1      10.101  13.118  19.702  0.00  0.00    +0.000 A 
ATOM     15 BR   UNL     1      10.777  14.799  20.239  0.00  0.00    +0.000 Br
ATOM     16  C   UNL     1       9.668  12.930  18.391  0.00  0.00    +0.000 A 
ATOM     17  C   UNL     1       9.187  11.678  17.994  0.00  0.00    +0.000 A 
ENDBRANCH   6  11
BRANCH   1  20
ATOM     18  C   UNL     1       6.399   4.671  14.435  0.00  0.00    +0.000 C 
ATOM     19  O   UNL     1       7.343   5.161  13.835  0.00  0.00    +0.000 OA
ATOM     20  N   UNL     1       6.121   4.773  15.769  0.00  0.00    +0.000 N 
ATOM     21  H   UNL     1       5.363   4.187  16.094  0.00  0.00    +0.000 HD
BRANCH  18  22
ATOM     22  O   UNL     1       5.429   3.936  13.828  0.00  0.00    +0.000 OA
BRANCH  22  24
ATOM     23  C   UNL     1       4.559   3.262  11.695  0.00  0.00    +0.000 C 
ATOM     24  C   UNL     1       5.810   3.420  12.542  0.00  0.00    +0.000 C 
ENDBRANCH  22  24
ENDBRANCH  18  22
ENDBRANCH   1  20
BRANCH   3  25
ATOM     25  N   UNL     1       8.350   5.219  20.091  0.00  0.00    +0.000 N 
ATOM     26  H   UNL     1       9.360   5.278  20.205  0.00  0.00    +0.000 HD
ATOM     27  H   UNL     1       7.985   4.303  20.303  0.00  0.00    +0.000 HD
ENDBRANCH   3  25
TORSDOF 5
ENDMDL
MODEL 4
REMARK VINA RESULT:      -7.9      5.927      6.577
REMARK  Name = 
REMARK  6 active torsions:
REMARK  status: ('A' for Active; 'I' for Inactive)
REMARK    1  A    between atoms: C_1  and  C_2
REMARK    2  A    between atoms: C_2  and  O_3
REMARK    3  A    between atoms: O_3  and  C_4
REMARK    4  A    between atoms: N_6  and  C_7
REMARK    5  A    between atoms: C_9  and  N_10
REMARK    6  A    between atoms: C_13  and  C_14
REMARK                            x       y       z     vdW  Elec       q    Type
REMARK                         _______ _______ _______ _____ _____    ______ ____
ROOT
ATOM      1  C   UNL     1       6.805   5.582  16.704  0.00  0.00    +0.000 A 
ATOM      2  C   UNL     1       7.265   5.046  17.914  0.00  0.00    +0.000 A 
ATOM      3  C   UNL     1       7.901   5.816  18.896  0.00  0.00    +0.000 A 
ATOM      4  C   UNL     1       8.108   7.151  18.564  0.00  0.00    +0.000 A 
ATOM      5  N   UNL     1       8.691   8.186  19.240  0.00  0.00    +0.000 N 
ATOM      6  C   UNL     1       8.639   9.320  18.466  0.00  0.00    +0.000 A 
ATOM      7  N   UNL     1       8.038   9.054  17.319  0.00  0.00    +0.000 NA
ATOM      8  C   UNL     1       7.715   7.719  17.360  0.00  0.00    +0.000 A 
ATOM      9  C   UNL     1       7.069   6.923  16.395  0.00  0.00    +0.000 A 
ATOM     10  H   UNL     1       9.071   8.131  20.171  0.00  0.00    +0.000 HD
ENDROOT
BRANCH   6  11
ATOM     11  C   UNL     1       9.157  10.614  18.908  0.00  0.00    +0.000 A 
ATOM     12  C   UNL     1       9.390  11.660  18.000  0.00  0.00    +0.000 A 
ATOM     13  C   UNL     1       9.877  12.893  18.443  0.00  0.00    +0.000 A 
ATOM     14  C   UNL     1      10.137  13.086  19.798  0.00  0.00    +0.000 A 
ATOM     15 BR   UNL     1      10.779  14.760  20.397  0.00  0.00    +0.000 Br
ATOM     16  C   UNL     1       9.916  12.059  20.713  0.00  0.00    +0.000 A 
ATOM     17  C   UNL     1       9.422  10.829  20.266  0.00  0.00    +0.000 A 
ENDBRANCH   6  11
BRANCH   1  20
ATOM     18  C   UNL     1       6.376   4.680  14.440  0.00  0.00    +0.000 C 
ATOM     19  O   UNL     1       7.343   5.129  13.846  0.00  0.00    +0.000 OA
ATOM     20  N   UNL     1       6.085   4.811  15.769  0.00  0.00    +0.000 N 
ATOM     21  H   UNL     1       5.303   4.257  16.092  0.00  0.00    +0.000 HD
BRANCH  18  22
ATOM     22  O   UNL     1       5.389   3.969  13.831  0.00  0.00    +0.000 OA
BRANCH  22  24
ATOM     23  C   UNL     1       4.558   3.361  11.663  0.00  0.00    +0.000 C 
ATOM     24  C   UNL     1       5.777   3.401  12.569  0.00  0.00    +0.000 C 
ENDBRANCH  22  24
ENDBRANCH  18  22
ENDBRANCH   1  20
BRANCH   3  25
ATOM     25  N   UNL     1       8.355   5.218  20.073  0.00  0.00    +0.000 N 
ATOM     26  H   UNL     1       9.196   4.661  19.934  0.00  0.00    +0.000 HD
ATOM     27  H   UNL     1       7.661   4.748  20.633  0.00  0.00    +0.000 HD
ENDBRANCH   3  25
TORSDOF 5
ENDMDL
MODEL 5
REMARK VINA RESULT:      -7.7      5.902      7.070
REMARK  Name = 
REMARK  6 active torsions:
REMARK  status: ('A' for Active; 'I' for Inactive)
REMARK    1  A    between atoms: C_1  and  C_2
REMARK    2  A    between atoms: C_2  and  O_3
REMARK    3  A    between atoms: O_3  and  C_4
REMARK    4  A    between atoms: N_6  and  C_7
REMARK    5  A    between atoms: C_9  and  N_10
REMARK    6  A    between atoms: C_13  and  C_14
REMARK                            x       y       z     vdW  Elec       q    Type
REMARK                         _______ _______ _______ _____ _____    ______ ____
ROOT
ATOM      1  C   UNL     1       6.025   5.380  17.561  0.00  0.00    +0.000 A 
ATOM      2  C   UNL     1       6.876   4.932  18.579  0.00  0.00    +0.000 A 
ATOM      3  C   UNL     1       7.826   5.757  19.196  0.00  0.00    +0.000 A 
ATOM      4  C   UNL     1       7.917   7.046  18.684  0.00  0.00    +0.000 A 
ATOM      5  N   UNL     1       8.712   8.110  19.008  0.00  0.00    +0.000 N 
ATOM      6  C   UNL     1       8.402   9.173  18.195  0.00  0.00    +0.000 A 
ATOM      7  N   UNL     1       7.433   8.835  17.363  0.00  0.00    +0.000 NA
ATOM      8  C   UNL     1       7.130   7.523  17.644  0.00  0.00    +0.000 A 
ATOM      9  C   UNL     1       6.177   6.676  17.050  0.00  0.00    +0.000 A 
ATOM     10  H   UNL     1       9.395   8.120  19.748  0.00  0.00    +0.000 HD
ENDROOT
BRANCH   6  11
ATOM     11  C   UNL     1       9.056  10.477  18.299  0.00  0.00    +0.000 A 
ATOM     12  C   UNL     1      10.230  10.651  19.049  0.00  0.00    +0.000 A 
ATOM     13  C   UNL     1      10.846  11.903  19.130  0.00  0.00    +0.000 A 
ATOM     14  C   UNL     1      10.288  12.991  18.461  0.00  0.00    +0.000 A 
ATOM     15 BR   UNL     1      11.132  14.679  18.557  0.00  0.00    +0.000 Br
ATOM     16  C   UNL     1       9.121  12.838  17.716  0.00  0.00    +0.000 A 
ATOM     17  C   UNL     1       8.512  11.582  17.633  0.00  0.00    +0.000 A 
ENDBRANCH   6  11
BRANCH   1  20
ATOM     18  C   UNL     1       3.714   4.504  17.438  0.00  0.00    +0.000 C 
ATOM     19  O   UNL     1       3.179   5.194  18.292  0.00  0.00    +0.000 OA
ATOM     20  N   UNL     1       5.012   4.563  17.016  0.00  0.00    +0.000 N 
ATOM     21  H   UNL     1       5.227   3.994  16.209  0.00  0.00    +0.000 HD
BRANCH  18  22
ATOM     22  O   UNL     1       3.068   3.512  16.767  0.00  0.00    +0.000 OA
BRANCH  22  24
ATOM     23  C   UNL     1       3.472   1.684  18.269  0.00  0.00    +0.000 C 
ATOM     24  C   UNL     1       2.414   2.562  17.624  0.00  0.00    +0.000 C 
ENDBRANCH  22  24
ENDBRANCH  18  22
ENDBRANCH   1  20
BRANCH   3  25
ATOM     25  N   UNL     1       8.660   5.244  20.191  0.00  0.00    +0.000 N 
ATOM     26  H   UNL     1       8.687   5.830  21.024  0.00  0.00    +0.000 HD
ATOM     27  H   UNL     1       9.575   4.939  19.897  0.00  0.00    +0.000 HD
ENDBRANCH   3  25
TORSDOF 5
ENDMDL
MODEL 6
REMARK VINA RESULT:      -7.7      5.901      7.018
REMARK  Name = 
REMARK  6 active torsions:
REMARK  status: ('A' for Active; 'I' for Inactive)
REMARK    1  A    between atoms: C_1  and  C_2
REMARK    2  A    between atoms: C_2  and  O_3
REMARK    3  A    between atoms: O_3  and  C_4
REMARK    4  A    between atoms: N_6  and  C_7
REMARK    5  A    between atoms: C_9  and  N_10
REMARK    6  A    between atoms: C_13  and  C_14
REMARK                            x       y       z     vdW  Elec       q    Type
REMARK                         _______ _______ _______ _____ _____    ______ ____
ROOT
ATOM      1  C   UNL     1       6.006   5.379  17.558  0.00  0.00    +0.000 A 
ATOM      2  C   UNL     1       6.847   4.942  18.590  0.00  0.00    +0.000 A 
ATOM      3  C   UNL     1       7.795   5.772  19.203  0.00  0.00    +0.000 A 
ATOM      4  C   UNL     1       7.894   7.054  18.675  0.00  0.00    +0.000 A 
ATOM      5  N   UNL     1       8.690   8.119  18.991  0.00  0.00    +0.000 N 
ATOM      6  C   UNL     1       8.390   9.172  18.161  0.00  0.00    +0.000 A 
ATOM      7  N   UNL     1       7.426   8.826  17.325  0.00  0.00    +0.000 NA
ATOM      8  C   UNL     1       7.117   7.519  17.622  0.00  0.00    +0.000 A 
ATOM      9  C   UNL     1       6.166   6.667  17.031  0.00  0.00    +0.000 A 
ATOM     10  H   UNL     1       9.367   8.137  19.736  0.00  0.00    +0.000 HD
ENDROOT
BRANCH   6  11
ATOM     11  C   UNL     1       9.048  10.475  18.252  0.00  0.00    +0.000 A 
ATOM     12  C   UNL     1       8.497  11.619  17.653  0.00  0.00    +0.000 A 
ATOM     13  C   UNL     1       9.137  12.858  17.759  0.00  0.00    +0.000 A 
ATOM     14  C   UNL     1      10.333  12.958  18.464  0.00  0.00    +0.000 A 
ATOM     15 BR   UNL     1      11.187  14.637  18.621  0.00  0.00    +0.000 Br
ATOM     16  C   UNL     1      10.897  11.834  19.062  0.00  0.00    +0.000 A 
ATOM     17  C   UNL     1      10.251  10.597  18.959  0.00  0.00    +0.000 A 
ENDBRANCH   6  11
BRANCH   1  20
ATOM     18  C   UNL     1       3.729   4.411  17.508  0.00  0.00    +0.000 C 
ATOM     19  O   UNL     1       3.221   5.016  18.440  0.00  0.00    +0.000 OA
ATOM     20  N   UNL     1       4.995   4.558  17.017  0.00  0.00    +0.000 N 
ATOM     21  H   UNL     1       5.182   4.056  16.159  0.00  0.00    +0.000 HD
BRANCH  18  22
ATOM     22  O   UNL     1       3.083   3.441  16.807  0.00  0.00    +0.000 OA
BRANCH  22  24
ATOM     23  C   UNL     1       3.505   1.593  18.279  0.00  0.00    +0.000 C 
ATOM     24  C   UNL     1       2.437   2.459  17.634  0.00  0.00    +0.000 C 
ENDBRANCH  22  24
ENDBRANCH  18  22
ENDBRANCH   1  20
BRANCH   3  25
ATOM     25  N   UNL     1       8.619   5.270  20.212  0.00  0.00    +0.000 N 
ATOM     26  H   UNL     1       9.544   5.695  20.214  0.00  0.00    +0.000 HD
ATOM     27  H   UNL     1       8.648   4.267  20.310  0.00  0.00    +0.000 HD
ENDBRANCH   3  25
TORSDOF 5
ENDMDL
MODEL 7
REMARK VINA RESULT:      -7.6      1.327      1.672
REMARK  Name = 
REMARK  6 active torsions:
REMARK  status: ('A' for Active; 'I' for Inactive)
REMARK    1  A    between atoms: C_1  and  C_2
REMARK    2  A    between atoms: C_2  and  O_3
REMARK    3  A    between atoms: O_3  and  C_4
REMARK    4  A    between atoms: N_6  and  C_7
REMARK    5  A    between atoms: C_9  and  N_10
REMARK    6  A    between atoms: C_13  and  C_14
REMARK                            x       y       z     vdW  Elec       q    Type
REMARK                         _______ _______ _______ _____ _____    ______ ____
ROOT
ATOM      1  C   UNL     1       3.766   6.107  17.799  0.00  0.00    +0.000 A 
ATOM      2  C   UNL     1       3.619   5.250  18.898  0.00  0.00    +0.000 A 
ATOM      3  C   UNL     1       2.831   5.567  20.011  0.00  0.00    +0.000 A 
ATOM      4  C   UNL     1       2.245   6.828  19.986  0.00  0.00    +0.000 A 
ATOM      5  N   UNL     1       1.438   7.484  20.873  0.00  0.00    +0.000 N 
ATOM      6  C   UNL     1       1.124   8.724  20.370  0.00  0.00    +0.000 A 
ATOM      7  N   UNL     1       1.695   8.888  19.190  0.00  0.00    +0.000 NA
ATOM      8  C   UNL     1       2.399   7.732  18.944  0.00  0.00    +0.000 A 
ATOM      9  C   UNL     1       3.189   7.383  17.833  0.00  0.00    +0.000 A 
ATOM     10  H   UNL     1       1.103   7.105  21.744  0.00  0.00    +0.000 HD
ENDROOT
BRANCH   6  11
ATOM     11  C   UNL     1       0.254   9.672  21.065  0.00  0.00    +0.000 A 
ATOM     12  C   UNL     1      -0.297  10.782  20.405  0.00  0.00    +0.000 A 
ATOM     13  C   UNL     1      -1.133  11.672  21.085  0.00  0.00    +0.000 A 
ATOM     14  C   UNL     1      -1.421  11.458  22.431  0.00  0.00    +0.000 A 
ATOM     15 BR   UNL     1      -2.567  12.654  23.342  0.00  0.00    +0.000 Br
ATOM     16  C   UNL     1      -0.881  10.365  23.103  0.00  0.00    +0.000 A 
ATOM     17  C   UNL     1      -0.049   9.473  22.418  0.00  0.00    +0.000 A 
ENDBRANCH   6  11
BRANCH   1  20
ATOM     18  C   UNL     1       5.670   6.274  16.227  0.00  0.00    +0.000 C 
ATOM     19  O   UNL     1       6.349   7.109  16.804  0.00  0.00    +0.000 OA
ATOM     20  N   UNL     1       4.488   5.732  16.647  0.00  0.00    +0.000 N 
ATOM     21  H   UNL     1       4.148   4.962  16.087  0.00  0.00    +0.000 HD
BRANCH  18  22
ATOM     22  O   UNL     1       5.996   5.755  15.013  0.00  0.00    +0.000 OA
BRANCH  22  24
ATOM     23  C   UNL     1       6.133   3.847  13.564  0.00  0.00    +0.000 C 
ATOM     24  C   UNL     1       6.117   4.323  15.006  0.00  0.00    +0.000 C 
ENDBRANCH  22  24
ENDBRANCH  18  22
ENDBRANCH   1  20
BRANCH   3  25
ATOM     25  N   UNL     1       2.742   4.679  21.085  0.00  0.00    +0.000 N 
ATOM     26  H   UNL     1       2.614   5.151  21.978  0.00  0.00    +0.000 HD
ATOM     27  H   UNL     1       3.438   3.950  21.123  0.00  0.00    +0.000 HD
ENDBRANCH   3  25
TORSDOF 5
ENDMDL
MODEL 8
REMARK VINA RESULT:      -7.5      1.096      1.293
REMARK  Name = 
REMARK  6 active torsions:
REMARK  status: ('A' for Active; 'I' for Inactive)
REMARK    1  A    between atoms: C_1  and  C_2
REMARK    2  A    between atoms: C_2  and  O_3
REMARK    3  A    between atoms: O_3  and  C_4
REMARK    4  A    between atoms: N_6  and  C_7
REMARK    5  A    between atoms: C_9  and  N_10
REMARK    6  A    between atoms: C_13  and  C_14
REMARK                            x       y       z     vdW  Elec       q    Type
REMARK                         _______ _______ _______ _____ _____    ______ ____
ROOT
ATOM      1  C   UNL     1       3.956   5.001  18.305  0.00  0.00    +0.000 A 
ATOM      2  C   UNL     1       3.543   4.184  19.365  0.00  0.00    +0.000 A 
ATOM      3  C   UNL     1       2.666   4.621  20.366  0.00  0.00    +0.000 A 
ATOM      4  C   UNL     1       2.274   5.953  20.275  0.00  0.00    +0.000 A 
ATOM      5  N   UNL     1       1.458   6.726  21.053  0.00  0.00    +0.000 N 
ATOM      6  C   UNL     1       1.394   7.992  20.524  0.00  0.00    +0.000 A 
ATOM      7  N   UNL     1       2.136   8.062  19.432  0.00  0.00    +0.000 NA
ATOM      8  C   UNL     1       2.694   6.816  19.272  0.00  0.00    +0.000 A 
ATOM      9  C   UNL     1       3.568   6.347  18.273  0.00  0.00    +0.000 A 
ATOM     10  H   UNL     1       0.958   6.406  21.867  0.00  0.00    +0.000 HD
ENDROOT
BRANCH   6  11
ATOM     11  C   UNL     1       0.583   9.061  21.106  0.00  0.00    +0.000 A 
ATOM     12  C   UNL     1       0.127  10.140  20.331  0.00  0.00    +0.000 A 
ATOM     13  C   UNL     1      -0.655  11.148  20.904  0.00  0.00    +0.000 A 
ATOM     14  C   UNL     1      -0.982  11.083  22.256  0.00  0.00    +0.000 A 
ATOM     15 BR   UNL     1      -2.054  12.438  23.023  0.00  0.00    +0.000 Br
ATOM     16  C   UNL     1      -0.535  10.023  23.041  0.00  0.00    +0.000 A 
ATOM     17  C   UNL     1       0.241   9.013  22.463  0.00  0.00    +0.000 A 
ENDBRANCH   6  11
BRANCH   1  20
ATOM     18  C   UNL     1       6.120   4.352  17.296  0.00  0.00    +0.000 C 
ATOM     19  O   UNL     1       6.859   4.513  18.256  0.00  0.00    +0.000 OA
ATOM     20  N   UNL     1       4.765   4.516  17.256  0.00  0.00    +0.000 N 
ATOM     21  H   UNL     1       4.322   4.209  16.400  0.00  0.00    +0.000 HD
BRANCH  18  22
ATOM     22  O   UNL     1       6.567   3.992  16.063  0.00  0.00    +0.000 OA
BRANCH  22  24
ATOM     23  C   UNL     1       5.942   3.953  13.746  0.00  0.00    +0.000 C 
ATOM     24  C   UNL     1       6.051   4.807  14.998  0.00  0.00    +0.000 C 
ENDBRANCH  22  24
ENDBRANCH  18  22
ENDBRANCH   1  20
BRANCH   3  25
ATOM     25  N   UNL     1       2.309   3.765  21.410  0.00  0.00    +0.000 N 
ATOM     26  H   UNL     1       3.068   3.149  21.692  0.00  0.00    +0.000 HD
ATOM     27  H   UNL     1       1.428   3.284  21.313  0.00  0.00    +0.000 HD
ENDBRANCH   3  25
TORSDOF 5
ENDMDL
MODEL 9
REMARK VINA RESULT:      -7.5      0.964      1.436
REMARK  Name = 
REMARK  6 active torsions:
REMARK  status: ('A' for Active; 'I' for Inactive)
REMARK    1  A    between atoms: C_1  and  C_2
REMARK    2  A    between atoms: C_2  and  O_3
REMARK    3  A    between atoms: O_3  and  C_4
REMARK    4  A    between atoms: N_6  and  C_7
REMARK    5  A    between atoms: C_9  and  N_10
REMARK    6  A    between atoms: C_13  and  C_14
REMARK                            x       y       z     vdW  Elec       q    Type
REMARK                         _______ _______ _______ _____ _____    ______ ____
ROOT
ATOM      1  C   UNL     1       4.123   5.666  17.491  0.00  0.00    +0.000 A 
ATOM      2  C   UNL     1       3.914   4.752  18.532  0.00  0.00    +0.000 A 
ATOM      3  C   UNL     1       3.111   5.034  19.644  0.00  0.00    +0.000 A 
ATOM      4  C   UNL     1       2.578   6.317  19.683  0.00  0.00    +0.000 A 
ATOM      5  N   UNL     1       1.776   6.952  20.590  0.00  0.00    +0.000 N 
ATOM      6  C   UNL     1       1.525   8.231  20.157  0.00  0.00    +0.000 A 
ATOM      7  N   UNL     1       2.132   8.443  19.002  0.00  0.00    +0.000 NA
ATOM      8  C   UNL     1       2.794   7.276  18.702  0.00  0.00    +0.000 A 
ATOM      9  C   UNL     1       3.598   6.961  17.590  0.00  0.00    +0.000 A 
ATOM     10  H   UNL     1       1.403   6.535  21.427  0.00  0.00    +0.000 HD
ENDROOT
BRANCH   6  11
ATOM     11  C   UNL     1       0.676   9.171  20.888  0.00  0.00    +0.000 A 
ATOM     12  C   UNL     1       0.455   9.040  22.269  0.00  0.00    +0.000 A 
ATOM     13  C   UNL     1      -0.352   9.953  22.952  0.00  0.00    +0.000 A 
ATOM     14  C   UNL     1      -0.947  11.004  22.256  0.00  0.00    +0.000 A 
ATOM     15 BR   UNL     1      -2.024  12.248  23.186  0.00  0.00    +0.000 Br
ATOM     16  C   UNL     1      -0.743  11.148  20.886  0.00  0.00    +0.000 A 
ATOM     17  C   UNL     1       0.071  10.235  20.207  0.00  0.00    +0.000 A 
ENDBRANCH   6  11
BRANCH   1  20
ATOM     18  C   UNL     1       6.090   5.819  15.997  0.00  0.00    +0.000 C 
ATOM     19  O   UNL     1       6.804   6.556  16.659  0.00  0.00    +0.000 OA
ATOM     20  N   UNL     1       4.859   5.332  16.336  0.00  0.00    +0.000 N 
ATOM     21  H   UNL     1       4.487   4.634  15.706  0.00  0.00    +0.000 HD
BRANCH  18  22
ATOM     22  O   UNL     1       6.423   5.375  14.755  0.00  0.00    +0.000 OA
BRANCH  22  24
ATOM     23  C   UNL     1       6.261   3.716  13.028  0.00  0.00    +0.000 C 
ATOM     24  C   UNL     1       5.653   4.244  14.316  0.00  0.00    +0.000 C 
ENDBRANCH  22  24
ENDBRANCH  18  22
ENDBRANCH   1  20
BRANCH   3  25
ATOM     25  N   UNL     1       2.959   4.087  20.659  0.00  0.00    +0.000 N 
ATOM     26  H   UNL     1       3.493   4.316  21.495  0.00  0.00    +0.000 HD
ATOM     27  H   UNL     1       3.052   3.120  20.387  0.00  0.00    +0.000 HD
ENDBRANCH   3  25
TORSDOF 5
ENDMDL
