MODEL 1
REMARK VINA RESULT:      -7.2      0.000      0.000
REMARK  Name = 
REMARK  7 active torsions:
REMARK  status: ('A' for Active; 'I' for Inactive)
REMARK    1  A    between atoms: C_1  and  C_2
REMARK    2  A    between atoms: C_2  and  C_3
REMARK    3  A    between atoms: C_3  and  C_4
REMARK    4  A    between atoms: N_6  and  C_7
REMARK    5  A    between atoms: N_6  and  C_15
REMARK    6  A    between atoms: C_10  and  O_11
REMARK    7  A    between atoms: O_11  and  C_12
REMARK                            x       y       z     vdW  Elec       q    Type
REMARK                         _______ _______ _______ _____ _____    ______ ____
ROOT
ATOM      1  C   UNL     1       4.958   5.625  16.985  0.00  0.00    +0.000 C 
ATOM      2  O   UNL     1       5.469   4.691  16.358  0.00  0.00    +0.000 OA
ATOM      3  N   UNL     1       3.687   5.496  17.560  0.00  0.00    +0.000 N 
ENDROOT
BRANCH   3   4
ATOM      4  C   UNL     1       3.027   4.175  17.466  0.00  0.00    +0.000 C 
ATOM      5  C   UNL     1       3.592   3.176  18.445  0.00  0.00    +0.000 C 
ATOM      6  C   UNL     1       2.728   2.617  19.295  0.00  0.00    +0.000 C 
ATOM      7  S   UNL     1       1.116   3.171  19.012  0.00  0.00    +0.000 S 
ATOM      8  O   UNL     1       0.311   2.057  18.560  0.00  0.00    +0.000 OA
ATOM      9  O   UNL     1       0.701   4.012  20.118  0.00  0.00    +0.000 OA
ATOM     10  C   UNL     1       1.505   4.215  17.611  0.00  0.00    +0.000 C 
ENDBRANCH   3   4
BRANCH   3  11
ATOM     11  C   UNL     1       3.035   6.553  18.250  0.00  0.00    +0.000 A 
ATOM     12  C   UNL     1       2.553   7.668  17.557  0.00  0.00    +0.000 A 
ATOM     13  C   UNL     1       1.823   8.651  18.231  0.00  0.00    +0.000 A 
ATOM     14  C   UNL     1       1.550   8.520  19.593  0.00  0.00    +0.000 A 
ATOM     15  C   UNL     1       2.053   7.425  20.294  0.00  0.00    +0.000 A 
ATOM     16  C   UNL     1       2.790   6.443  19.624  0.00  0.00    +0.000 A 
BRANCH  14  17
ATOM     17  O   UNL     1       0.817   9.534  20.145  0.00  0.00    +0.000 OA
ATOM     18  C   UNL     1       0.069  10.320  19.221  0.00  0.00    +0.000 C 
ENDBRANCH  14  17
ENDBRANCH   3  11
BRANCH   1  19
ATOM     19  C   UNL     1       5.712   6.938  17.183  0.00  0.00    +0.000 C 
BRANCH  19  21
ATOM     20  C   UNL     1       7.900   8.071  17.693  0.00  0.00    +0.000 C 
ATOM     21  C   UNL     1       7.177   6.737  17.570  0.00  0.00    +0.000 C 
ENDBRANCH  19  21
ENDBRANCH   1  19
TORSDOF 5
ENDMDL
MODEL 2
REMARK VINA RESULT:      -7.1      0.531      1.199
REMARK  Name = 
REMARK  7 active torsions:
REMARK  status: ('A' for Active; 'I' for Inactive)
REMARK    1  A    between atoms: C_1  and  C_2
REMARK    2  A    between atoms: C_2  and  C_3
REMARK    3  A    between atoms: C_3  and  C_4
REMARK    4  A    between atoms: N_6  and  C_7
REMARK    5  A    between atoms: N_6  and  C_15
REMARK    6  A    between atoms: C_10  and  O_11
REMARK    7  A    between atoms: O_11  and  C_12
REMARK                            x       y       z     vdW  Elec       q    Type
REMARK                         _______ _______ _______ _____ _____    ______ ____
ROOT
ATOM      1  C   UNL     1       4.909   5.576  17.157  0.00  0.00    +0.000 C 
ATOM      2  O   UNL     1       5.489   4.622  16.626  0.00  0.00    +0.000 OA
ATOM      3  N   UNL     1       3.604   5.439  17.649  0.00  0.00    +0.000 N 
ENDROOT
BRANCH   3   4
ATOM      4  C   UNL     1       2.990   4.095  17.591  0.00  0.00    +0.000 C 
ATOM      5  C   UNL     1       3.557   3.155  18.626  0.00  0.00    +0.000 C 
ATOM      6  C   UNL     1       2.687   2.603  19.474  0.00  0.00    +0.000 C 
ATOM      7  S   UNL     1       1.067   3.091  19.123  0.00  0.00    +0.000 S 
ATOM      8  O   UNL     1       0.312   1.934  18.694  0.00  0.00    +0.000 OA
ATOM      9  O   UNL     1       0.593   3.962  20.181  0.00  0.00    +0.000 OA
ATOM     10  C   UNL     1       1.464   4.090  17.691  0.00  0.00    +0.000 C 
ENDBRANCH   3   4
BRANCH   3  11
ATOM     11  C   UNL     1       2.875   6.514  18.226  0.00  0.00    +0.000 A 
ATOM     12  C   UNL     1       2.637   6.557  19.603  0.00  0.00    +0.000 A 
ATOM     13  C   UNL     1       2.010   7.669  20.172  0.00  0.00    +0.000 A 
ATOM     14  C   UNL     1       1.637   8.754  19.378  0.00  0.00    +0.000 A 
ATOM     15  C   UNL     1       1.847   8.703  18.001  0.00  0.00    +0.000 A 
ATOM     16  C   UNL     1       2.466   7.588  17.427  0.00  0.00    +0.000 A 
BRANCH  14  17
ATOM     17  O   UNL     1       1.044   9.792  20.043  0.00  0.00    +0.000 OA
ATOM     18  C   UNL     1       0.908   9.616  21.451  0.00  0.00    +0.000 C 
ENDBRANCH  14  17
ENDBRANCH   3  11
BRANCH   1  19
ATOM     19  C   UNL     1       5.610   6.921  17.325  0.00  0.00    +0.000 C 
BRANCH  19  21
ATOM     20  C   UNL     1       7.780   8.160  17.623  0.00  0.00    +0.000 C 
ATOM     21  C   UNL     1       7.121   6.791  17.519  0.00  0.00    +0.000 C 
ENDBRANCH  19  21
ENDBRANCH   1  19
TORSDOF 5
ENDMDL
MODEL 3
REMARK VINA RESULT:      -7.1      2.268      4.472
REMARK  Name = 
REMARK  7 active torsions:
REMARK  status: ('A' for Active; 'I' for Inactive)
REMARK    1  A    between atoms: C_1  and  C_2
REMARK    2  A    between atoms: C_2  and  C_3
REMARK    3  A    between atoms: C_3  and  C_4
REMARK    4  A    between atoms: N_6  and  C_7
REMARK    5  A    between atoms: N_6  and  C_15
REMARK    6  A    between atoms: C_10  and  O_11
REMARK    7  A    between atoms: O_11  and  C_12
REMARK                            x       y       z     vdW  Elec       q    Type
REMARK                         _______ _______ _______ _____ _____    ______ ____
ROOT
ATOM      1  C   UNL     1       3.088   4.587  17.552  0.00  0.00    +0.000 C 
ATOM      2  O   UNL     1       3.842   3.730  17.080  0.00  0.00    +0.000 OA
ATOM      3  N   UNL     1       3.557   5.875  17.844  0.00  0.00    +0.000 N 
ENDROOT
BRANCH   3   4
ATOM      4  C   UNL     1       4.956   6.191  17.482  0.00  0.00    +0.000 C 
ATOM      5  C   UNL     1       5.951   5.315  18.201  0.00  0.00    +0.000 C 
ATOM      6  C   UNL     1       6.790   4.611  17.437  0.00  0.00    +0.000 C 
ATOM      7  S   UNL     1       6.538   4.935  15.759  0.00  0.00    +0.000 S 
ATOM      8  O   UNL     1       7.714   5.588  15.227  0.00  0.00    +0.000 OA
ATOM      9  O   UNL     1       5.967   3.760  15.128  0.00  0.00    +0.000 OA
ATOM     10  C   UNL     1       5.245   6.153  15.981  0.00  0.00    +0.000 C 
ENDBRANCH   3   4
BRANCH   3  11
ATOM     11  C   UNL     1       2.744   6.883  18.430  0.00  0.00    +0.000 A 
ATOM     12  C   UNL     1       2.408   6.831  19.787  0.00  0.00    +0.000 A 
ATOM     13  C   UNL     1       1.697   7.880  20.374  0.00  0.00    +0.000 A 
ATOM     14  C   UNL     1       1.333   8.997  19.621  0.00  0.00    +0.000 A 
ATOM     15  C   UNL     1       1.640   9.040  18.262  0.00  0.00    +0.000 A 
ATOM     16  C   UNL     1       2.346   7.987  17.669  0.00  0.00    +0.000 A 
BRANCH  14  17
ATOM     17  O   UNL     1       0.652   9.968  20.302  0.00  0.00    +0.000 OA
ATOM     18  C   UNL     1       0.245  11.089  19.521  0.00  0.00    +0.000 C 
ENDBRANCH  14  17
ENDBRANCH   3  11
BRANCH   1  19
ATOM     19  C   UNL     1       1.612   4.281  17.797  0.00  0.00    +0.000 C 
BRANCH  19  21
ATOM     20  C   UNL     1       0.908   3.431  20.058  0.00  0.00    +0.000 C 
ATOM     21  C   UNL     1       1.392   3.044  18.668  0.00  0.00    +0.000 C 
ENDBRANCH  19  21
ENDBRANCH   1  19
TORSDOF 5
ENDMDL
MODEL 4
REMARK VINA RESULT:      -7.0      2.252      4.531
REMARK  Name = 
REMARK  7 active torsions:
REMARK  status: ('A' for Active; 'I' for Inactive)
REMARK    1  A    between atoms: C_1  and  C_2
REMARK    2  A    between atoms: C_2  and  C_3
REMARK    3  A    between atoms: C_3  and  C_4
REMARK    4  A    between atoms: N_6  and  C_7
REMARK    5  A    between atoms: N_6  and  C_15
REMARK    6  A    between atoms: C_10  and  O_11
REMARK    7  A    between atoms: O_11  and  C_12
REMARK                            x       y       z     vdW  Elec       q    Type
REMARK                         _______ _______ _______ _____ _____    ______ ____
ROOT
ATOM      1  C   UNL     1       2.603   3.211  18.846  0.00  0.00    +0.000 C 
ATOM      2  O   UNL     1       3.044   2.066  18.698  0.00  0.00    +0.000 OA
ATOM      3  N   UNL     1       3.394   4.330  18.555  0.00  0.00    +0.000 N 
ENDROOT
BRANCH   3   4
ATOM      4  C   UNL     1       4.735   4.087  17.981  0.00  0.00    +0.000 C 
ATOM      5  C   UNL     1       4.707   3.964  16.478  0.00  0.00    +0.000 C 
ATOM      6  C   UNL     1       5.483   4.808  15.794  0.00  0.00    +0.000 C 
ATOM      7  S   UNL     1       6.389   5.830  16.852  0.00  0.00    +0.000 S 
ATOM      8  O   UNL     1       7.795   5.525  16.706  0.00  0.00    +0.000 OA
ATOM      9  O   UNL     1       5.888   7.187  16.746  0.00  0.00    +0.000 OA
ATOM     10  C   UNL     1       5.793   5.116  18.381  0.00  0.00    +0.000 C 
ENDBRANCH   3   4
BRANCH   3  11
ATOM     11  C   UNL     1       2.952   5.666  18.752  0.00  0.00    +0.000 A 
ATOM     12  C   UNL     1       2.712   6.507  17.660  0.00  0.00    +0.000 A 
ATOM     13  C   UNL     1       2.179   7.783  17.861  0.00  0.00    +0.000 A 
ATOM     14  C   UNL     1       1.861   8.222  19.147  0.00  0.00    +0.000 A 
ATOM     15  C   UNL     1       2.126   7.399  20.240  0.00  0.00    +0.000 A 
ATOM     16  C   UNL     1       2.667   6.124  20.043  0.00  0.00    +0.000 A 
BRANCH  14  17
ATOM     17  O   UNL     1       1.334   9.481  19.223  0.00  0.00    +0.000 OA
ATOM     18  C   UNL     1       0.426   9.698  20.301  0.00  0.00    +0.000 C 
ENDBRANCH  14  17
ENDBRANCH   3  11
BRANCH   1  19
ATOM     19  C   UNL     1       1.168   3.440  19.316  0.00  0.00    +0.000 C 
BRANCH  19  21
ATOM     20  C   UNL     1       2.060   3.127  21.648  0.00  0.00    +0.000 C 
ATOM     21  C   UNL     1       0.892   2.867  20.706  0.00  0.00    +0.000 C 
ENDBRANCH  19  21
ENDBRANCH   1  19
TORSDOF 5
ENDMDL
MODEL 5
REMARK VINA RESULT:      -7.0      2.320      4.378
REMARK  Name = 
REMARK  7 active torsions:
REMARK  status: ('A' for Active; 'I' for Inactive)
REMARK    1  A    between atoms: C_1  and  C_2
REMARK    2  A    between atoms: C_2  and  C_3
REMARK    3  A    between atoms: C_3  and  C_4
REMARK    4  A    between atoms: N_6  and  C_7
REMARK    5  A    between atoms: N_6  and  C_15
REMARK    6  A    between atoms: C_10  and  O_11
REMARK    7  A    between atoms: O_11  and  C_12
REMARK                            x       y       z     vdW  Elec       q    Type
REMARK                         _______ _______ _______ _____ _____    ______ ____
ROOT
ATOM      1  C   UNL     1       3.159   4.631  17.520  0.00  0.00    +0.000 C 
ATOM      2  O   UNL     1       3.860   3.734  17.037  0.00  0.00    +0.000 OA
ATOM      3  N   UNL     1       3.700   5.893  17.800  0.00  0.00    +0.000 N 
ENDROOT
BRANCH   3   4
ATOM      4  C   UNL     1       5.106   6.135  17.411  0.00  0.00    +0.000 C 
ATOM      5  C   UNL     1       6.059   5.155  18.049  0.00  0.00    +0.000 C 
ATOM      6  C   UNL     1       6.826   4.441  17.222  0.00  0.00    +0.000 C 
ATOM      7  S   UNL     1       6.551   4.876  15.573  0.00  0.00    +0.000 S 
ATOM      8  O   UNL     1       7.753   5.478  15.041  0.00  0.00    +0.000 OA
ATOM      9  O   UNL     1       5.883   3.780  14.897  0.00  0.00    +0.000 OA
ATOM     10  C   UNL     1       5.351   6.163  15.902  0.00  0.00    +0.000 C 
ENDBRANCH   3   4
BRANCH   3  11
ATOM     11  C   UNL     1       2.951   6.943  18.398  0.00  0.00    +0.000 A 
ATOM     12  C   UNL     1       2.546   8.049  17.644  0.00  0.00    +0.000 A 
ATOM     13  C   UNL     1       1.723   9.023  18.216  0.00  0.00    +0.000 A 
ATOM     14  C   UNL     1       1.282   8.893  19.533  0.00  0.00    +0.000 A 
ATOM     15  C   UNL     1       1.708   7.807  20.297  0.00  0.00    +0.000 A 
ATOM     16  C   UNL     1       2.538   6.834  19.730  0.00  0.00    +0.000 A 
BRANCH  14  17
ATOM     17  O   UNL     1       0.472   9.898  19.983  0.00  0.00    +0.000 OA
ATOM     18  C   UNL     1      -0.165   9.655  21.234  0.00  0.00    +0.000 C 
ENDBRANCH  14  17
ENDBRANCH   3  11
BRANCH   1  19
ATOM     19  C   UNL     1       1.675   4.402  17.792  0.00  0.00    +0.000 C 
BRANCH  19  21
ATOM     20  C   UNL     1       0.901   3.516  20.017  0.00  0.00    +0.000 C 
ATOM     21  C   UNL     1       1.403   3.150  18.627  0.00  0.00    +0.000 C 
ENDBRANCH  19  21
ENDBRANCH   1  19
TORSDOF 5
ENDMDL
MODEL 6
REMARK VINA RESULT:      -7.0      2.046      4.406
REMARK  Name = 
REMARK  7 active torsions:
REMARK  status: ('A' for Active; 'I' for Inactive)
REMARK    1  A    between atoms: C_1  and  C_2
REMARK    2  A    between atoms: C_2  and  C_3
REMARK    3  A    between atoms: C_3  and  C_4
REMARK    4  A    between atoms: N_6  and  C_7
REMARK    5  A    between atoms: N_6  and  C_15
REMARK    6  A    between atoms: C_10  and  O_11
REMARK    7  A    between atoms: O_11  and  C_12
REMARK                            x       y       z     vdW  Elec       q    Type
REMARK                         _______ _______ _______ _____ _____    ______ ____
ROOT
ATOM      1  C   UNL     1       2.478   3.849  17.714  0.00  0.00    +0.000 C 
ATOM      2  O   UNL     1       2.941   2.803  17.246  0.00  0.00    +0.000 OA
ATOM      3  N   UNL     1       3.250   5.017  17.766  0.00  0.00    +0.000 N 
ENDROOT
BRANCH   3   4
ATOM      4  C   UNL     1       4.598   4.971  17.158  0.00  0.00    +0.000 C 
ATOM      5  C   UNL     1       5.194   6.344  16.971  0.00  0.00    +0.000 C 
ATOM      6  C   UNL     1       6.376   6.567  17.552  0.00  0.00    +0.000 C 
ATOM      7  S   UNL     1       6.958   5.155  18.360  0.00  0.00    +0.000 S 
ATOM      8  O   UNL     1       8.161   4.700  17.696  0.00  0.00    +0.000 OA
ATOM      9  O   UNL     1       6.914   5.374  19.793  0.00  0.00    +0.000 OA
ATOM     10  C   UNL     1       5.599   4.085  17.900  0.00  0.00    +0.000 C 
ENDBRANCH   3   4
BRANCH   3  11
ATOM     11  C   UNL     1       2.783   6.232  18.335  0.00  0.00    +0.000 A 
ATOM     12  C   UNL     1       2.403   7.303  17.520  0.00  0.00    +0.000 A 
ATOM     13  C   UNL     1       1.848   8.453  18.087  0.00  0.00    +0.000 A 
ATOM     14  C   UNL     1       1.649   8.537  19.465  0.00  0.00    +0.000 A 
ATOM     15  C   UNL     1       2.053   7.484  20.285  0.00  0.00    +0.000 A 
ATOM     16  C   UNL     1       2.616   6.335  19.721  0.00  0.00    +0.000 A 
BRANCH  14  17
ATOM     17  O   UNL     1       1.087   9.703  19.908  0.00  0.00    +0.000 OA
ATOM     18  C   UNL     1       0.478  10.507  18.901  0.00  0.00    +0.000 C 
ENDBRANCH  14  17
ENDBRANCH   3  11
BRANCH   1  19
ATOM     19  C   UNL     1       1.038   3.910  18.217  0.00  0.00    +0.000 C 
BRANCH  19  21
ATOM     20  C   UNL     1       1.124   3.191  20.626  0.00  0.00    +0.000 C 
ATOM     21  C   UNL     1       0.703   2.802  19.216  0.00  0.00    +0.000 C 
ENDBRANCH  19  21
ENDBRANCH   1  19
TORSDOF 5
ENDMDL
MODEL 7
REMARK VINA RESULT:      -6.9      2.335      4.724
REMARK  Name = 
REMARK  7 active torsions:
REMARK  status: ('A' for Active; 'I' for Inactive)
REMARK    1  A    between atoms: C_1  and  C_2
REMARK    2  A    between atoms: C_2  and  C_3
REMARK    3  A    between atoms: C_3  and  C_4
REMARK    4  A    between atoms: N_6  and  C_7
REMARK    5  A    between atoms: N_6  and  C_15
REMARK    6  A    between atoms: C_10  and  O_11
REMARK    7  A    between atoms: O_11  and  C_12
REMARK                            x       y       z     vdW  Elec       q    Type
REMARK                         _______ _______ _______ _____ _____    ______ ____
ROOT
ATOM      1  C   UNL     1       2.810   3.199  18.194  0.00  0.00    +0.000 C 
ATOM      2  O   UNL     1       3.387   2.126  17.987  0.00  0.00    +0.000 OA
ATOM      3  N   UNL     1       3.536   4.385  18.361  0.00  0.00    +0.000 N 
ENDROOT
BRANCH   3   4
ATOM      4  C   UNL     1       5.004   4.317  18.188  0.00  0.00    +0.000 C 
ATOM      5  C   UNL     1       5.413   4.279  16.738  0.00  0.00    +0.000 C 
ATOM      6  C   UNL     1       6.246   5.238  16.326  0.00  0.00    +0.000 C 
ATOM      7  S   UNL     1       6.692   6.286  17.624  0.00  0.00    +0.000 S 
ATOM      8  O   UNL     1       8.109   6.139  17.879  0.00  0.00    +0.000 OA
ATOM      9  O   UNL     1       6.087   7.587  17.413  0.00  0.00    +0.000 OA
ATOM     10  C   UNL     1       5.778   5.427  18.901  0.00  0.00    +0.000 C 
ENDBRANCH   3   4
BRANCH   3  11
ATOM     11  C   UNL     1       2.925   5.636  18.648  0.00  0.00    +0.000 A 
ATOM     12  C   UNL     1       2.533   5.958  19.951  0.00  0.00    +0.000 A 
ATOM     13  C   UNL     1       2.030   7.229  20.238  0.00  0.00    +0.000 A 
ATOM     14  C   UNL     1       1.933   8.195  19.235  0.00  0.00    +0.000 A 
ATOM     15  C   UNL     1       2.295   7.870  17.929  0.00  0.00    +0.000 A 
ATOM     16  C   UNL     1       2.792   6.595  17.637  0.00  0.00    +0.000 A 
BRANCH  14  17
ATOM     17  O   UNL     1       1.439   9.407  19.633  0.00  0.00    +0.000 OA
ATOM     18  C   UNL     1       0.542   9.367  20.740  0.00  0.00    +0.000 C 
ENDBRANCH  14  17
ENDBRANCH   3  11
BRANCH   1  19
ATOM     19  C   UNL     1       1.285   3.270  18.238  0.00  0.00    +0.000 C 
BRANCH  19  21
ATOM     20  C   UNL     1       1.196   2.808  20.710  0.00  0.00    +0.000 C 
ATOM     21  C   UNL     1       0.675   2.402  19.339  0.00  0.00    +0.000 C 
ENDBRANCH  19  21
ENDBRANCH   1  19
TORSDOF 5
ENDMDL
MODEL 8
REMARK VINA RESULT:      -6.8      3.221      5.680
REMARK  Name = 
REMARK  7 active torsions:
REMARK  status: ('A' for Active; 'I' for Inactive)
REMARK    1  A    between atoms: C_1  and  C_2
REMARK    2  A    between atoms: C_2  and  C_3
REMARK    3  A    between atoms: C_3  and  C_4
REMARK    4  A    between atoms: N_6  and  C_7
REMARK    5  A    between atoms: N_6  and  C_15
REMARK    6  A    between atoms: C_10  and  O_11
REMARK    7  A    between atoms: O_11  and  C_12
REMARK                            x       y       z     vdW  Elec       q    Type
REMARK                         _______ _______ _______ _____ _____    ______ ____
ROOT
ATOM      1  C   UNL     1       6.260   4.416  14.405  0.00  0.00    +0.000 C 
ATOM      2  O   UNL     1       7.361   4.561  13.864  0.00  0.00    +0.000 OA
ATOM      3  N   UNL     1       6.101   4.629  15.780  0.00  0.00    +0.000 N 
ENDROOT
BRANCH   3   4
ATOM      4  C   UNL     1       7.275   5.121  16.535  0.00  0.00    +0.000 C 
ATOM      5  C   UNL     1       7.221   6.607  16.783  0.00  0.00    +0.000 C 
ATOM      6  C   UNL     1       7.283   7.004  18.057  0.00  0.00    +0.000 C 
ATOM      7  S   UNL     1       7.463   5.660  19.127  0.00  0.00    +0.000 S 
ATOM      8  O   UNL     1       8.756   5.745  19.771  0.00  0.00    +0.000 OA
ATOM      9  O   UNL     1       6.241   5.494  19.891  0.00  0.00    +0.000 OA
ATOM     10  C   UNL     1       7.525   4.399  17.859  0.00  0.00    +0.000 C 
ENDBRANCH   3   4
BRANCH   3  11
ATOM     11  C   UNL     1       4.868   4.432  16.460  0.00  0.00    +0.000 A 
ATOM     12  C   UNL     1       4.415   3.143  16.757  0.00  0.00    +0.000 A 
ATOM     13  C   UNL     1       3.255   2.965  17.516  0.00  0.00    +0.000 A 
ATOM     14  C   UNL     1       2.551   4.067  18.002  0.00  0.00    +0.000 A 
ATOM     15  C   UNL     1       2.983   5.354  17.683  0.00  0.00    +0.000 A 
ATOM     16  C   UNL     1       4.140   5.536  16.917  0.00  0.00    +0.000 A 
BRANCH  14  17
ATOM     17  O   UNL     1       1.440   3.775  18.743  0.00  0.00    +0.000 OA
ATOM     18  C   UNL     1       1.001   2.420  18.675  0.00  0.00    +0.000 C 
ENDBRANCH  14  17
ENDBRANCH   3  11
BRANCH   1  19
ATOM     19  C   UNL     1       5.030   4.036  13.584  0.00  0.00    +0.000 C 
BRANCH  19  21
ATOM     20  C   UNL     1       4.137   3.260  11.363  0.00  0.00    +0.000 C 
ATOM     21  C   UNL     1       5.379   3.418  12.230  0.00  0.00    +0.000 C 
ENDBRANCH  19  21
ENDBRANCH   1  19
TORSDOF 5
ENDMDL
MODEL 9
REMARK VINA RESULT:      -6.8      2.105      4.923
REMARK  Name = 
REMARK  7 active torsions:
REMARK  status: ('A' for Active; 'I' for Inactive)
REMARK    1  A    between atoms: C_1  and  C_2
REMARK    2  A    between atoms: C_2  and  C_3
REMARK    3  A    between atoms: C_3  and  C_4
REMARK    4  A    between atoms: N_6  and  C_7
REMARK    5  A    between atoms: N_6  and  C_15
REMARK    6  A    between atoms: C_10  and  O_11
REMARK    7  A    between atoms: O_11  and  C_12
REMARK                            x       y       z     vdW  Elec       q    Type
REMARK                         _______ _______ _______ _____ _____    ______ ____
ROOT
ATOM      1  C   UNL     1       2.152   7.294  19.436  0.00  0.00    +0.000 C 
ATOM      2  O   UNL     1       1.232   7.718  20.143  0.00  0.00    +0.000 OA
ATOM      3  N   UNL     1       2.525   5.944  19.476  0.00  0.00    +0.000 N 
ENDROOT
BRANCH   3   4
ATOM      4  C   UNL     1       1.720   5.037  20.323  0.00  0.00    +0.000 C 
ATOM      5  C   UNL     1       1.079   3.925  19.532  0.00  0.00    +0.000 C 
ATOM      6  C   UNL     1       1.361   2.678  19.917  0.00  0.00    +0.000 C 
ATOM      7  S   UNL     1       2.390   2.664  21.304  0.00  0.00    +0.000 S 
ATOM      8  O   UNL     1       1.665   2.095  22.419  0.00  0.00    +0.000 OA
ATOM      9  O   UNL     1       3.701   2.176  20.919  0.00  0.00    +0.000 OA
ATOM     10  C   UNL     1       2.475   4.440  21.510  0.00  0.00    +0.000 C 
ENDBRANCH   3   4
BRANCH   3  11
ATOM     11  C   UNL     1       3.605   5.414  18.719  0.00  0.00    +0.000 A 
ATOM     12  C   UNL     1       3.411   4.984  17.403  0.00  0.00    +0.000 A 
ATOM     13  C   UNL     1       4.500   4.563  16.635  0.00  0.00    +0.000 A 
ATOM     14  C   UNL     1       5.791   4.586  17.165  0.00  0.00    +0.000 A 
ATOM     15  C   UNL     1       5.985   4.986  18.486  0.00  0.00    +0.000 A 
ATOM     16  C   UNL     1       4.896   5.401  19.259  0.00  0.00    +0.000 A 
BRANCH  14  17
ATOM     17  O   UNL     1       6.780   4.164  16.320  0.00  0.00    +0.000 OA
ATOM     18  C   UNL     1       6.396   4.018  14.955  0.00  0.00    +0.000 C 
ENDBRANCH  14  17
ENDBRANCH   3  11
BRANCH   1  19
ATOM     19  C   UNL     1       2.886   8.220  18.469  0.00  0.00    +0.000 C 
BRANCH  19  21
ATOM     20  C   UNL     1       1.626  10.377  18.168  0.00  0.00    +0.000 C 
ATOM     21  C   UNL     1       1.943   9.016  17.567  0.00  0.00    +0.000 C 
ENDBRANCH  19  21
ENDBRANCH   1  19
TORSDOF 5
ENDMDL
