MODEL 1
REMARK VINA RESULT:      -8.3      0.000      0.000
REMARK  Name = 
REMARK  3 active torsions:
REMARK  status: ('A' for Active; 'I' for Inactive)
REMARK    1  A    between atoms: C_2  and  C_21
REMARK    2  A    between atoms: N_3  and  C_4
REMARK    3  A    between atoms: N_12  and  C_13
REMARK                            x       y       z     vdW  Elec       q    Type
REMARK                         _______ _______ _______ _____ _____    ______ ____
ROOT
ATOM      1  C   UNL     1       6.239   6.922  16.986  0.00  0.00    +0.000 C 
ATOM      2  C   UNL     1       7.490   6.553  17.803  0.00  0.00    +0.000 C 
ATOM      3  C   UNL     1       7.359   5.623  19.024  0.00  0.00    +0.000 C 
ATOM      4  C   UNL     1       6.001   5.022  19.410  0.00  0.00    +0.000 C 
ATOM      5  C   UNL     1       4.859   5.625  18.688  0.00  0.00    +0.000 A 
ATOM      6  C   UNL     1       4.971   6.471  17.605  0.00  0.00    +0.000 A 
ATOM      7  C   UNL     1       3.651   6.705  17.198  0.00  0.00    +0.000 A 
ATOM      8  N   UNL     1       2.772   6.009  17.912  0.00  0.00    +0.000 NA
ATOM      9  N   UNL     1       3.506   5.322  18.824  0.00  0.00    +0.000 N 
ENDROOT
BRANCH   9  10
ATOM     10  C   UNL     1       2.861   4.430  19.724  0.00  0.00    +0.000 A 
ATOM     11  C   UNL     1       2.617   4.783  21.058  0.00  0.00    +0.000 A 
ATOM     12  C   UNL     1       2.010   3.878  21.932  0.00  0.00    +0.000 A 
ATOM     13  C   UNL     1       1.633   2.623  21.470  0.00  0.00    +0.000 A 
ATOM     14  F   UNL     1       1.058   1.758  22.315  0.00  0.00    +0.000 F 
ATOM     15  C   UNL     1       1.841   2.260  20.149  0.00  0.00    +0.000 A 
ATOM     16  C   UNL     1       2.447   3.164  19.280  0.00  0.00    +0.000 A 
ATOM     17  F   UNL     1       2.688   2.739  18.030  0.00  0.00    +0.000 F 
ENDBRANCH   9  10
BRANCH   1  20
ATOM     18  O   UNL     1       6.742   4.213  16.408  0.00  0.00    +0.000 OA
ATOM     19  C   UNL     1       6.568   4.984  15.467  0.00  0.00    +0.000 C 
ATOM     20  N   UNL     1       6.288   6.317  15.669  0.00  0.00    +0.000 N 
ATOM     21  H   UNL     1       6.090   6.890  14.859  0.00  0.00    +0.000 HD
BRANCH  19  22
ATOM     22  C   UNL     1       6.663   4.569  14.072  0.00  0.00    +0.000 A 
ATOM     23  C   UNL     1       5.874   3.633  13.427  0.00  0.00    +0.000 A 
ATOM     24  C   UNL     1       6.279   3.409  12.079  0.00  0.00    +0.000 A 
ATOM     25  C   UNL     1       7.354   4.192  11.728  0.00  0.00    +0.000 A 
ATOM     26  S   UNL     1       7.853   5.205  13.010  0.00  0.00    +0.000 S 
ENDBRANCH  19  22
ENDBRANCH   1  20
TORSDOF 3
ENDMDL
MODEL 2
REMARK VINA RESULT:      -8.1      3.101      4.395
REMARK  Name = 
REMARK  3 active torsions:
REMARK  status: ('A' for Active; 'I' for Inactive)
REMARK    1  A    between atoms: C_2  and  C_21
REMARK    2  A    between atoms: N_3  and  C_4
REMARK    3  A    between atoms: N_12  and  C_13
REMARK                            x       y       z     vdW  Elec       q    Type
REMARK                         _______ _______ _______ _____ _____    ______ ____
ROOT
ATOM      1  C   UNL     1       4.543   3.723  17.478  0.00  0.00    +0.000 C 
ATOM      2  C   UNL     1       3.364   2.759  17.701  0.00  0.00    +0.000 C 
ATOM      3  C   UNL     1       1.989   3.317  18.115  0.00  0.00    +0.000 C 
ATOM      4  C   UNL     1       1.767   4.828  18.263  0.00  0.00    +0.000 C 
ATOM      5  C   UNL     1       3.020   5.616  18.239  0.00  0.00    +0.000 A 
ATOM      6  C   UNL     1       4.256   5.118  17.886  0.00  0.00    +0.000 A 
ATOM      7  C   UNL     1       5.109   6.229  17.913  0.00  0.00    +0.000 A 
ATOM      8  N   UNL     1       4.460   7.356  18.186  0.00  0.00    +0.000 NA
ATOM      9  N   UNL     1       3.164   6.994  18.372  0.00  0.00    +0.000 N 
ENDROOT
BRANCH   9  10
ATOM     10  C   UNL     1       2.184   7.990  18.637  0.00  0.00    +0.000 A 
ATOM     11  C   UNL     1       1.730   8.858  17.634  0.00  0.00    +0.000 A 
ATOM     12  C   UNL     1       0.789   9.848  17.926  0.00  0.00    +0.000 A 
ATOM     13  C   UNL     1       0.290   9.965  19.217  0.00  0.00    +0.000 A 
ATOM     14  F   UNL     1      -0.606  10.921  19.491  0.00  0.00    +0.000 F 
ATOM     15  C   UNL     1       0.705   9.102  20.219  0.00  0.00    +0.000 A 
ATOM     16  C   UNL     1       1.643   8.115  19.927  0.00  0.00    +0.000 A 
ATOM     17  F   UNL     1       2.062   7.351  20.947  0.00  0.00    +0.000 F 
ENDBRANCH   9  10
BRANCH   1  20
ATOM     18  O   UNL     1       7.138   4.038  16.433  0.00  0.00    +0.000 OA
ATOM     19  C   UNL     1       6.201   3.958  15.642  0.00  0.00    +0.000 C 
ATOM     20  N   UNL     1       4.907   3.774  16.075  0.00  0.00    +0.000 N 
ATOM     21  H   UNL     1       4.184   3.650  15.377  0.00  0.00    +0.000 HD
BRANCH  19  22
ATOM     22  C   UNL     1       6.367   4.072  14.199  0.00  0.00    +0.000 A 
ATOM     23  C   UNL     1       5.607   3.454  13.222  0.00  0.00    +0.000 A 
ATOM     24  C   UNL     1       6.082   3.718  11.905  0.00  0.00    +0.000 A 
ATOM     25  C   UNL     1       7.182   4.545  11.912  0.00  0.00    +0.000 A 
ATOM     26  S   UNL     1       7.620   5.014  13.495  0.00  0.00    +0.000 S 
ENDBRANCH  19  22
ENDBRANCH   1  20
TORSDOF 3
ENDMDL
MODEL 3
REMARK VINA RESULT:      -8.0      0.977      1.283
REMARK  Name = 
REMARK  3 active torsions:
REMARK  status: ('A' for Active; 'I' for Inactive)
REMARK    1  A    between atoms: C_2  and  C_21
REMARK    2  A    between atoms: N_3  and  C_4
REMARK    3  A    between atoms: N_12  and  C_13
REMARK                            x       y       z     vdW  Elec       q    Type
REMARK                         _______ _______ _______ _____ _____    ______ ____
ROOT
ATOM      1  C   UNL     1       6.266   6.996  16.950  0.00  0.00    +0.000 C 
ATOM      2  C   UNL     1       7.561   6.710  17.732  0.00  0.00    +0.000 C 
ATOM      3  C   UNL     1       7.520   5.795  18.970  0.00  0.00    +0.000 C 
ATOM      4  C   UNL     1       6.210   5.125  19.408  0.00  0.00    +0.000 C 
ATOM      5  C   UNL     1       5.014   5.653  18.714  0.00  0.00    +0.000 A 
ATOM      6  C   UNL     1       5.045   6.486  17.616  0.00  0.00    +0.000 A 
ATOM      7  C   UNL     1       3.702   6.642  17.248  0.00  0.00    +0.000 A 
ATOM      8  N   UNL     1       2.885   5.910  18.000  0.00  0.00    +0.000 NA
ATOM      9  N   UNL     1       3.685   5.279  18.898  0.00  0.00    +0.000 N 
ENDROOT
BRANCH   9  10
ATOM     10  C   UNL     1       3.119   4.368  19.831  0.00  0.00    +0.000 A 
ATOM     11  C   UNL     1       3.488   3.016  19.852  0.00  0.00    +0.000 A 
ATOM     12  C   UNL     1       2.894   2.133  20.757  0.00  0.00    +0.000 A 
ATOM     13  C   UNL     1       1.940   2.601  21.651  0.00  0.00    +0.000 A 
ATOM     14  F   UNL     1       1.369   1.748  22.511  0.00  0.00    +0.000 F 
ATOM     15  C   UNL     1       1.577   3.939  21.666  0.00  0.00    +0.000 A 
ATOM     16  C   UNL     1       2.170   4.818  20.763  0.00  0.00    +0.000 A 
ATOM     17  F   UNL     1       1.734   6.087  20.772  0.00  0.00    +0.000 F 
ENDBRANCH   9  10
BRANCH   1  20
ATOM     18  O   UNL     1       6.989   4.335  16.386  0.00  0.00    +0.000 OA
ATOM     19  C   UNL     1       6.699   5.068  15.444  0.00  0.00    +0.000 C 
ATOM     20  N   UNL     1       6.307   6.374  15.641  0.00  0.00    +0.000 N 
ATOM     21  H   UNL     1       6.018   6.911  14.834  0.00  0.00    +0.000 HD
BRANCH  19  22
ATOM     22  C   UNL     1       6.764   4.638  14.053  0.00  0.00    +0.000 A 
ATOM     23  C   UNL     1       5.939   3.722  13.426  0.00  0.00    +0.000 A 
ATOM     24  C   UNL     1       6.320   3.472  12.075  0.00  0.00    +0.000 A 
ATOM     25  C   UNL     1       7.416   4.217  11.704  0.00  0.00    +0.000 A 
ATOM     26  S   UNL     1       7.962   5.226  12.971  0.00  0.00    +0.000 S 
ENDBRANCH  19  22
ENDBRANCH   1  20
TORSDOF 3
ENDMDL
MODEL 4
REMARK VINA RESULT:      -7.9      8.533     11.318
REMARK  Name = 
REMARK  3 active torsions:
REMARK  status: ('A' for Active; 'I' for Inactive)
REMARK    1  A    between atoms: C_2  and  C_21
REMARK    2  A    between atoms: N_3  and  C_4
REMARK    3  A    between atoms: N_12  and  C_13
REMARK                            x       y       z     vdW  Elec       q    Type
REMARK                         _______ _______ _______ _____ _____    ______ ____
ROOT
ATOM      1  C   UNL     1      -2.637  12.354  19.098  0.00  0.00    +0.000 C 
ATOM      2  C   UNL     1      -3.478  11.651  18.017  0.00  0.00    +0.000 C 
ATOM      3  C   UNL     1      -2.958  10.356  17.366  0.00  0.00    +0.000 C 
ATOM      4  C   UNL     1      -1.631   9.731  17.815  0.00  0.00    +0.000 C 
ATOM      5  C   UNL     1      -0.826  10.613  18.690  0.00  0.00    +0.000 A 
ATOM      6  C   UNL     1      -1.281  11.782  19.262  0.00  0.00    +0.000 A 
ATOM      7  C   UNL     1      -0.225  12.217  20.073  0.00  0.00    +0.000 A 
ATOM      8  N   UNL     1       0.792  11.360  20.079  0.00  0.00    +0.000 NA
ATOM      9  N   UNL     1       0.426  10.355  19.243  0.00  0.00    +0.000 N 
ENDROOT
BRANCH   9  10
ATOM     10  C   UNL     1       1.287   9.237  19.063  0.00  0.00    +0.000 A 
ATOM     11  C   UNL     1       2.037   9.070  17.892  0.00  0.00    +0.000 A 
ATOM     12  C   UNL     1       2.851   7.947  17.725  0.00  0.00    +0.000 A 
ATOM     13  C   UNL     1       2.927   6.996  18.734  0.00  0.00    +0.000 A 
ATOM     14  F   UNL     1       3.704   5.918  18.565  0.00  0.00    +0.000 F 
ATOM     15  C   UNL     1       2.214   7.152  19.912  0.00  0.00    +0.000 A 
ATOM     16  C   UNL     1       1.402   8.272  20.077  0.00  0.00    +0.000 A 
ATOM     17  F   UNL     1       0.680   8.341  21.205  0.00  0.00    +0.000 F 
ENDBRANCH   9  10
BRANCH   1  20
ATOM     18  O   UNL     1      -3.534  14.499  20.686  0.00  0.00    +0.000 OA
ATOM     19  C   UNL     1      -3.668  13.358  21.124  0.00  0.00    +0.000 C 
ATOM     20  N   UNL     1      -3.281  12.257  20.394  0.00  0.00    +0.000 N 
ATOM     21  H   UNL     1      -3.475  11.340  20.776  0.00  0.00    +0.000 HD
BRANCH  19  22
ATOM     22  C   UNL     1      -4.219  13.073  22.442  0.00  0.00    +0.000 A 
ATOM     23  C   UNL     1      -3.530  12.614  23.551  0.00  0.00    +0.000 A 
ATOM     24  C   UNL     1      -4.383  12.366  24.666  0.00  0.00    +0.000 A 
ATOM     25  C   UNL     1      -5.697  12.659  24.382  0.00  0.00    +0.000 A 
ATOM     26  S   UNL     1      -5.892  13.249  22.791  0.00  0.00    +0.000 S 
ENDBRANCH  19  22
ENDBRANCH   1  20
TORSDOF 3
ENDMDL
MODEL 5
REMARK VINA RESULT:      -7.8      5.900      7.845
REMARK  Name = 
REMARK  3 active torsions:
REMARK  status: ('A' for Active; 'I' for Inactive)
REMARK    1  A    between atoms: C_2  and  C_21
REMARK    2  A    between atoms: N_3  and  C_4
REMARK    3  A    between atoms: N_12  and  C_13
REMARK                            x       y       z     vdW  Elec       q    Type
REMARK                         _______ _______ _______ _____ _____    ______ ____
ROOT
ATOM      1  C   UNL     1       0.354  10.818  19.960  0.00  0.00    +0.000 C 
ATOM      2  C   UNL     1       0.128  10.687  21.478  0.00  0.00    +0.000 C 
ATOM      3  C   UNL     1       0.674   9.459  22.229  0.00  0.00    +0.000 C 
ATOM      4  C   UNL     1       1.484   8.384  21.491  0.00  0.00    +0.000 C 
ATOM      5  C   UNL     1       1.438   8.515  20.018  0.00  0.00    +0.000 A 
ATOM      6  C   UNL     1       0.935   9.604  19.339  0.00  0.00    +0.000 A 
ATOM      7  C   UNL     1       1.187   9.332  17.989  0.00  0.00    +0.000 A 
ATOM      8  N   UNL     1       1.863   8.199  17.821  0.00  0.00    +0.000 NA
ATOM      9  N   UNL     1       2.041   7.693  19.068  0.00  0.00    +0.000 N 
ENDROOT
BRANCH   9  10
ATOM     10  C   UNL     1       2.782   6.492  19.244  0.00  0.00    +0.000 A 
ATOM     11  C   UNL     1       4.072   6.342  18.718  0.00  0.00    +0.000 A 
ATOM     12  C   UNL     1       4.767   5.141  18.877  0.00  0.00    +0.000 A 
ATOM     13  C   UNL     1       4.180   4.092  19.574  0.00  0.00    +0.000 A 
ATOM     14  F   UNL     1       4.850   2.941  19.716  0.00  0.00    +0.000 F 
ATOM     15  C   UNL     1       2.916   4.226  20.125  0.00  0.00    +0.000 A 
ATOM     16  C   UNL     1       2.223   5.424  19.965  0.00  0.00    +0.000 A 
ATOM     17  F   UNL     1       0.977   5.478  20.458  0.00  0.00    +0.000 F 
ENDBRANCH   9  10
BRANCH   1  20
ATOM     18  O   UNL     1      -0.188  13.086  18.383  0.00  0.00    +0.000 OA
ATOM     19  C   UNL     1       0.938  12.970  18.864  0.00  0.00    +0.000 C 
ATOM     20  N   UNL     1       1.271  11.903  19.669  0.00  0.00    +0.000 N 
ATOM     21  H   UNL     1       2.191  11.893  20.090  0.00  0.00    +0.000 HD
BRANCH  19  22
ATOM     22  C   UNL     1       2.012  13.922  18.611  0.00  0.00    +0.000 A 
ATOM     23  C   UNL     1       3.281  13.638  18.139  0.00  0.00    +0.000 A 
ATOM     24  C   UNL     1       4.115  14.793  18.074  0.00  0.00    +0.000 A 
ATOM     25  C   UNL     1       3.453  15.928  18.482  0.00  0.00    +0.000 A 
ATOM     26  S   UNL     1       1.833  15.603  18.916  0.00  0.00    +0.000 S 
ENDBRANCH  19  22
ENDBRANCH   1  20
TORSDOF 3
ENDMDL
MODEL 6
REMARK VINA RESULT:      -7.8      5.686      7.734
REMARK  Name = 
REMARK  3 active torsions:
REMARK  status: ('A' for Active; 'I' for Inactive)
REMARK    1  A    between atoms: C_2  and  C_21
REMARK    2  A    between atoms: N_3  and  C_4
REMARK    3  A    between atoms: N_12  and  C_13
REMARK                            x       y       z     vdW  Elec       q    Type
REMARK                         _______ _______ _______ _____ _____    ______ ____
ROOT
ATOM      1  C   UNL     1       0.607  10.647  19.805  0.00  0.00    +0.000 C 
ATOM      2  C   UNL     1       0.097  10.248  21.202  0.00  0.00    +0.000 C 
ATOM      3  C   UNL     1       0.436   8.857  21.770  0.00  0.00    +0.000 C 
ATOM      4  C   UNL     1       1.315   7.879  20.980  0.00  0.00    +0.000 C 
ATOM      5  C   UNL     1       1.550   8.293  19.579  0.00  0.00    +0.000 A 
ATOM      6  C   UNL     1       1.234   9.530  19.060  0.00  0.00    +0.000 A 
ATOM      7  C   UNL     1       1.719   9.501  17.746  0.00  0.00    +0.000 A 
ATOM      8  N   UNL     1       2.359   8.369  17.470  0.00  0.00    +0.000 NA
ATOM      9  N   UNL     1       2.278   7.621  18.600  0.00  0.00    +0.000 N 
ENDROOT
BRANCH   9  10
ATOM     10  C   UNL     1       2.915   6.350  18.653  0.00  0.00    +0.000 A 
ATOM     11  C   UNL     1       4.165   6.181  19.265  0.00  0.00    +0.000 A 
ATOM     12  C   UNL     1       4.785   4.929  19.277  0.00  0.00    +0.000 A 
ATOM     13  C   UNL     1       4.152   3.842  18.690  0.00  0.00    +0.000 A 
ATOM     14  F   UNL     1       4.755   2.647  18.698  0.00  0.00    +0.000 F 
ATOM     15  C   UNL     1       2.905   3.979  18.101  0.00  0.00    +0.000 A 
ATOM     16  C   UNL     1       2.288   5.228  18.089  0.00  0.00    +0.000 A 
ATOM     17  F   UNL     1       1.114   5.321  17.447  0.00  0.00    +0.000 F 
ENDBRANCH   9  10
BRANCH   1  20
ATOM     18  O   UNL     1       0.683  13.042  18.327  0.00  0.00    +0.000 OA
ATOM     19  C   UNL     1       1.594  12.823  19.123  0.00  0.00    +0.000 C 
ATOM     20  N   UNL     1       1.612  11.688  19.902  0.00  0.00    +0.000 N 
ATOM     21  H   UNL     1       2.352  11.591  20.586  0.00  0.00    +0.000 HD
BRANCH  19  22
ATOM     22  C   UNL     1       2.731  13.718  19.295  0.00  0.00    +0.000 A 
ATOM     23  C   UNL     1       3.495  14.294  18.296  0.00  0.00    +0.000 A 
ATOM     24  C   UNL     1       4.582  15.061  18.808  0.00  0.00    +0.000 A 
ATOM     25  C   UNL     1       4.607  15.063  20.184  0.00  0.00    +0.000 A 
ATOM     26  S   UNL     1       3.314  14.165  20.848  0.00  0.00    +0.000 S 
ENDBRANCH  19  22
ENDBRANCH   1  20
TORSDOF 3
ENDMDL
MODEL 7
REMARK VINA RESULT:      -7.7      8.368     11.073
REMARK  Name = 
REMARK  3 active torsions:
REMARK  status: ('A' for Active; 'I' for Inactive)
REMARK    1  A    between atoms: C_2  and  C_21
REMARK    2  A    between atoms: N_3  and  C_4
REMARK    3  A    between atoms: N_12  and  C_13
REMARK                            x       y       z     vdW  Elec       q    Type
REMARK                         _______ _______ _______ _____ _____    ______ ____
ROOT
ATOM      1  C   UNL     1      -1.949  12.434  19.444  0.00  0.00    +0.000 C 
ATOM      2  C   UNL     1      -2.736  11.979  18.201  0.00  0.00    +0.000 C 
ATOM      3  C   UNL     1      -2.330  10.685  17.472  0.00  0.00    +0.000 C 
ATOM      4  C   UNL     1      -1.179   9.817  17.995  0.00  0.00    +0.000 C 
ATOM      5  C   UNL     1      -0.375  10.472  19.051  0.00  0.00    +0.000 A 
ATOM      6  C   UNL     1      -0.725  11.639  19.696  0.00  0.00    +0.000 A 
ATOM      7  C   UNL     1       0.269  11.822  20.666  0.00  0.00    +0.000 A 
ATOM      8  N   UNL     1       1.140  10.818  20.692  0.00  0.00    +0.000 NA
ATOM      9  N   UNL     1       0.743   9.967  19.710  0.00  0.00    +0.000 N 
ENDROOT
BRANCH   9  10
ATOM     10  C   UNL     1       1.446   8.748  19.504  0.00  0.00    +0.000 A 
ATOM     11  C   UNL     1       1.476   7.744  20.482  0.00  0.00    +0.000 A 
ATOM     12  C   UNL     1       2.200   6.569  20.269  0.00  0.00    +0.000 A 
ATOM     13  C   UNL     1       2.885   6.389  19.074  0.00  0.00    +0.000 A 
ATOM     14  F   UNL     1       3.583   5.263  18.880  0.00  0.00    +0.000 F 
ATOM     15  C   UNL     1       2.850   7.357  18.083  0.00  0.00    +0.000 A 
ATOM     16  C   UNL     1       2.128   8.528  18.297  0.00  0.00    +0.000 A 
ATOM     17  F   UNL     1       2.182   9.462  17.334  0.00  0.00    +0.000 F 
ENDBRANCH   9  10
BRANCH   1  20
ATOM     18  O   UNL     1      -3.205  14.542  20.824  0.00  0.00    +0.000 OA
ATOM     19  C   UNL     1      -3.324  13.404  21.273  0.00  0.00    +0.000 C 
ATOM     20  N   UNL     1      -2.764  12.318  20.639  0.00  0.00    +0.000 N 
ATOM     21  H   UNL     1      -2.949  11.397  21.018  0.00  0.00    +0.000 HD
BRANCH  19  22
ATOM     22  C   UNL     1      -4.038  13.107  22.509  0.00  0.00    +0.000 A 
ATOM     23  C   UNL     1      -3.497  12.619  23.685  0.00  0.00    +0.000 A 
ATOM     24  C   UNL     1      -4.485  12.369  24.682  0.00  0.00    +0.000 A 
ATOM     25  C   UNL     1      -5.750  12.689  24.244  0.00  0.00    +0.000 A 
ATOM     26  S   UNL     1      -5.738  13.308  22.652  0.00  0.00    +0.000 S 
ENDBRANCH  19  22
ENDBRANCH   1  20
TORSDOF 3
ENDMDL
MODEL 8
REMARK VINA RESULT:      -7.6      5.875      7.840
REMARK  Name = 
REMARK  3 active torsions:
REMARK  status: ('A' for Active; 'I' for Inactive)
REMARK    1  A    between atoms: C_2  and  C_21
REMARK    2  A    between atoms: N_3  and  C_4
REMARK    3  A    between atoms: N_12  and  C_13
REMARK                            x       y       z     vdW  Elec       q    Type
REMARK                         _______ _______ _______ _____ _____    ______ ____
ROOT
ATOM      1  C   UNL     1       0.506  10.881  19.872  0.00  0.00    +0.000 C 
ATOM      2  C   UNL     1       0.067  10.649  21.330  0.00  0.00    +0.000 C 
ATOM      3  C   UNL     1       0.435   9.332  22.038  0.00  0.00    +0.000 C 
ATOM      4  C   UNL     1       1.275   8.265  21.323  0.00  0.00    +0.000 C 
ATOM      5  C   UNL     1       1.438   8.512  19.873  0.00  0.00    +0.000 A 
ATOM      6  C   UNL     1       1.095   9.683  19.231  0.00  0.00    +0.000 A 
ATOM      7  C   UNL     1       1.513   9.500  17.907  0.00  0.00    +0.000 A 
ATOM      8  N   UNL     1       2.140   8.340  17.732  0.00  0.00    +0.000 NA
ATOM      9  N   UNL     1       2.116   7.728  18.944  0.00  0.00    +0.000 N 
ENDROOT
BRANCH   9  10
ATOM     10  C   UNL     1       2.756   6.469  19.112  0.00  0.00    +0.000 A 
ATOM     11  C   UNL     1       2.216   5.476  19.940  0.00  0.00    +0.000 A 
ATOM     12  C   UNL     1       2.879   4.259  20.114  0.00  0.00    +0.000 A 
ATOM     13  C   UNL     1       4.076   4.027  19.450  0.00  0.00    +0.000 A 
ATOM     14  F   UNL     1       4.710   2.861  19.627  0.00  0.00    +0.000 F 
ATOM     15  C   UNL     1       4.618   4.983  18.606  0.00  0.00    +0.000 A 
ATOM     16  C   UNL     1       3.955   6.196  18.434  0.00  0.00    +0.000 A 
ATOM     17  F   UNL     1       4.556   7.114  17.661  0.00  0.00    +0.000 F 
ENDBRANCH   9  10
BRANCH   1  20
ATOM     18  O   UNL     1       0.331  13.278  18.406  0.00  0.00    +0.000 OA
ATOM     19  C   UNL     1       1.364  13.058  19.034  0.00  0.00    +0.000 C 
ATOM     20  N   UNL     1       1.513  11.922  19.798  0.00  0.00    +0.000 N 
ATOM     21  H   UNL     1       2.359  11.824  20.345  0.00  0.00    +0.000 HD
BRANCH  19  22
ATOM     22  C   UNL     1       2.515  13.952  19.011  0.00  0.00    +0.000 A 
ATOM     23  C   UNL     1       3.078  14.554  17.900  0.00  0.00    +0.000 A 
ATOM     24  C   UNL     1       4.243  15.312  18.217  0.00  0.00    +0.000 A 
ATOM     25  C   UNL     1       4.526  15.281  19.563  0.00  0.00    +0.000 A 
ATOM     26  S   UNL     1       3.380  14.363  20.436  0.00  0.00    +0.000 S 
ENDBRANCH  19  22
ENDBRANCH   1  20
TORSDOF 3
ENDMDL
MODEL 9
REMARK VINA RESULT:      -7.6      9.080     11.777
REMARK  Name = 
REMARK  3 active torsions:
REMARK  status: ('A' for Active; 'I' for Inactive)
REMARK    1  A    between atoms: C_2  and  C_21
REMARK    2  A    between atoms: N_3  and  C_4
REMARK    3  A    between atoms: N_12  and  C_13
REMARK                            x       y       z     vdW  Elec       q    Type
REMARK                         _______ _______ _______ _____ _____    ______ ____
ROOT
ATOM      1  C   UNL     1      -3.469  12.245  18.719  0.00  0.00    +0.000 C 
ATOM      2  C   UNL     1      -4.144  11.413  17.613  0.00  0.00    +0.000 C 
ATOM      3  C   UNL     1      -3.453  10.143  17.083  0.00  0.00    +0.000 C 
ATOM      4  C   UNL     1      -2.121   9.668  17.677  0.00  0.00    +0.000 C 
ATOM      5  C   UNL     1      -1.479  10.664  18.565  0.00  0.00    +0.000 A 
ATOM      6  C   UNL     1      -2.087  11.812  19.029  0.00  0.00    +0.000 A 
ATOM      7  C   UNL     1      -1.151  12.384  19.899  0.00  0.00    +0.000 A 
ATOM      8  N   UNL     1      -0.066  11.629  20.040  0.00  0.00    +0.000 NA
ATOM      9  N   UNL     1      -0.264  10.554  19.235  0.00  0.00    +0.000 N 
ENDROOT
BRANCH   9  10
ATOM     10  C   UNL     1       0.706   9.514  19.192  0.00  0.00    +0.000 A 
ATOM     11  C   UNL     1       1.466   9.267  18.041  0.00  0.00    +0.000 A 
ATOM     12  C   UNL     1       2.390   8.220  18.012  0.00  0.00    +0.000 A 
ATOM     13  C   UNL     1       2.567   7.427  19.139  0.00  0.00    +0.000 A 
ATOM     14  F   UNL     1       3.450   6.421  19.103  0.00  0.00    +0.000 F 
ATOM     15  C   UNL     1       1.846   7.668  20.297  0.00  0.00    +0.000 A 
ATOM     16  C   UNL     1       0.924   8.712  20.324  0.00  0.00    +0.000 A 
ATOM     17  F   UNL     1       0.203   8.860  21.446  0.00  0.00    +0.000 F 
ENDBRANCH   9  10
BRANCH   1  20
ATOM     18  O   UNL     1      -5.822  13.648  19.368  0.00  0.00    +0.000 OA
ATOM     19  C   UNL     1      -5.346  12.893  20.213  0.00  0.00    +0.000 C 
ATOM     20  N   UNL     1      -4.214  12.150  19.960  0.00  0.00    +0.000 N 
ATOM     21  H   UNL     1      -3.905  11.497  20.668  0.00  0.00    +0.000 HD
BRANCH  19  22
ATOM     22  C   UNL     1      -5.913  12.733  21.546  0.00  0.00    +0.000 A 
ATOM     23  C   UNL     1      -7.194  12.315  21.861  0.00  0.00    +0.000 A 
ATOM     24  C   UNL     1      -7.451  12.339  23.263  0.00  0.00    +0.000 A 
ATOM     25  C   UNL     1      -6.354  12.758  23.980  0.00  0.00    +0.000 A 
ATOM     26  S   UNL     1      -5.020  13.097  22.968  0.00  0.00    +0.000 S 
ENDBRANCH  19  22
ENDBRANCH   1  20
TORSDOF 3
ENDMDL
