MODEL 1
REMARK VINA RESULT:      -6.9      0.000      0.000
REMARK  Name = 
REMARK  11 active torsions:
REMARK  status: ('A' for Active; 'I' for Inactive)
REMARK    1  A    between atoms: C_1  and  O_2
REMARK    2  A    between atoms: O_2  and  C_3
REMARK    3  A    between atoms: C_3  and  C_4
REMARK    4  A    between atoms: C_4  and  C_5
REMARK    5  A    between atoms: C_5  and  N_6
REMARK    6  A    between atoms: C_7  and  C_9
REMARK    7  A    between atoms: C_9  and  N_10
REMARK    8  A    between atoms: N_10  and  C_11
REMARK    9  A    between atoms: N_10  and  S_19
REMARK   10  A    between atoms: C_17  and  C_18
REMARK   11  A    between atoms: S_19  and  C_20
REMARK                            x       y       z     vdW  Elec       q    Type
REMARK                         _______ _______ _______ _____ _____    ______ ____
ROOT
ATOM      1  N   UNL     1       5.577   5.173  16.949  0.00  0.00    +0.000 N 
ENDROOT
BRANCH   1   2
ATOM      2  C   UNL     1       4.308   5.091  17.629  0.00  0.00    +0.000 A 
ATOM      3  C   UNL     1       3.777   6.298  18.105  0.00  0.00    +0.000 A 
ATOM      4  C   UNL     1       2.519   6.333  18.706  0.00  0.00    +0.000 A 
ATOM      5  C   UNL     1       1.786   5.165  18.825  0.00  0.00    +0.000 A 
ATOM      6  C   UNL     1       2.310   3.947  18.366  0.00  0.00    +0.000 A 
ATOM      7 CL   UNL     1       1.295   2.556  18.546  0.00  0.00    +0.000 Cl
ATOM      8  C   UNL     1       3.590   3.884  17.778  0.00  0.00    +0.000 A 
ATOM      9  C   UNL     1       4.159   2.578  17.282  0.00  0.00    +0.000 C 
ENDBRANCH   1   2
BRANCH   1  10
ATOM     10  S   UNL     1       6.982   5.130  17.892  0.00  0.00    +0.000 S 
ATOM     11  C   UNL     1       7.532   6.820  17.807  0.00  0.00    +0.000 C 
ATOM     12  O   UNL     1       6.589   4.889  19.270  0.00  0.00    +0.000 OA
ATOM     13  O   UNL     1       7.984   4.308  17.251  0.00  0.00    +0.000 OA
ENDBRANCH   1  10
BRANCH   1  14
ATOM     14  C   UNL     1       5.649   5.852  15.638  0.00  0.00    +0.000 C 
BRANCH  14  16
ATOM     15  N   UNL     1       5.787   4.055  13.967  0.00  0.00    +0.000 N 
ATOM     16  C   UNL     1       6.462   5.070  14.618  0.00  0.00    +0.000 C 
ATOM     17  O   UNL     1       7.643   5.333  14.402  0.00  0.00    +0.000 OA
ATOM     18  H   UNL     1       4.774   4.004  14.066  0.00  0.00    +0.000 HD
BRANCH  15  19
ATOM     19  C   UNL     1       6.447   3.200  12.990  0.00  0.00    +0.000 C 
BRANCH  19  20
ATOM     20  C   UNL     1       5.657   3.088  11.683  0.00  0.00    +0.000 C 
BRANCH  20  21
ATOM     21  C   UNL     1       4.184   3.450  11.873  0.00  0.00    +0.000 C 
BRANCH  21  23
ATOM     22  C   UNL     1       3.118   4.078   9.857  0.00  0.00    +0.000 C 
ATOM     23  O   UNL     1       3.442   3.011  10.738  0.00  0.00    +0.000 OA
ENDBRANCH  21  23
ENDBRANCH  20  21
ENDBRANCH  19  20
ENDBRANCH  15  19
ENDBRANCH  14  16
ENDBRANCH   1  14
TORSDOF 8
ENDMDL
MODEL 2
REMARK VINA RESULT:      -6.8      2.958      4.561
REMARK  Name = 
REMARK  11 active torsions:
REMARK  status: ('A' for Active; 'I' for Inactive)
REMARK    1  A    between atoms: C_1  and  O_2
REMARK    2  A    between atoms: O_2  and  C_3
REMARK    3  A    between atoms: C_3  and  C_4
REMARK    4  A    between atoms: C_4  and  C_5
REMARK    5  A    between atoms: C_5  and  N_6
REMARK    6  A    between atoms: C_7  and  C_9
REMARK    7  A    between atoms: C_9  and  N_10
REMARK    8  A    between atoms: N_10  and  C_11
REMARK    9  A    between atoms: N_10  and  S_19
REMARK   10  A    between atoms: C_17  and  C_18
REMARK   11  A    between atoms: S_19  and  C_20
REMARK                            x       y       z     vdW  Elec       q    Type
REMARK                         _______ _______ _______ _____ _____    ______ ____
ROOT
ATOM      1  N   UNL     1       3.279   4.652  18.887  0.00  0.00    +0.000 N 
ENDROOT
BRANCH   1   2
ATOM      2  C   UNL     1       2.627   5.894  19.226  0.00  0.00    +0.000 A 
ATOM      3  C   UNL     1       1.927   5.918  20.440  0.00  0.00    +0.000 A 
ATOM      4  C   UNL     1       1.331   7.095  20.892  0.00  0.00    +0.000 A 
ATOM      5  C   UNL     1       1.440   8.251  20.138  0.00  0.00    +0.000 A 
ATOM      6  C   UNL     1       2.126   8.238  18.914  0.00  0.00    +0.000 A 
ATOM      7 CL   UNL     1       2.218   9.746  18.067  0.00  0.00    +0.000 Cl
ATOM      8  C   UNL     1       2.714   7.054  18.424  0.00  0.00    +0.000 A 
ATOM      9  C   UNL     1       3.454   7.033  17.110  0.00  0.00    +0.000 C 
ENDBRANCH   1   2
BRANCH   1  10
ATOM     10  S   UNL     1       2.361   3.471  18.096  0.00  0.00    +0.000 S 
ATOM     11  C   UNL     1       1.702   2.543  19.464  0.00  0.00    +0.000 C 
ATOM     12  O   UNL     1       1.234   4.130  17.459  0.00  0.00    +0.000 OA
ATOM     13  O   UNL     1       3.228   2.591  17.345  0.00  0.00    +0.000 OA
ENDBRANCH   1  10
BRANCH   1  14
ATOM     14  C   UNL     1       4.435   4.203  19.690  0.00  0.00    +0.000 C 
BRANCH  14  16
ATOM     15  N   UNL     1       5.970   4.283  17.773  0.00  0.00    +0.000 N 
ATOM     16  C   UNL     1       5.766   4.633  19.093  0.00  0.00    +0.000 C 
ATOM     17  O   UNL     1       6.598   5.248  19.758  0.00  0.00    +0.000 OA
ATOM     18  H   UNL     1       5.178   3.931  17.236  0.00  0.00    +0.000 HD
BRANCH  15  19
ATOM     19  C   UNL     1       7.211   4.596  17.080  0.00  0.00    +0.000 C 
BRANCH  19  20
ATOM     20  C   UNL     1       7.094   4.423  15.563  0.00  0.00    +0.000 C 
BRANCH  20  21
ATOM     21  C   UNL     1       5.833   5.085  15.008  0.00  0.00    +0.000 C 
BRANCH  21  23
ATOM     22  C   UNL     1       6.141   3.692  13.122  0.00  0.00    +0.000 C 
ATOM     23  O   UNL     1       5.216   4.209  14.068  0.00  0.00    +0.000 OA
ENDBRANCH  21  23
ENDBRANCH  20  21
ENDBRANCH  19  20
ENDBRANCH  15  19
ENDBRANCH  14  16
ENDBRANCH   1  14
TORSDOF 8
ENDMDL
MODEL 3
REMARK VINA RESULT:      -6.8      1.600      1.795
REMARK  Name = 
REMARK  11 active torsions:
REMARK  status: ('A' for Active; 'I' for Inactive)
REMARK    1  A    between atoms: C_1  and  O_2
REMARK    2  A    between atoms: O_2  and  C_3
REMARK    3  A    between atoms: C_3  and  C_4
REMARK    4  A    between atoms: C_4  and  C_5
REMARK    5  A    between atoms: C_5  and  N_6
REMARK    6  A    between atoms: C_7  and  C_9
REMARK    7  A    between atoms: C_9  and  N_10
REMARK    8  A    between atoms: N_10  and  C_11
REMARK    9  A    between atoms: N_10  and  S_19
REMARK   10  A    between atoms: C_17  and  C_18
REMARK   11  A    between atoms: S_19  and  C_20
REMARK                            x       y       z     vdW  Elec       q    Type
REMARK                         _______ _______ _______ _____ _____    ______ ____
ROOT
ATOM      1  N   UNL     1       5.605   4.549  17.388  0.00  0.00    +0.000 N 
ENDROOT
BRANCH   1   2
ATOM      2  C   UNL     1       4.568   5.201  18.149  0.00  0.00    +0.000 A 
ATOM      3  C   UNL     1       4.144   6.452  17.681  0.00  0.00    +0.000 A 
ATOM      4  C   UNL     1       3.092   7.124  18.303  0.00  0.00    +0.000 A 
ATOM      5  C   UNL     1       2.457   6.544  19.387  0.00  0.00    +0.000 A 
ATOM      6  C   UNL     1       2.879   5.299  19.876  0.00  0.00    +0.000 A 
ATOM      7 CL   UNL     1       1.997   4.660  21.223  0.00  0.00    +0.000 Cl
ATOM      8  C   UNL     1       3.957   4.613  19.280  0.00  0.00    +0.000 A 
ATOM      9  C   UNL     1       4.416   3.274  19.799  0.00  0.00    +0.000 C 
ENDBRANCH   1   2
BRANCH   1  10
ATOM     10  S   UNL     1       7.139   5.263  17.373  0.00  0.00    +0.000 S 
ATOM     11  C   UNL     1       7.400   5.607  19.100  0.00  0.00    +0.000 C 
ATOM     12  O   UNL     1       8.106   4.243  17.001  0.00  0.00    +0.000 OA
ATOM     13  O   UNL     1       7.091   6.529  16.675  0.00  0.00    +0.000 OA
ENDBRANCH   1  10
BRANCH   1  14
ATOM     14  C   UNL     1       5.230   3.702  16.236  0.00  0.00    +0.000 C 
BRANCH  14  16
ATOM     15  N   UNL     1       6.420   3.632  14.087  0.00  0.00    +0.000 N 
ATOM     16  C   UNL     1       5.565   4.349  14.901  0.00  0.00    +0.000 C 
ATOM     17  O   UNL     1       5.098   5.442  14.583  0.00  0.00    +0.000 OA
ATOM     18  H   UNL     1       6.629   2.665  14.334  0.00  0.00    +0.000 HD
BRANCH  15  19
ATOM     19  C   UNL     1       6.857   4.143  12.796  0.00  0.00    +0.000 C 
BRANCH  19  20
ATOM     20  C   UNL     1       6.784   3.083  11.693  0.00  0.00    +0.000 C 
BRANCH  20  21
ATOM     21  C   UNL     1       5.432   2.370  11.674  0.00  0.00    +0.000 C 
BRANCH  21  23
ATOM     22  C   UNL     1       3.551   3.293  10.578  0.00  0.00    +0.000 C 
ATOM     23  O   UNL     1       4.388   3.339  11.725  0.00  0.00    +0.000 OA
ENDBRANCH  21  23
ENDBRANCH  20  21
ENDBRANCH  19  20
ENDBRANCH  15  19
ENDBRANCH  14  16
ENDBRANCH   1  14
TORSDOF 8
ENDMDL
MODEL 4
REMARK VINA RESULT:      -6.8      1.291      1.557
REMARK  Name = 
REMARK  11 active torsions:
REMARK  status: ('A' for Active; 'I' for Inactive)
REMARK    1  A    between atoms: C_1  and  O_2
REMARK    2  A    between atoms: O_2  and  C_3
REMARK    3  A    between atoms: C_3  and  C_4
REMARK    4  A    between atoms: C_4  and  C_5
REMARK    5  A    between atoms: C_5  and  N_6
REMARK    6  A    between atoms: C_7  and  C_9
REMARK    7  A    between atoms: C_9  and  N_10
REMARK    8  A    between atoms: N_10  and  C_11
REMARK    9  A    between atoms: N_10  and  S_19
REMARK   10  A    between atoms: C_17  and  C_18
REMARK   11  A    between atoms: S_19  and  C_20
REMARK                            x       y       z     vdW  Elec       q    Type
REMARK                         _______ _______ _______ _____ _____    ______ ____
ROOT
ATOM      1  N   UNL     1       5.533   5.638  17.930  0.00  0.00    +0.000 N 
ENDROOT
BRANCH   1   2
ATOM      2  C   UNL     1       4.321   5.181  18.564  0.00  0.00    +0.000 A 
ATOM      3  C   UNL     1       3.742   6.049  19.500  0.00  0.00    +0.000 A 
ATOM      4  C   UNL     1       2.528   5.731  20.108  0.00  0.00    +0.000 A 
ATOM      5  C   UNL     1       1.886   4.550  19.776  0.00  0.00    +0.000 A 
ATOM      6  C   UNL     1       2.460   3.665  18.852  0.00  0.00    +0.000 A 
ATOM      7 CL   UNL     1       1.558   2.229  18.497  0.00  0.00    +0.000 Cl
ATOM      8  C   UNL     1       3.699   3.953  18.244  0.00  0.00    +0.000 A 
ATOM      9  C   UNL     1       4.322   3.007  17.249  0.00  0.00    +0.000 C 
ENDBRANCH   1   2
BRANCH   1  10
ATOM     10  S   UNL     1       7.000   5.323  18.712  0.00  0.00    +0.000 S 
ATOM     11  C   UNL     1       7.850   6.877  18.536  0.00  0.00    +0.000 C 
ATOM     12  O   UNL     1       6.726   5.158  20.130  0.00  0.00    +0.000 OA
ATOM     13  O   UNL     1       7.749   4.327  17.979  0.00  0.00    +0.000 OA
ENDBRANCH   1  10
BRANCH   1  14
ATOM     14  C   UNL     1       5.474   6.801  17.019  0.00  0.00    +0.000 C 
BRANCH  14  16
ATOM     15  N   UNL     1       6.567   5.412  15.312  0.00  0.00    +0.000 N 
ATOM     16  C   UNL     1       5.646   6.411  15.559  0.00  0.00    +0.000 C 
ATOM     17  O   UNL     1       5.001   6.962  14.669  0.00  0.00    +0.000 OA
ATOM     18  H   UNL     1       6.935   4.884  16.102  0.00  0.00    +0.000 HD
BRANCH  15  19
ATOM     19  C   UNL     1       6.862   4.960  13.959  0.00  0.00    +0.000 C 
BRANCH  19  20
ATOM     20  C   UNL     1       5.893   3.875  13.481  0.00  0.00    +0.000 C 
BRANCH  20  21
ATOM     21  C   UNL     1       6.357   3.230  12.175  0.00  0.00    +0.000 C 
BRANCH  21  23
ATOM     22  C   UNL     1       4.186   3.112  11.244  0.00  0.00    +0.000 C 
ATOM     23  O   UNL     1       5.325   2.382  11.676  0.00  0.00    +0.000 OA
ENDBRANCH  21  23
ENDBRANCH  20  21
ENDBRANCH  19  20
ENDBRANCH  15  19
ENDBRANCH  14  16
ENDBRANCH   1  14
TORSDOF 8
ENDMDL
MODEL 5
REMARK VINA RESULT:      -6.7      2.958      4.603
REMARK  Name = 
REMARK  11 active torsions:
REMARK  status: ('A' for Active; 'I' for Inactive)
REMARK    1  A    between atoms: C_1  and  O_2
REMARK    2  A    between atoms: O_2  and  C_3
REMARK    3  A    between atoms: C_3  and  C_4
REMARK    4  A    between atoms: C_4  and  C_5
REMARK    5  A    between atoms: C_5  and  N_6
REMARK    6  A    between atoms: C_7  and  C_9
REMARK    7  A    between atoms: C_9  and  N_10
REMARK    8  A    between atoms: N_10  and  C_11
REMARK    9  A    between atoms: N_10  and  S_19
REMARK   10  A    between atoms: C_17  and  C_18
REMARK   11  A    between atoms: S_19  and  C_20
REMARK                            x       y       z     vdW  Elec       q    Type
REMARK                         _______ _______ _______ _____ _____    ______ ____
ROOT
ATOM      1  N   UNL     1       3.202   4.447  18.664  0.00  0.00    +0.000 N 
ENDROOT
BRANCH   1   2
ATOM      2  C   UNL     1       2.863   5.839  18.833  0.00  0.00    +0.000 A 
ATOM      3  C   UNL     1       3.212   6.697  17.781  0.00  0.00    +0.000 A 
ATOM      4  C   UNL     1       2.856   8.045  17.817  0.00  0.00    +0.000 A 
ATOM      5  C   UNL     1       2.144   8.536  18.897  0.00  0.00    +0.000 A 
ATOM      6  C   UNL     1       1.800   7.692  19.964  0.00  0.00    +0.000 A 
ATOM      7 CL   UNL     1       0.891   8.410  21.251  0.00  0.00    +0.000 Cl
ATOM      8  C   UNL     1       2.171   6.332  19.962  0.00  0.00    +0.000 A 
ATOM      9  C   UNL     1       1.804   5.419  21.105  0.00  0.00    +0.000 C 
ENDBRANCH   1   2
BRANCH   1  10
ATOM     10  S   UNL     1       1.976   3.392  18.166  0.00  0.00    +0.000 S 
ATOM     11  C   UNL     1       2.888   2.191  17.222  0.00  0.00    +0.000 C 
ATOM     12  O   UNL     1       1.472   2.702  19.342  0.00  0.00    +0.000 OA
ATOM     13  O   UNL     1       1.075   4.071  17.261  0.00  0.00    +0.000 OA
ENDBRANCH   1  10
BRANCH   1  14
ATOM     14  C   UNL     1       4.324   3.879  19.440  0.00  0.00    +0.000 C 
BRANCH  14  16
ATOM     15  N   UNL     1       6.087   4.190  17.756  0.00  0.00    +0.000 N 
ATOM     16  C   UNL     1       5.668   4.470  19.042  0.00  0.00    +0.000 C 
ATOM     17  O   UNL     1       6.329   5.146  19.828  0.00  0.00    +0.000 OA
ATOM     18  H   UNL     1       5.419   3.774  17.108  0.00  0.00    +0.000 HD
BRANCH  15  19
ATOM     19  C   UNL     1       7.369   4.658  17.248  0.00  0.00    +0.000 C 
BRANCH  19  20
ATOM     20  C   UNL     1       7.333   4.943  15.744  0.00  0.00    +0.000 C 
BRANCH  20  21
ATOM     21  C   UNL     1       5.904   5.098  15.226  0.00  0.00    +0.000 C 
BRANCH  21  23
ATOM     22  C   UNL     1       6.024   3.766  13.276  0.00  0.00    +0.000 C 
ATOM     23  O   UNL     1       5.499   3.889  14.590  0.00  0.00    +0.000 OA
ENDBRANCH  21  23
ENDBRANCH  20  21
ENDBRANCH  19  20
ENDBRANCH  15  19
ENDBRANCH  14  16
ENDBRANCH   1  14
TORSDOF 8
ENDMDL
MODEL 6
REMARK VINA RESULT:      -6.7      2.824      4.240
REMARK  Name = 
REMARK  11 active torsions:
REMARK  status: ('A' for Active; 'I' for Inactive)
REMARK    1  A    between atoms: C_1  and  O_2
REMARK    2  A    between atoms: O_2  and  C_3
REMARK    3  A    between atoms: C_3  and  C_4
REMARK    4  A    between atoms: C_4  and  C_5
REMARK    5  A    between atoms: C_5  and  N_6
REMARK    6  A    between atoms: C_7  and  C_9
REMARK    7  A    between atoms: C_9  and  N_10
REMARK    8  A    between atoms: N_10  and  C_11
REMARK    9  A    between atoms: N_10  and  S_19
REMARK   10  A    between atoms: C_17  and  C_18
REMARK   11  A    between atoms: S_19  and  C_20
REMARK                            x       y       z     vdW  Elec       q    Type
REMARK                         _______ _______ _______ _____ _____    ______ ____
ROOT
ATOM      1  N   UNL     1       3.353   4.682  18.359  0.00  0.00    +0.000 N 
ENDROOT
BRANCH   1   2
ATOM      2  C   UNL     1       2.886   6.013  18.659  0.00  0.00    +0.000 A 
ATOM      3  C   UNL     1       3.082   6.980  17.663  0.00  0.00    +0.000 A 
ATOM      4  C   UNL     1       2.595   8.276  17.827  0.00  0.00    +0.000 A 
ATOM      5  C   UNL     1       1.904   8.607  18.980  0.00  0.00    +0.000 A 
ATOM      6  C   UNL     1       1.713   7.654  19.991  0.00  0.00    +0.000 A 
ATOM      7 CL   UNL     1       0.816   8.172  21.379  0.00  0.00    +0.000 Cl
ATOM      8  C   UNL     1       2.219   6.344  19.859  0.00  0.00    +0.000 A 
ATOM      9  C   UNL     1       2.016   5.314  20.941  0.00  0.00    +0.000 C 
ENDBRANCH   1   2
BRANCH   1  10
ATOM     10  S   UNL     1       2.259   3.604  17.650  0.00  0.00    +0.000 S 
ATOM     11  C   UNL     1       2.115   2.348  18.903  0.00  0.00    +0.000 C 
ATOM     12  O   UNL     1       0.966   4.263  17.572  0.00  0.00    +0.000 OA
ATOM     13  O   UNL     1       2.851   2.993  16.481  0.00  0.00    +0.000 OA
ENDBRANCH   1  10
BRANCH   1  14
ATOM     14  C   UNL     1       4.464   4.113  19.151  0.00  0.00    +0.000 C 
BRANCH  14  16
ATOM     15  N   UNL     1       5.879   4.168  17.143  0.00  0.00    +0.000 N 
ATOM     16  C   UNL     1       5.822   4.352  18.510  0.00  0.00    +0.000 C 
ATOM     17  O   UNL     1       6.798   4.685  19.182  0.00  0.00    +0.000 OA
ATOM     18  H   UNL     1       5.004   4.063  16.630  0.00  0.00    +0.000 HD
BRANCH  15  19
ATOM     19  C   UNL     1       7.121   4.327  16.399  0.00  0.00    +0.000 C 
BRANCH  19  20
ATOM     20  C   UNL     1       6.908   5.006  15.043  0.00  0.00    +0.000 C 
BRANCH  20  21
ATOM     21  C   UNL     1       5.900   4.249  14.178  0.00  0.00    +0.000 C 
BRANCH  21  23
ATOM     22  C   UNL     1       5.666   3.078  12.137  0.00  0.00    +0.000 C 
ATOM     23  O   UNL     1       6.555   3.758  13.012  0.00  0.00    +0.000 OA
ENDBRANCH  21  23
ENDBRANCH  20  21
ENDBRANCH  19  20
ENDBRANCH  15  19
ENDBRANCH  14  16
ENDBRANCH   1  14
TORSDOF 8
ENDMDL
MODEL 7
REMARK VINA RESULT:      -6.6      1.023      1.087
REMARK  Name = 
REMARK  11 active torsions:
REMARK  status: ('A' for Active; 'I' for Inactive)
REMARK    1  A    between atoms: C_1  and  O_2
REMARK    2  A    between atoms: O_2  and  C_3
REMARK    3  A    between atoms: C_3  and  C_4
REMARK    4  A    between atoms: C_4  and  C_5
REMARK    5  A    between atoms: C_5  and  N_6
REMARK    6  A    between atoms: C_7  and  C_9
REMARK    7  A    between atoms: C_9  and  N_10
REMARK    8  A    between atoms: N_10  and  C_11
REMARK    9  A    between atoms: N_10  and  S_19
REMARK   10  A    between atoms: C_17  and  C_18
REMARK   11  A    between atoms: S_19  and  C_20
REMARK                            x       y       z     vdW  Elec       q    Type
REMARK                         _______ _______ _______ _____ _____    ______ ____
ROOT
ATOM      1  N   UNL     1       5.948   5.284  17.213  0.00  0.00    +0.000 N 
ENDROOT
BRANCH   1   2
ATOM      2  C   UNL     1       4.619   5.600  17.677  0.00  0.00    +0.000 A 
ATOM      3  C   UNL     1       4.235   6.945  17.596  0.00  0.00    +0.000 A 
ATOM      4  C   UNL     1       2.943   7.337  17.945  0.00  0.00    +0.000 A 
ATOM      5  C   UNL     1       2.030   6.385  18.367  0.00  0.00    +0.000 A 
ATOM      6  C   UNL     1       2.405   5.037  18.467  0.00  0.00    +0.000 A 
ATOM      7 CL   UNL     1       1.175   3.932  18.984  0.00  0.00    +0.000 Cl
ATOM      8  C   UNL     1       3.713   4.621  18.143  0.00  0.00    +0.000 A 
ATOM      9  C   UNL     1       4.122   3.174  18.247  0.00  0.00    +0.000 C 
ENDBRANCH   1   2
BRANCH   1  10
ATOM     10  S   UNL     1       7.204   5.301  18.348  0.00  0.00    +0.000 S 
ATOM     11  C   UNL     1       7.846   6.950  18.158  0.00  0.00    +0.000 C 
ATOM     12  O   UNL     1       6.611   5.236  19.674  0.00  0.00    +0.000 OA
ATOM     13  O   UNL     1       8.242   4.376  17.953  0.00  0.00    +0.000 OA
ENDBRANCH   1  10
BRANCH   1  14
ATOM     14  C   UNL     1       6.296   5.533  15.799  0.00  0.00    +0.000 C 
BRANCH  14  16
ATOM     15  N   UNL     1       6.326   4.482  13.577  0.00  0.00    +0.000 N 
ATOM     16  C   UNL     1       6.153   4.290  14.934  0.00  0.00    +0.000 C 
ATOM     17  O   UNL     1       5.894   3.193  15.426  0.00  0.00    +0.000 OA
ATOM     18  H   UNL     1       6.706   5.373  13.258  0.00  0.00    +0.000 HD
BRANCH  15  19
ATOM     19  C   UNL     1       6.183   3.391  12.624  0.00  0.00    +0.000 C 
BRANCH  19  20
ATOM     20  C   UNL     1       4.737   3.212  12.153  0.00  0.00    +0.000 C 
BRANCH  20  21
ATOM     21  C   UNL     1       4.506   3.823  10.771  0.00  0.00    +0.000 C 
BRANCH  21  23
ATOM     22  C   UNL     1       2.658   4.362   9.398  0.00  0.00    +0.000 C 
ATOM     23  O   UNL     1       3.234   3.408  10.278  0.00  0.00    +0.000 OA
ENDBRANCH  21  23
ENDBRANCH  20  21
ENDBRANCH  19  20
ENDBRANCH  15  19
ENDBRANCH  14  16
ENDBRANCH   1  14
TORSDOF 8
ENDMDL
MODEL 8
REMARK VINA RESULT:      -6.5      1.058      1.380
REMARK  Name = 
REMARK  11 active torsions:
REMARK  status: ('A' for Active; 'I' for Inactive)
REMARK    1  A    between atoms: C_1  and  O_2
REMARK    2  A    between atoms: O_2  and  C_3
REMARK    3  A    between atoms: C_3  and  C_4
REMARK    4  A    between atoms: C_4  and  C_5
REMARK    5  A    between atoms: C_5  and  N_6
REMARK    6  A    between atoms: C_7  and  C_9
REMARK    7  A    between atoms: C_9  and  N_10
REMARK    8  A    between atoms: N_10  and  C_11
REMARK    9  A    between atoms: N_10  and  S_19
REMARK   10  A    between atoms: C_17  and  C_18
REMARK   11  A    between atoms: S_19  and  C_20
REMARK                            x       y       z     vdW  Elec       q    Type
REMARK                         _______ _______ _______ _____ _____    ______ ____
ROOT
ATOM      1  N   UNL     1       5.848   5.535  17.273  0.00  0.00    +0.000 N 
ENDROOT
BRANCH   1   2
ATOM      2  C   UNL     1       4.472   5.549  17.709  0.00  0.00    +0.000 A 
ATOM      3  C   UNL     1       3.916   6.807  17.974  0.00  0.00    +0.000 A 
ATOM      4  C   UNL     1       2.571   6.929  18.324  0.00  0.00    +0.000 A 
ATOM      5  C   UNL     1       1.779   5.797  18.400  0.00  0.00    +0.000 A 
ATOM      6  C   UNL     1       2.326   4.529  18.151  0.00  0.00    +0.000 A 
ATOM      7 CL   UNL     1       1.237   3.187  18.254  0.00  0.00    +0.000 Cl
ATOM      8  C   UNL     1       3.689   4.379  17.821  0.00  0.00    +0.000 A 
ATOM      9  C   UNL     1       4.283   3.019  17.551  0.00  0.00    +0.000 C 
ENDBRANCH   1   2
BRANCH   1  10
ATOM     10  S   UNL     1       7.044   5.300  18.447  0.00  0.00    +0.000 S 
ATOM     11  C   UNL     1       7.897   6.862  18.419  0.00  0.00    +0.000 C 
ATOM     12  O   UNL     1       6.390   5.206  19.742  0.00  0.00    +0.000 OA
ATOM     13  O   UNL     1       7.974   4.283  18.010  0.00  0.00    +0.000 OA
ENDBRANCH   1  10
BRANCH   1  14
ATOM     14  C   UNL     1       6.222   6.270  16.047  0.00  0.00    +0.000 C 
BRANCH  14  16
ATOM     15  N   UNL     1       5.597   4.550  14.406  0.00  0.00    +0.000 N 
ATOM     16  C   UNL     1       6.612   5.343  14.906  0.00  0.00    +0.000 C 
ATOM     17  O   UNL     1       7.762   5.310  14.470  0.00  0.00    +0.000 OA
ATOM     18  H   UNL     1       4.639   4.750  14.692  0.00  0.00    +0.000 HD
BRANCH  15  19
ATOM     19  C   UNL     1       5.831   3.589  13.338  0.00  0.00    +0.000 C 
BRANCH  19  20
ATOM     20  C   UNL     1       4.801   3.706  12.210  0.00  0.00    +0.000 C 
BRANCH  20  21
ATOM     21  C   UNL     1       4.934   2.572  11.195  0.00  0.00    +0.000 C 
BRANCH  21  23
ATOM     22  C   UNL     1       6.849   1.228  10.850  0.00  0.00    +0.000 C 
ATOM     23  O   UNL     1       5.782   1.558  11.728  0.00  0.00    +0.000 OA
ENDBRANCH  21  23
ENDBRANCH  20  21
ENDBRANCH  19  20
ENDBRANCH  15  19
ENDBRANCH  14  16
ENDBRANCH   1  14
TORSDOF 8
ENDMDL
MODEL 9
REMARK VINA RESULT:      -6.5      2.896      4.507
REMARK  Name = 
REMARK  11 active torsions:
REMARK  status: ('A' for Active; 'I' for Inactive)
REMARK    1  A    between atoms: C_1  and  O_2
REMARK    2  A    between atoms: O_2  and  C_3
REMARK    3  A    between atoms: C_3  and  C_4
REMARK    4  A    between atoms: C_4  and  C_5
REMARK    5  A    between atoms: C_5  and  N_6
REMARK    6  A    between atoms: C_7  and  C_9
REMARK    7  A    between atoms: C_9  and  N_10
REMARK    8  A    between atoms: N_10  and  C_11
REMARK    9  A    between atoms: N_10  and  S_19
REMARK   10  A    between atoms: C_17  and  C_18
REMARK   11  A    between atoms: S_19  and  C_20
REMARK                            x       y       z     vdW  Elec       q    Type
REMARK                         _______ _______ _______ _____ _____    ______ ____
ROOT
ATOM      1  N   UNL     1       3.555   4.476  19.205  0.00  0.00    +0.000 N 
ENDROOT
BRANCH   1   2
ATOM      2  C   UNL     1       2.827   5.706  19.399  0.00  0.00    +0.000 A 
ATOM      3  C   UNL     1       2.051   5.793  20.563  0.00  0.00    +0.000 A 
ATOM      4  C   UNL     1       1.374   6.971  20.878  0.00  0.00    +0.000 A 
ATOM      5  C   UNL     1       1.478   8.066  20.037  0.00  0.00    +0.000 A 
ATOM      6  C   UNL     1       2.241   7.989  18.862  0.00  0.00    +0.000 A 
ATOM      7 CL   UNL     1       2.318   9.426  17.899  0.00  0.00    +0.000 Cl
ATOM      8  C   UNL     1       2.913   6.800  18.510  0.00  0.00    +0.000 A 
ATOM      9  C   UNL     1       3.735   6.710  17.249  0.00  0.00    +0.000 C 
ENDBRANCH   1   2
BRANCH   1  10
ATOM     10  S   UNL     1       2.689   3.123  18.673  0.00  0.00    +0.000 S 
ATOM     11  C   UNL     1       1.369   3.874  17.745  0.00  0.00    +0.000 C 
ATOM     12  O   UNL     1       3.516   2.408  17.715  0.00  0.00    +0.000 OA
ATOM     13  O   UNL     1       2.098   2.437  19.801  0.00  0.00    +0.000 OA
ENDBRANCH   1  10
BRANCH   1  14
ATOM     14  C   UNL     1       4.791   4.240  19.980  0.00  0.00    +0.000 C 
BRANCH  14  16
ATOM     15  N   UNL     1       6.208   4.156  17.975  0.00  0.00    +0.000 N 
ATOM     16  C   UNL     1       6.041   4.687  19.238  0.00  0.00    +0.000 C 
ATOM     17  O   UNL     1       6.843   5.468  19.747  0.00  0.00    +0.000 OA
ATOM     18  H   UNL     1       5.427   3.657  17.550  0.00  0.00    +0.000 HD
BRANCH  15  19
ATOM     19  C   UNL     1       7.376   4.466  17.162  0.00  0.00    +0.000 C 
BRANCH  19  20
ATOM     20  C   UNL     1       7.020   4.692  15.690  0.00  0.00    +0.000 C 
BRANCH  20  21
ATOM     21  C   UNL     1       5.659   4.095  15.333  0.00  0.00    +0.000 C 
BRANCH  21  23
ATOM     22  C   UNL     1       6.378   3.737  13.108  0.00  0.00    +0.000 C 
ATOM     23  O   UNL     1       5.394   4.321  13.950  0.00  0.00    +0.000 OA
ENDBRANCH  21  23
ENDBRANCH  20  21
ENDBRANCH  19  20
ENDBRANCH  15  19
ENDBRANCH  14  16
ENDBRANCH   1  14
TORSDOF 8
ENDMDL
