MODEL 1
REMARK VINA RESULT:      -9.2      0.000      0.000
REMARK  Name = 
REMARK  3 active torsions:
REMARK  status: ('A' for Active; 'I' for Inactive)
REMARK    1  A    between atoms: C_1  and  C_2
REMARK    2  A    between atoms: N_5  and  C_6
REMARK    3  A    between atoms: C_17  and  C_18
REMARK                            x       y       z     vdW  Elec       q    Type
REMARK                         _______ _______ _______ _____ _____    ______ ____
ROOT
ATOM      1  C   UNL     1       2.103   3.573  21.649  0.00  0.00    +0.000 C 
ATOM      2  C   UNL     1       2.368   4.690  20.686  0.00  0.00    +0.000 A 
ATOM      3  N   UNL     1       3.236   4.463  19.677  0.00  0.00    +0.000 NA
ATOM      4  C   UNL     1       3.313   5.404  18.731  0.00  0.00    +0.000 A 
ATOM      5  N   UNL     1       4.215   5.333  17.670  0.00  0.00    +0.000 N 
ATOM      6  C   UNL     1       2.540   6.540  18.780  0.00  0.00    +0.000 A 
ATOM      7  C   UNL     1       1.826   6.784  19.934  0.00  0.00    +0.000 A 
ATOM      8  N   UNL     1       1.687   5.837  20.880  0.00  0.00    +0.000 NA
ATOM      9  H   UNL     1       3.713   5.266  16.789  0.00  0.00    +0.000 HD
ENDROOT
BRANCH   5  10
ATOM     10  C   UNL     1       5.380   4.457  17.739  0.00  0.00    +0.000 C 
ATOM     11  C   UNL     1       6.399   4.995  18.760  0.00  0.00    +0.000 C 
ATOM     12  C   UNL     1       7.042   6.306  18.308  0.00  0.00    +0.000 C 
ATOM     13  C   UNL     1       7.738   6.169  16.957  0.00  0.00    +0.000 C 
ATOM     14  C   UNL     1       6.998   5.325  15.951  0.00  0.00    +0.000 A 
ATOM     15  C   UNL     1       7.392   5.380  14.605  0.00  0.00    +0.000 A 
ATOM     16  C   UNL     1       6.782   4.569  13.649  0.00  0.00    +0.000 A 
ATOM     17  C   UNL     1       5.788   3.674  14.029  0.00  0.00    +0.000 A 
ATOM     18  C   UNL     1       5.382   3.611  15.361  0.00  0.00    +0.000 A 
ATOM     19  C   UNL     1       5.969   4.441  16.333  0.00  0.00    +0.000 A 
ENDBRANCH   5  10
BRANCH   7  20
ATOM     20  C   UNL     1       1.298   8.131  20.236  0.00  0.00    +0.000 A 
ATOM     21  C   UNL     1       1.403   9.203  19.345  0.00  0.00    +0.000 A 
ATOM     22  C   UNL     1       0.850  10.457  19.656  0.00  0.00    +0.000 A 
ATOM     23  C   UNL     1       0.173  10.693  20.847  0.00  0.00    +0.000 A 
ATOM     24  N   UNL     1      -0.345  11.907  21.114  0.00  0.00    +0.000 NA
ATOM     25  C   UNL     1      -1.006  12.074  22.283  0.00  0.00    +0.000 A 
ATOM     26  C   UNL     1      -1.184  11.077  23.223  0.00  0.00    +0.000 A 
ATOM     27  C   UNL     1      -0.647   9.829  22.947  0.00  0.00    +0.000 A 
ATOM     28  C   UNL     1       0.046   9.620  21.747  0.00  0.00    +0.000 A 
ATOM     29  C   UNL     1       0.597   8.367  21.435  0.00  0.00    +0.000 A 
ENDBRANCH   7  20
TORSDOF 2
ENDMDL
MODEL 2
REMARK VINA RESULT:      -8.9      0.779      1.549
REMARK  Name = 
REMARK  3 active torsions:
REMARK  status: ('A' for Active; 'I' for Inactive)
REMARK    1  A    between atoms: C_1  and  C_2
REMARK    2  A    between atoms: N_5  and  C_6
REMARK    3  A    between atoms: C_17  and  C_18
REMARK                            x       y       z     vdW  Elec       q    Type
REMARK                         _______ _______ _______ _____ _____    ______ ____
ROOT
ATOM      1  C   UNL     1       1.765   3.497  21.490  0.00  0.00    +0.000 C 
ATOM      2  C   UNL     1       2.164   4.730  20.738  0.00  0.00    +0.000 A 
ATOM      3  N   UNL     1       3.131   4.615  19.803  0.00  0.00    +0.000 NA
ATOM      4  C   UNL     1       3.337   5.681  19.022  0.00  0.00    +0.000 A 
ATOM      5  N   UNL     1       4.346   5.727  18.062  0.00  0.00    +0.000 N 
ATOM      6  C   UNL     1       2.594   6.830  19.159  0.00  0.00    +0.000 A 
ATOM      7  C   UNL     1       1.765   6.933  20.257  0.00  0.00    +0.000 A 
ATOM      8  N   UNL     1       1.498   5.865  21.030  0.00  0.00    +0.000 NA
ATOM      9  H   UNL     1       3.942   5.811  17.133  0.00  0.00    +0.000 HD
ENDROOT
BRANCH   5  10
ATOM     10  C   UNL     1       5.473   4.801  18.119  0.00  0.00    +0.000 C 
ATOM     11  C   UNL     1       6.611   5.389  18.973  0.00  0.00    +0.000 C 
ATOM     12  C   UNL     1       7.263   6.606  18.317  0.00  0.00    +0.000 C 
ATOM     13  C   UNL     1       7.815   6.286  16.931  0.00  0.00    +0.000 C 
ATOM     14  C   UNL     1       6.942   5.380  16.101  0.00  0.00    +0.000 A 
ATOM     15  C   UNL     1       7.203   5.267  14.726  0.00  0.00    +0.000 A 
ATOM     16  C   UNL     1       6.465   4.393  13.929  0.00  0.00    +0.000 A 
ATOM     17  C   UNL     1       5.475   3.600  14.500  0.00  0.00    +0.000 A 
ATOM     18  C   UNL     1       5.202   3.703  15.863  0.00  0.00    +0.000 A 
ATOM     19  C   UNL     1       5.918   4.600  16.675  0.00  0.00    +0.000 A 
ENDBRANCH   5  10
BRANCH   7  20
ATOM     20  C   UNL     1       1.244   8.243  20.700  0.00  0.00    +0.000 A 
ATOM     21  C   UNL     1       0.926   8.520  22.033  0.00  0.00    +0.000 A 
ATOM     22  C   UNL     1       0.471   9.793  22.416  0.00  0.00    +0.000 A 
ATOM     23  C   UNL     1       0.321  10.832  21.505  0.00  0.00    +0.000 A 
ATOM     24  N   UNL     1      -0.117  12.040  21.907  0.00  0.00    +0.000 NA
ATOM     25  C   UNL     1      -0.231  13.017  20.977  0.00  0.00    +0.000 A 
ATOM     26  C   UNL     1       0.075  12.855  19.640  0.00  0.00    +0.000 A 
ATOM     27  C   UNL     1       0.524  11.609  19.228  0.00  0.00    +0.000 A 
ATOM     28  C   UNL     1       0.651  10.573  20.162  0.00  0.00    +0.000 A 
ATOM     29  C   UNL     1       1.107   9.302  19.780  0.00  0.00    +0.000 A 
ENDBRANCH   7  20
TORSDOF 2
ENDMDL
MODEL 3
REMARK VINA RESULT:      -8.3      1.009      1.259
REMARK  Name = 
REMARK  3 active torsions:
REMARK  status: ('A' for Active; 'I' for Inactive)
REMARK    1  A    between atoms: C_1  and  C_2
REMARK    2  A    between atoms: N_5  and  C_6
REMARK    3  A    between atoms: C_17  and  C_18
REMARK                            x       y       z     vdW  Elec       q    Type
REMARK                         _______ _______ _______ _____ _____    ______ ____
ROOT
ATOM      1  C   UNL     1       3.011   2.858  20.826  0.00  0.00    +0.000 C 
ATOM      2  C   UNL     1       3.087   3.989  19.846  0.00  0.00    +0.000 A 
ATOM      3  N   UNL     1       3.808   3.804  18.720  0.00  0.00    +0.000 NA
ATOM      4  C   UNL     1       3.708   4.753  17.783  0.00  0.00    +0.000 A 
ATOM      5  N   UNL     1       4.447   4.724  16.601  0.00  0.00    +0.000 N 
ATOM      6  C   UNL     1       2.904   5.855  17.955  0.00  0.00    +0.000 A 
ATOM      7  C   UNL     1       2.357   6.063  19.204  0.00  0.00    +0.000 A 
ATOM      8  N   UNL     1       2.396   5.106  20.149  0.00  0.00    +0.000 NA
ATOM      9  H   UNL     1       3.825   4.641  15.801  0.00  0.00    +0.000 HD
ENDROOT
BRANCH   5  10
ATOM     10  C   UNL     1       5.645   3.898  16.490  0.00  0.00    +0.000 C 
ATOM     11  C   UNL     1       6.738   4.402  17.449  0.00  0.00    +0.000 C 
ATOM     12  C   UNL     1       7.286   5.770  17.042  0.00  0.00    +0.000 C 
ATOM     13  C   UNL     1       7.851   5.764  15.624  0.00  0.00    +0.000 C 
ATOM     14  C   UNL     1       7.046   4.966  14.630  0.00  0.00    +0.000 A 
ATOM     15  C   UNL     1       7.305   5.138  13.261  0.00  0.00    +0.000 A 
ATOM     16  C   UNL     1       6.634   4.375  12.307  0.00  0.00    +0.000 A 
ATOM     17  C   UNL     1       5.715   3.411  12.709  0.00  0.00    +0.000 A 
ATOM     18  C   UNL     1       5.444   3.231  14.064  0.00  0.00    +0.000 A 
ATOM     19  C   UNL     1       6.093   4.012  15.038  0.00  0.00    +0.000 A 
ENDBRANCH   5  10
BRANCH   7  20
ATOM     20  C   UNL     1       1.824   7.385  19.594  0.00  0.00    +0.000 A 
ATOM     21  C   UNL     1       1.792   8.477  18.721  0.00  0.00    +0.000 A 
ATOM     22  C   UNL     1       1.239   9.705  19.122  0.00  0.00    +0.000 A 
ATOM     23  C   UNL     1       0.695   9.895  20.387  0.00  0.00    +0.000 A 
ATOM     24  N   UNL     1       0.173  11.086  20.738  0.00  0.00    +0.000 NA
ATOM     25  C   UNL     1      -0.354  11.208  21.978  0.00  0.00    +0.000 A 
ATOM     26  C   UNL     1      -0.391  10.189  22.910  0.00  0.00    +0.000 A 
ATOM     27  C   UNL     1       0.150   8.965  22.547  0.00  0.00    +0.000 A 
ATOM     28  C   UNL     1       0.707   8.802  21.272  0.00  0.00    +0.000 A 
ATOM     29  C   UNL     1       1.258   7.575  20.871  0.00  0.00    +0.000 A 
ENDBRANCH   7  20
TORSDOF 2
ENDMDL
MODEL 4
REMARK VINA RESULT:      -8.0      1.130      2.082
REMARK  Name = 
REMARK  3 active torsions:
REMARK  status: ('A' for Active; 'I' for Inactive)
REMARK    1  A    between atoms: C_1  and  C_2
REMARK    2  A    between atoms: N_5  and  C_6
REMARK    3  A    between atoms: C_17  and  C_18
REMARK                            x       y       z     vdW  Elec       q    Type
REMARK                         _______ _______ _______ _____ _____    ______ ____
ROOT
ATOM      1  C   UNL     1       1.748   3.962  21.491  0.00  0.00    +0.000 C 
ATOM      2  C   UNL     1       2.107   4.964  20.437  0.00  0.00    +0.000 A 
ATOM      3  N   UNL     1       2.880   4.552  19.409  0.00  0.00    +0.000 NA
ATOM      4  C   UNL     1       3.031   5.409  18.394  0.00  0.00    +0.000 A 
ATOM      5  N   UNL     1       3.854   5.142  17.301  0.00  0.00    +0.000 N 
ATOM      6  C   UNL     1       2.422   6.642  18.393  0.00  0.00    +0.000 A 
ATOM      7  C   UNL     1       1.813   7.059  19.558  0.00  0.00    +0.000 A 
ATOM      8  N   UNL     1       1.600   6.205  20.576  0.00  0.00    +0.000 NA
ATOM      9  H   UNL     1       3.300   5.087  16.451  0.00  0.00    +0.000 HD
ENDROOT
BRANCH   5  10
ATOM     10  C   UNL     1       4.893   4.120  17.381  0.00  0.00    +0.000 C 
ATOM     11  C   UNL     1       5.743   4.314  18.649  0.00  0.00    +0.000 C 
ATOM     12  C   UNL     1       6.587   5.587  18.596  0.00  0.00    +0.000 C 
ATOM     13  C   UNL     1       7.514   5.613  17.384  0.00  0.00    +0.000 C 
ATOM     14  C   UNL     1       6.902   5.081  16.113  0.00  0.00    +0.000 A 
ATOM     15  C   UNL     1       7.552   5.333  14.894  0.00  0.00    +0.000 A 
ATOM     16  C   UNL     1       7.060   4.807  13.701  0.00  0.00    +0.000 A 
ATOM     17  C   UNL     1       5.928   3.999  13.712  0.00  0.00    +0.000 A 
ATOM     18  C   UNL     1       5.269   3.742  14.914  0.00  0.00    +0.000 A 
ATOM     19  C   UNL     1       5.737   4.288  16.123  0.00  0.00    +0.000 A 
ENDBRANCH   5  10
BRANCH   7  20
ATOM     20  C   UNL     1       1.489   8.483  19.783  0.00  0.00    +0.000 A 
ATOM     21  C   UNL     1       0.834   8.939  20.931  0.00  0.00    +0.000 A 
ATOM     22  C   UNL     1       0.581  10.308  21.122  0.00  0.00    +0.000 A 
ATOM     23  C   UNL     1       0.970  11.269  20.197  0.00  0.00    +0.000 A 
ATOM     24  N   UNL     1       0.713  12.573  20.411  0.00  0.00    +0.000 NA
ATOM     25  C   UNL     1       1.126  13.465  19.481  0.00  0.00    +0.000 A 
ATOM     26  C   UNL     1       1.798  13.123  18.324  0.00  0.00    +0.000 A 
ATOM     27  C   UNL     1       2.060  11.779  18.103  0.00  0.00    +0.000 A 
ATOM     28  C   UNL     1       1.644  10.828  19.043  0.00  0.00    +0.000 A 
ATOM     29  C   UNL     1       1.896   9.460  18.854  0.00  0.00    +0.000 A 
ENDBRANCH   7  20
TORSDOF 2
ENDMDL
MODEL 5
REMARK VINA RESULT:      -8.0      2.931      9.954
REMARK  Name = 
REMARK  3 active torsions:
REMARK  status: ('A' for Active; 'I' for Inactive)
REMARK    1  A    between atoms: C_1  and  C_2
REMARK    2  A    between atoms: N_5  and  C_6
REMARK    3  A    between atoms: C_17  and  C_18
REMARK                            x       y       z     vdW  Elec       q    Type
REMARK                         _______ _______ _______ _____ _____    ______ ____
ROOT
ATOM      1  C   UNL     1       2.561  13.338  17.907  0.00  0.00    +0.000 C 
ATOM      2  C   UNL     1       1.747  12.226  18.495  0.00  0.00    +0.000 A 
ATOM      3  N   UNL     1       0.617  12.552  19.159  0.00  0.00    +0.000 NA
ATOM      4  C   UNL     1      -0.184  11.540  19.509  0.00  0.00    +0.000 A 
ATOM      5  N   UNL     1      -1.346  11.724  20.257  0.00  0.00    +0.000 N 
ATOM      6  C   UNL     1       0.124  10.236  19.200  0.00  0.00    +0.000 A 
ATOM      7  C   UNL     1       1.381   9.975  18.695  0.00  0.00    +0.000 A 
ATOM      8  N   UNL     1       2.187  10.970  18.285  0.00  0.00    +0.000 NA
ATOM      9  H   UNL     1      -2.160  11.455  19.710  0.00  0.00    +0.000 HD
ENDROOT
BRANCH   5  10
ATOM     10  C   UNL     1      -1.549  12.944  21.032  0.00  0.00    +0.000 C 
ATOM     11  C   UNL     1      -0.850  12.836  22.399  0.00  0.00    +0.000 C 
ATOM     12  C   UNL     1      -1.505  11.797  23.309  0.00  0.00    +0.000 C 
ATOM     13  C   UNL     1      -2.984  12.089  23.544  0.00  0.00    +0.000 C 
ATOM     14  C   UNL     1      -3.729  12.578  22.329  0.00  0.00    +0.000 A 
ATOM     15  C   UNL     1      -5.133  12.589  22.357  0.00  0.00    +0.000 A 
ATOM     16  C   UNL     1      -5.865  13.094  21.284  0.00  0.00    +0.000 A 
ATOM     17  C   UNL     1      -5.204  13.621  20.179  0.00  0.00    +0.000 A 
ATOM     18  C   UNL     1      -3.810  13.614  20.134  0.00  0.00    +0.000 A 
ATOM     19  C   UNL     1      -3.058  13.084  21.197  0.00  0.00    +0.000 A 
ENDBRANCH   5  10
BRANCH   7  20
ATOM     20  C   UNL     1       1.938   8.606  18.705  0.00  0.00    +0.000 A 
ATOM     21  C   UNL     1       2.852   8.153  17.749  0.00  0.00    +0.000 A 
ATOM     22  C   UNL     1       3.387   6.855  17.821  0.00  0.00    +0.000 A 
ATOM     23  C   UNL     1       3.047   5.968  18.835  0.00  0.00    +0.000 A 
ATOM     24  N   UNL     1       3.579   4.732  18.874  0.00  0.00    +0.000 NA
ATOM     25  C   UNL     1       3.220   3.916  19.892  0.00  0.00    +0.000 A 
ATOM     26  C   UNL     1       2.342   4.271  20.897  0.00  0.00    +0.000 A 
ATOM     27  C   UNL     1       1.793   5.544  20.855  0.00  0.00    +0.000 A 
ATOM     28  C   UNL     1       2.139   6.414  19.813  0.00  0.00    +0.000 A 
ATOM     29  C   UNL     1       1.606   7.711  19.742  0.00  0.00    +0.000 A 
ENDBRANCH   7  20
TORSDOF 2
ENDMDL
MODEL 6
REMARK VINA RESULT:      -7.9      2.599     10.324
REMARK  Name = 
REMARK  3 active torsions:
REMARK  status: ('A' for Active; 'I' for Inactive)
REMARK    1  A    between atoms: C_1  and  C_2
REMARK    2  A    between atoms: N_5  and  C_6
REMARK    3  A    between atoms: C_17  and  C_18
REMARK                            x       y       z     vdW  Elec       q    Type
REMARK                         _______ _______ _______ _____ _____    ______ ____
ROOT
ATOM      1  C   UNL     1       2.198  13.387  18.037  0.00  0.00    +0.000 C 
ATOM      2  C   UNL     1       1.364  12.315  18.669  0.00  0.00    +0.000 A 
ATOM      3  N   UNL     1       0.173  12.669  19.199  0.00  0.00    +0.000 NA
ATOM      4  C   UNL     1      -0.629  11.672  19.587  0.00  0.00    +0.000 A 
ATOM      5  N   UNL     1      -1.856  11.893  20.211  0.00  0.00    +0.000 N 
ATOM      6  C   UNL     1      -0.264  10.354  19.444  0.00  0.00    +0.000 A 
ATOM      7  C   UNL     1       1.038  10.085  19.076  0.00  0.00    +0.000 A 
ATOM      8  N   UNL     1       1.852  11.059  18.630  0.00  0.00    +0.000 NA
ATOM      9  H   UNL     1      -2.613  11.542  19.631  0.00  0.00    +0.000 HD
ENDROOT
BRANCH   5  10
ATOM     10  C   UNL     1      -2.155  13.179  20.834  0.00  0.00    +0.000 C 
ATOM     11  C   UNL     1      -1.356  13.345  22.139  0.00  0.00    +0.000 C 
ATOM     12  C   UNL     1      -1.813  12.376  23.230  0.00  0.00    +0.000 C 
ATOM     13  C   UNL     1      -3.297  12.529  23.550  0.00  0.00    +0.000 C 
ATOM     14  C   UNL     1      -4.178  12.754  22.348  0.00  0.00    +0.000 A 
ATOM     15  C   UNL     1      -5.568  12.609  22.494  0.00  0.00    +0.000 A 
ATOM     16  C   UNL     1      -6.428  12.872  21.429  0.00  0.00    +0.000 A 
ATOM     17  C   UNL     1      -5.915  13.309  20.212  0.00  0.00    +0.000 A 
ATOM     18  C   UNL     1      -4.539  13.455  20.051  0.00  0.00    +0.000 A 
ATOM     19  C   UNL     1      -3.655  13.168  21.107  0.00  0.00    +0.000 A 
ENDBRANCH   5  10
BRANCH   7  20
ATOM     20  C   UNL     1       1.626   8.744  19.276  0.00  0.00    +0.000 A 
ATOM     21  C   UNL     1       1.386   7.974  20.419  0.00  0.00    +0.000 A 
ATOM     22  C   UNL     1       1.934   6.687  20.550  0.00  0.00    +0.000 A 
ATOM     23  C   UNL     1       2.727   6.115  19.562  0.00  0.00    +0.000 A 
ATOM     24  N   UNL     1       3.236   4.879  19.720  0.00  0.00    +0.000 NA
ATOM     25  C   UNL     1       3.990   4.369  18.719  0.00  0.00    +0.000 A 
ATOM     26  C   UNL     1       4.272   5.035  17.543  0.00  0.00    +0.000 A 
ATOM     27  C   UNL     1       3.749   6.310  17.383  0.00  0.00    +0.000 A 
ATOM     28  C   UNL     1       2.966   6.871  18.400  0.00  0.00    +0.000 A 
ATOM     29  C   UNL     1       2.417   8.156  18.269  0.00  0.00    +0.000 A 
ENDBRANCH   7  20
TORSDOF 2
ENDMDL
MODEL 7
REMARK VINA RESULT:      -7.8      1.183      1.860
REMARK  Name = 
REMARK  3 active torsions:
REMARK  status: ('A' for Active; 'I' for Inactive)
REMARK    1  A    between atoms: C_1  and  C_2
REMARK    2  A    between atoms: N_5  and  C_6
REMARK    3  A    between atoms: C_17  and  C_18
REMARK                            x       y       z     vdW  Elec       q    Type
REMARK                         _______ _______ _______ _____ _____    ______ ____
ROOT
ATOM      1  C   UNL     1       2.670   2.834  21.018  0.00  0.00    +0.000 C 
ATOM      2  C   UNL     1       2.830   4.013  20.108  0.00  0.00    +0.000 A 
ATOM      3  N   UNL     1       3.617   3.870  19.020  0.00  0.00    +0.000 NA
ATOM      4  C   UNL     1       3.595   4.869  18.131  0.00  0.00    +0.000 A 
ATOM      5  N   UNL     1       4.407   4.886  16.998  0.00  0.00    +0.000 N 
ATOM      6  C   UNL     1       2.804   5.979  18.312  0.00  0.00    +0.000 A 
ATOM      7  C   UNL     1       2.183   6.133  19.534  0.00  0.00    +0.000 A 
ATOM      8  N   UNL     1       2.143   5.127  20.427  0.00  0.00    +0.000 NA
ATOM      9  H   UNL     1       3.835   4.858  16.157  0.00  0.00    +0.000 HD
ENDROOT
BRANCH   5  10
ATOM     10  C   UNL     1       5.592   4.039  16.917  0.00  0.00    +0.000 C 
ATOM     11  C   UNL     1       6.674   4.531  17.895  0.00  0.00    +0.000 C 
ATOM     12  C   UNL     1       7.252   5.887  17.491  0.00  0.00    +0.000 C 
ATOM     13  C   UNL     1       7.847   5.863  16.086  0.00  0.00    +0.000 C 
ATOM     14  C   UNL     1       7.050   5.072  15.080  0.00  0.00    +0.000 A 
ATOM     15  C   UNL     1       7.340   5.230  13.715  0.00  0.00    +0.000 A 
ATOM     16  C   UNL     1       6.676   4.472  12.752  0.00  0.00    +0.000 A 
ATOM     17  C   UNL     1       5.733   3.527  13.141  0.00  0.00    +0.000 A 
ATOM     18  C   UNL     1       5.432   3.360  14.491  0.00  0.00    +0.000 A 
ATOM     19  C   UNL     1       6.073   4.136  15.473  0.00  0.00    +0.000 A 
ENDBRANCH   5  10
BRANCH   7  20
ATOM     20  C   UNL     1       1.652   7.445  19.961  0.00  0.00    +0.000 A 
ATOM     21  C   UNL     1       1.100   7.664  21.227  0.00  0.00    +0.000 A 
ATOM     22  C   UNL     1       0.644   8.938  21.604  0.00  0.00    +0.000 A 
ATOM     23  C   UNL     1       0.722  10.035  20.754  0.00  0.00    +0.000 A 
ATOM     24  N   UNL     1       0.276  11.243  21.149  0.00  0.00    +0.000 NA
ATOM     25  C   UNL     1       0.390  12.277  20.283  0.00  0.00    +0.000 A 
ATOM     26  C   UNL     1       0.937  12.174  19.019  0.00  0.00    +0.000 A 
ATOM     27  C   UNL     1       1.393  10.929  18.614  0.00  0.00    +0.000 A 
ATOM     28  C   UNL     1       1.289   9.834  19.482  0.00  0.00    +0.000 A 
ATOM     29  C   UNL     1       1.745   8.562  19.106  0.00  0.00    +0.000 A 
ENDBRANCH   7  20
TORSDOF 2
ENDMDL
MODEL 8
REMARK VINA RESULT:      -7.8      2.899      5.173
REMARK  Name = 
REMARK  3 active torsions:
REMARK  status: ('A' for Active; 'I' for Inactive)
REMARK    1  A    between atoms: C_1  and  C_2
REMARK    2  A    between atoms: N_5  and  C_6
REMARK    3  A    between atoms: C_17  and  C_18
REMARK                            x       y       z     vdW  Elec       q    Type
REMARK                         _______ _______ _______ _____ _____    ______ ____
ROOT
ATOM      1  C   UNL     1       0.933   9.026  23.549  0.00  0.00    +0.000 C 
ATOM      2  C   UNL     1       1.103   9.252  22.077  0.00  0.00    +0.000 A 
ATOM      3  N   UNL     1       1.592   8.237  21.333  0.00  0.00    +0.000 NA
ATOM      4  C   UNL     1       1.558   8.398  20.007  0.00  0.00    +0.000 A 
ATOM      5  N   UNL     1       2.091   7.461  19.121  0.00  0.00    +0.000 N 
ATOM      6  C   UNL     1       1.043   9.535  19.430  0.00  0.00    +0.000 A 
ATOM      7  C   UNL     1       0.745  10.597  20.258  0.00  0.00    +0.000 A 
ATOM      8  N   UNL     1       0.718  10.451  21.596  0.00  0.00    +0.000 NA
ATOM      9  H   UNL     1       1.354   7.070  18.541  0.00  0.00    +0.000 HD
ENDROOT
BRANCH   5  10
ATOM     10  C   UNL     1       3.054   6.465  19.579  0.00  0.00    +0.000 C 
ATOM     11  C   UNL     1       4.327   6.511  18.716  0.00  0.00    +0.000 C 
ATOM     12  C   UNL     1       4.077   6.041  17.283  0.00  0.00    +0.000 C 
ATOM     13  C   UNL     1       3.509   4.626  17.232  0.00  0.00    +0.000 C 
ATOM     14  C   UNL     1       2.487   4.321  18.297  0.00  0.00    +0.000 A 
ATOM     15  C   UNL     1       1.694   3.170  18.161  0.00  0.00    +0.000 A 
ATOM     16  C   UNL     1       0.782   2.810  19.151  0.00  0.00    +0.000 A 
ATOM     17  C   UNL     1       0.668   3.580  20.304  0.00  0.00    +0.000 A 
ATOM     18  C   UNL     1       1.445   4.728  20.453  0.00  0.00    +0.000 A 
ATOM     19  C   UNL     1       2.351   5.119  19.450  0.00  0.00    +0.000 A 
ENDBRANCH   5  10
BRANCH   7  20
ATOM     20  C   UNL     1       0.570  11.961  19.718  0.00  0.00    +0.000 A 
ATOM     21  C   UNL     1      -0.315  12.256  18.676  0.00  0.00    +0.000 A 
ATOM     22  C   UNL     1      -0.479  13.576  18.221  0.00  0.00    +0.000 A 
ATOM     23  C   UNL     1       0.215  14.643  18.778  0.00  0.00    +0.000 A 
ATOM     24  N   UNL     1       0.034  15.896  18.317  0.00  0.00    +0.000 NA
ATOM     25  C   UNL     1       0.727  16.897  18.907  0.00  0.00    +0.000 A 
ATOM     26  C   UNL     1       1.610  16.718  19.953  0.00  0.00    +0.000 A 
ATOM     27  C   UNL     1       1.797  15.427  20.425  0.00  0.00    +0.000 A 
ATOM     28  C   UNL     1       1.099  14.365  19.837  0.00  0.00    +0.000 A 
ATOM     29  C   UNL     1       1.261  13.047  20.292  0.00  0.00    +0.000 A 
ENDBRANCH   7  20
TORSDOF 2
ENDMDL
MODEL 9
REMARK VINA RESULT:      -7.8      4.576     11.591
REMARK  Name = 
REMARK  3 active torsions:
REMARK  status: ('A' for Active; 'I' for Inactive)
REMARK    1  A    between atoms: C_1  and  C_2
REMARK    2  A    between atoms: N_5  and  C_6
REMARK    3  A    between atoms: C_17  and  C_18
REMARK                            x       y       z     vdW  Elec       q    Type
REMARK                         _______ _______ _______ _____ _____    ______ ____
ROOT
ATOM      1  C   UNL     1      -1.812  14.191  23.821  0.00  0.00    +0.000 C 
ATOM      2  C   UNL     1      -2.035  13.367  22.589  0.00  0.00    +0.000 A 
ATOM      3  N   UNL     1      -3.159  13.589  21.874  0.00  0.00    +0.000 NA
ATOM      4  C   UNL     1      -3.244  12.979  20.688  0.00  0.00    +0.000 A 
ATOM      5  N   UNL     1      -4.374  13.064  19.877  0.00  0.00    +0.000 N 
ATOM      6  C   UNL     1      -2.233  12.174  20.217  0.00  0.00    +0.000 A 
ATOM      7  C   UNL     1      -1.213  11.847  21.086  0.00  0.00    +0.000 A 
ATOM      8  N   UNL     1      -1.071  12.483  22.263  0.00  0.00    +0.000 NA
ATOM      9  H   UNL     1      -4.144  13.530  19.003  0.00  0.00    +0.000 HD
ENDROOT
BRANCH   5  10
ATOM     10  C   UNL     1      -5.660  13.477  20.430  0.00  0.00    +0.000 C 
ATOM     11  C   UNL     1      -6.669  12.316  20.374  0.00  0.00    +0.000 C 
ATOM     12  C   UNL     1      -7.066  11.958  18.942  0.00  0.00    +0.000 C 
ATOM     13  C   UNL     1      -7.658  13.149  18.193  0.00  0.00    +0.000 C 
ATOM     14  C   UNL     1      -6.970  14.462  18.460  0.00  0.00    +0.000 A 
ATOM     15  C   UNL     1      -7.235  15.548  17.609  0.00  0.00    +0.000 A 
ATOM     16  C   UNL     1      -6.675  16.800  17.854  0.00  0.00    +0.000 A 
ATOM     17  C   UNL     1      -5.863  16.993  18.967  0.00  0.00    +0.000 A 
ATOM     18  C   UNL     1      -5.587  15.925  19.819  0.00  0.00    +0.000 A 
ATOM     19  C   UNL     1      -6.123  14.649  19.571  0.00  0.00    +0.000 A 
ENDBRANCH   5  10
BRANCH   7  20
ATOM     20  C   UNL     1      -0.316  10.704  20.816  0.00  0.00    +0.000 A 
ATOM     21  C   UNL     1      -0.054   9.707  21.761  0.00  0.00    +0.000 A 
ATOM     22  C   UNL     1       0.774   8.616  21.448  0.00  0.00    +0.000 A 
ATOM     23  C   UNL     1       1.362   8.467  20.198  0.00  0.00    +0.000 A 
ATOM     24  N   UNL     1       2.150   7.408  19.930  0.00  0.00    +0.000 NA
ATOM     25  C   UNL     1       2.685   7.310  18.692  0.00  0.00    +0.000 A 
ATOM     26  C   UNL     1       2.475   8.227  17.680  0.00  0.00    +0.000 A 
ATOM     27  C   UNL     1       1.665   9.318  17.958  0.00  0.00    +0.000 A 
ATOM     28  C   UNL     1       1.096   9.454  19.231  0.00  0.00    +0.000 A 
ATOM     29  C   UNL     1       0.268  10.543  19.544  0.00  0.00    +0.000 A 
ENDBRANCH   7  20
TORSDOF 2
ENDMDL
