MODEL 1
REMARK VINA RESULT:      -8.3      0.000      0.000
REMARK  Name = 
REMARK  10 active torsions:
REMARK  status: ('A' for Active; 'I' for Inactive)
REMARK    1  A    between atoms: C_1  and  O_2
REMARK    2  A    between atoms: O_2  and  C_3
REMARK    3  A    between atoms: C_8  and  O_9
REMARK    4  A    between atoms: O_9  and  C_10
REMARK    5  A    between atoms: C_15  and  C_16
REMARK    6  A    between atoms: C_19  and  C_20
REMARK    7  A    between atoms: C_20  and  C_21
REMARK    8  A    between atoms: C_20  and  C_22
REMARK    9  A    between atoms: C_20  and  C_23
REMARK   10  A    between atoms: C_28  and  S_29
REMARK                            x       y       z     vdW  Elec       q    Type
REMARK                         _______ _______ _______ _____ _____    ______ ____
ROOT
ATOM      1  C   UNL     1      -2.880  13.629  23.061  0.00  0.00    +0.000 A 
ATOM      2  C   UNL     1      -3.443  13.336  21.803  0.00  0.00    +0.000 A 
ATOM      3  C   UNL     1      -2.654  13.293  20.637  0.00  0.00    +0.000 A 
ATOM      4  C   UNL     1      -1.294  13.561  20.752  0.00  0.00    +0.000 A 
ATOM      5  C   UNL     1      -0.733  13.888  21.997  0.00  0.00    +0.000 A 
ATOM      6  C   UNL     1      -1.508  13.922  23.157  0.00  0.00    +0.000 A 
ATOM      7  C   UNL     1      -0.340  13.455  19.621  0.00  0.00    +0.000 C 
ATOM      8  O   UNL     1       0.607  14.245  19.593  0.00  0.00    +0.000 OA
ATOM      9  N   UNL     1      -0.343  12.253  18.952  0.00  0.00    +0.000 N 
ATOM     10  C   UNL     1       0.758  11.444  18.987  0.00  0.00    +0.000 C 
ATOM     11  C   UNL     1       0.540  10.236  18.472  0.00  0.00    +0.000 C 
ATOM     12  C   UNL     1      -0.866  10.177  17.889  0.00  0.00    +0.000 C 
ATOM     13  C   UNL     1      -1.454  11.597  18.187  0.00  0.00    +0.000 C 
ATOM     14  C   UNL     1      -2.820  11.588  18.901  0.00  0.00    +0.000 C 
ATOM     15  N   UNL     1      -3.222  12.963  19.409  0.00  0.00    +0.000 N 
ATOM     16  H   UNL     1      -4.249  12.955  19.397  0.00  0.00    +0.000 HD
ENDROOT
BRANCH  11  17
ATOM     17  C   UNL     1       1.455   9.092  18.706  0.00  0.00    +0.000 A 
ATOM     18  C   UNL     1       2.288   8.594  17.701  0.00  0.00    +0.000 A 
ATOM     19  C   UNL     1       2.979   7.382  17.867  0.00  0.00    +0.000 A 
ATOM     20  C   UNL     1       2.871   6.609  19.038  0.00  0.00    +0.000 A 
ATOM     21  C   UNL     1       2.121   7.168  20.082  0.00  0.00    +0.000 A 
ATOM     22  C   UNL     1       1.436   8.383  19.919  0.00  0.00    +0.000 A 
BRANCH  20  23
ATOM     23  C   UNL     1       3.491   5.202  19.178  0.00  0.00    +0.000 C 
ATOM     24  C   UNL     1       3.221   4.294  17.956  0.00  0.00    +0.000 C 
ATOM     25  C   UNL     1       5.021   5.284  19.362  0.00  0.00    +0.000 C 
ATOM     26  C   UNL     1       2.895   4.480  20.410  0.00  0.00    +0.000 C 
ENDBRANCH  20  23
ENDBRANCH  11  17
BRANCH  14  27
ATOM     27  S   UNL     1      -4.142  10.897  17.799  0.00  0.00    +0.000 S 
ATOM     28  O   UNL     1      -3.929   9.455  17.815  0.00  0.00    +0.000 OA
ATOM     29  O   UNL     1      -5.356  11.342  18.495  0.00  0.00    +0.000 OA
ATOM     30  O   UNL     1      -3.925  11.549  16.512  0.00  0.00    +0.000 OA
ENDBRANCH  14  27
BRANCH   1  32
ATOM     31  C   UNL     1      -4.242  12.378  24.520  0.00  0.00    +0.000 C 
ATOM     32  O   UNL     1      -3.773  13.673  24.119  0.00  0.00    +0.000 OA
ENDBRANCH   1  32
BRANCH   6  33
ATOM     33  O   UNL     1      -1.005  14.251  24.388  0.00  0.00    +0.000 OA
ATOM     34  C   UNL     1      -0.888  15.639  24.697  0.00  0.00    +0.000 C 
ENDBRANCH   6  33
TORSDOF 5
ENDMDL
MODEL 2
REMARK VINA RESULT:      -8.3      0.089      1.048
REMARK  Name = 
REMARK  10 active torsions:
REMARK  status: ('A' for Active; 'I' for Inactive)
REMARK    1  A    between atoms: C_1  and  O_2
REMARK    2  A    between atoms: O_2  and  C_3
REMARK    3  A    between atoms: C_8  and  O_9
REMARK    4  A    between atoms: O_9  and  C_10
REMARK    5  A    between atoms: C_15  and  C_16
REMARK    6  A    between atoms: C_19  and  C_20
REMARK    7  A    between atoms: C_20  and  C_21
REMARK    8  A    between atoms: C_20  and  C_22
REMARK    9  A    between atoms: C_20  and  C_23
REMARK   10  A    between atoms: C_28  and  S_29
REMARK                            x       y       z     vdW  Elec       q    Type
REMARK                         _______ _______ _______ _____ _____    ______ ____
ROOT
ATOM      1  C   UNL     1      -2.964  13.599  23.092  0.00  0.00    +0.000 A 
ATOM      2  C   UNL     1      -3.510  13.326  21.822  0.00  0.00    +0.000 A 
ATOM      3  C   UNL     1      -2.706  13.301  20.667  0.00  0.00    +0.000 A 
ATOM      4  C   UNL     1      -1.347  13.567  20.804  0.00  0.00    +0.000 A 
ATOM      5  C   UNL     1      -0.803  13.875  22.061  0.00  0.00    +0.000 A 
ATOM      6  C   UNL     1      -1.594  13.891  23.211  0.00  0.00    +0.000 A 
ATOM      7  C   UNL     1      -0.378  13.479  19.684  0.00  0.00    +0.000 C 
ATOM      8  O   UNL     1       0.568  14.270  19.681  0.00  0.00    +0.000 OA
ATOM      9  N   UNL     1      -0.372  12.287  18.997  0.00  0.00    +0.000 N 
ATOM     10  C   UNL     1       0.729  11.478  19.033  0.00  0.00    +0.000 C 
ATOM     11  C   UNL     1       0.518  10.278  18.497  0.00  0.00    +0.000 C 
ATOM     12  C   UNL     1      -0.880  10.228  17.894  0.00  0.00    +0.000 C 
ATOM     13  C   UNL     1      -1.473  11.643  18.207  0.00  0.00    +0.000 C 
ATOM     14  C   UNL     1      -2.848  11.623  18.903  0.00  0.00    +0.000 C 
ATOM     15  N   UNL     1      -3.257  12.989  19.426  0.00  0.00    +0.000 N 
ATOM     16  H   UNL     1      -4.284  12.981  19.400  0.00  0.00    +0.000 HD
ENDROOT
BRANCH  11  17
ATOM     17  C   UNL     1       1.431   9.132  18.725  0.00  0.00    +0.000 A 
ATOM     18  C   UNL     1       2.262   8.636  17.718  0.00  0.00    +0.000 A 
ATOM     19  C   UNL     1       2.951   7.421  17.877  0.00  0.00    +0.000 A 
ATOM     20  C   UNL     1       2.841   6.644  19.045  0.00  0.00    +0.000 A 
ATOM     21  C   UNL     1       2.093   7.200  20.093  0.00  0.00    +0.000 A 
ATOM     22  C   UNL     1       1.411   8.418  19.935  0.00  0.00    +0.000 A 
BRANCH  20  23
ATOM     23  C   UNL     1       3.458   5.235  19.179  0.00  0.00    +0.000 C 
ATOM     24  C   UNL     1       2.904   4.439  20.382  0.00  0.00    +0.000 C 
ATOM     25  C   UNL     1       3.202   4.392  17.912  0.00  0.00    +0.000 C 
ATOM     26  C   UNL     1       4.989   5.344  19.383  0.00  0.00    +0.000 C 
ENDBRANCH  20  23
ENDBRANCH  11  17
BRANCH  14  27
ATOM     27  S   UNL     1      -4.154  10.948  17.772  0.00  0.00    +0.000 S 
ATOM     28  O   UNL     1      -3.853  11.519  16.465  0.00  0.00    +0.000 OA
ATOM     29  O   UNL     1      -3.905   9.504  17.879  0.00  0.00    +0.000 OA
ATOM     30  O   UNL     1      -5.414  11.377  18.368  0.00  0.00    +0.000 OA
ENDBRANCH  14  27
BRANCH   1  32
ATOM     31  C   UNL     1      -4.239  12.320  24.605  0.00  0.00    +0.000 C 
ATOM     32  O   UNL     1      -3.871  13.626  24.138  0.00  0.00    +0.000 OA
ENDBRANCH   1  32
BRANCH   6  33
ATOM     33  O   UNL     1      -1.107  14.201  24.453  0.00  0.00    +0.000 OA
ATOM     34  C   UNL     1      -1.101  15.578  24.828  0.00  0.00    +0.000 C 
ENDBRANCH   6  33
TORSDOF 5
ENDMDL
MODEL 3
REMARK VINA RESULT:      -7.9      1.057      1.224
REMARK  Name = 
REMARK  10 active torsions:
REMARK  status: ('A' for Active; 'I' for Inactive)
REMARK    1  A    between atoms: C_1  and  O_2
REMARK    2  A    between atoms: O_2  and  C_3
REMARK    3  A    between atoms: C_8  and  O_9
REMARK    4  A    between atoms: O_9  and  C_10
REMARK    5  A    between atoms: C_15  and  C_16
REMARK    6  A    between atoms: C_19  and  C_20
REMARK    7  A    between atoms: C_20  and  C_21
REMARK    8  A    between atoms: C_20  and  C_22
REMARK    9  A    between atoms: C_20  and  C_23
REMARK   10  A    between atoms: C_28  and  S_29
REMARK                            x       y       z     vdW  Elec       q    Type
REMARK                         _______ _______ _______ _____ _____    ______ ____
ROOT
ATOM      1  C   UNL     1      -4.446  12.726  22.615  0.00  0.00    +0.000 A 
ATOM      2  C   UNL     1      -4.651  12.660  21.223  0.00  0.00    +0.000 A 
ATOM      3  C   UNL     1      -3.595  12.858  20.314  0.00  0.00    +0.000 A 
ATOM      4  C   UNL     1      -2.331  13.137  20.824  0.00  0.00    +0.000 A 
ATOM      5  C   UNL     1      -2.126  13.240  22.210  0.00  0.00    +0.000 A 
ATOM      6  C   UNL     1      -3.168  13.034  23.115  0.00  0.00    +0.000 A 
ATOM      7  C   UNL     1      -1.118  13.272  19.981  0.00  0.00    +0.000 C 
ATOM      8  O   UNL     1      -0.257  14.079  20.338  0.00  0.00    +0.000 OA
ATOM      9  N   UNL     1      -0.863  12.217  19.135  0.00  0.00    +0.000 N 
ATOM     10  C   UNL     1       0.252  11.447  19.314  0.00  0.00    +0.000 C 
ATOM     11  C   UNL     1       0.261  10.352  18.557  0.00  0.00    +0.000 C 
ATOM     12  C   UNL     1      -0.945  10.365  17.627  0.00  0.00    +0.000 C 
ATOM     13  C   UNL     1      -1.694  11.687  18.004  0.00  0.00    +0.000 C 
ATOM     14  C   UNL     1      -3.191  11.506  18.325  0.00  0.00    +0.000 C 
ATOM     15  N   UNL     1      -3.809  12.749  18.943  0.00  0.00    +0.000 N 
ATOM     16  H   UNL     1      -4.797  12.715  18.662  0.00  0.00    +0.000 HD
ENDROOT
BRANCH  11  17
ATOM     17  C   UNL     1       1.172   9.211  18.818  0.00  0.00    +0.000 A 
ATOM     18  C   UNL     1       1.948   8.638  17.808  0.00  0.00    +0.000 A 
ATOM     19  C   UNL     1       2.631   7.427  18.016  0.00  0.00    +0.000 A 
ATOM     20  C   UNL     1       2.570   6.731  19.237  0.00  0.00    +0.000 A 
ATOM     21  C   UNL     1       1.880   7.366  20.280  0.00  0.00    +0.000 A 
ATOM     22  C   UNL     1       1.204   8.580  20.073  0.00  0.00    +0.000 A 
BRANCH  20  23
ATOM     23  C   UNL     1       3.179   5.326  19.436  0.00  0.00    +0.000 C 
ATOM     24  C   UNL     1       2.798   4.334  18.313  0.00  0.00    +0.000 C 
ATOM     25  C   UNL     1       4.719   5.389  19.492  0.00  0.00    +0.000 C 
ATOM     26  C   UNL     1       2.672   4.712  20.764  0.00  0.00    +0.000 C 
ENDBRANCH  20  23
ENDBRANCH  11  17
BRANCH  14  27
ATOM     27  S   UNL     1      -4.137  10.998  16.813  0.00  0.00    +0.000 S 
ATOM     28  O   UNL     1      -4.200   9.543  16.880  0.00  0.00    +0.000 OA
ATOM     29  O   UNL     1      -5.421  11.675  17.040  0.00  0.00    +0.000 OA
ATOM     30  O   UNL     1      -3.370  11.542  15.699  0.00  0.00    +0.000 OA
ENDBRANCH  14  27
BRANCH   1  32
ATOM     31  C   UNL     1      -6.461  13.675  23.384  0.00  0.00    +0.000 C 
ATOM     32  O   UNL     1      -5.577  12.546  23.395  0.00  0.00    +0.000 OA
ENDBRANCH   1  32
BRANCH   6  33
ATOM     33  O   UNL     1      -3.016  13.140  24.473  0.00  0.00    +0.000 OA
ATOM     34  C   UNL     1      -3.040  14.452  25.033  0.00  0.00    +0.000 C 
ENDBRANCH   6  33
TORSDOF 5
ENDMDL
MODEL 4
REMARK VINA RESULT:      -7.7      6.085     11.012
REMARK  Name = 
REMARK  10 active torsions:
REMARK  status: ('A' for Active; 'I' for Inactive)
REMARK    1  A    between atoms: C_1  and  O_2
REMARK    2  A    between atoms: O_2  and  C_3
REMARK    3  A    between atoms: C_8  and  O_9
REMARK    4  A    between atoms: O_9  and  C_10
REMARK    5  A    between atoms: C_15  and  C_16
REMARK    6  A    between atoms: C_19  and  C_20
REMARK    7  A    between atoms: C_20  and  C_21
REMARK    8  A    between atoms: C_20  and  C_22
REMARK    9  A    between atoms: C_20  and  C_23
REMARK   10  A    between atoms: C_28  and  S_29
REMARK                            x       y       z     vdW  Elec       q    Type
REMARK                         _______ _______ _______ _____ _____    ______ ____
ROOT
ATOM      1  C   UNL     1       6.033   3.882  14.156  0.00  0.00    +0.000 A 
ATOM      2  C   UNL     1       5.474   3.144  15.217  0.00  0.00    +0.000 A 
ATOM      3  C   UNL     1       5.464   3.642  16.534  0.00  0.00    +0.000 A 
ATOM      4  C   UNL     1       6.036   4.888  16.771  0.00  0.00    +0.000 A 
ATOM      5  C   UNL     1       6.626   5.614  15.723  0.00  0.00    +0.000 A 
ATOM      6  C   UNL     1       6.629   5.129  14.415  0.00  0.00    +0.000 A 
ATOM      7  C   UNL     1       6.006   5.566  18.090  0.00  0.00    +0.000 C 
ATOM      8  O   UNL     1       6.976   6.263  18.399  0.00  0.00    +0.000 OA
ATOM      9  N   UNL     1       4.761   5.706  18.658  0.00  0.00    +0.000 N 
ATOM     10  C   UNL     1       4.224   6.950  18.838  0.00  0.00    +0.000 C 
ATOM     11  C   UNL     1       2.944   6.922  19.204  0.00  0.00    +0.000 C 
ATOM     12  C   UNL     1       2.508   5.479  19.424  0.00  0.00    +0.000 C 
ATOM     13  C   UNL     1       3.790   4.646  19.085  0.00  0.00    +0.000 C 
ATOM     14  C   UNL     1       3.568   3.515  18.062  0.00  0.00    +0.000 C 
ATOM     15  N   UNL     1       4.871   2.915  17.563  0.00  0.00    +0.000 N 
ATOM     16  H   UNL     1       4.637   1.943  17.325  0.00  0.00    +0.000 HD
ENDROOT
BRANCH  11  17
ATOM     17  C   UNL     1       2.067   8.115  19.126  0.00  0.00    +0.000 A 
ATOM     18  C   UNL     1       1.439   8.648  20.253  0.00  0.00    +0.000 A 
ATOM     19  C   UNL     1       0.443   9.632  20.133  0.00  0.00    +0.000 A 
ATOM     20  C   UNL     1       0.024  10.127  18.885  0.00  0.00    +0.000 A 
ATOM     21  C   UNL     1       0.733   9.668  17.765  0.00  0.00    +0.000 A 
ATOM     22  C   UNL     1       1.734   8.691  17.887  0.00  0.00    +0.000 A 
BRANCH  20  23
ATOM     23  C   UNL     1      -1.175  11.087  18.720  0.00  0.00    +0.000 C 
ATOM     24  C   UNL     1      -0.809  12.396  17.984  0.00  0.00    +0.000 C 
ATOM     25  C   UNL     1      -2.319  10.418  17.929  0.00  0.00    +0.000 C 
ATOM     26  C   UNL     1      -1.723  11.494  20.109  0.00  0.00    +0.000 C 
ENDBRANCH  20  23
ENDBRANCH  11  17
BRANCH  14  27
ATOM     27  S   UNL     1       2.475   2.190  18.763  0.00  0.00    +0.000 S 
ATOM     28  O   UNL     1       1.220   2.310  18.030  0.00  0.00    +0.000 OA
ATOM     29  O   UNL     1       3.252   0.984  18.449  0.00  0.00    +0.000 OA
ATOM     30  O   UNL     1       2.400   2.491  20.188  0.00  0.00    +0.000 OA
ENDBRANCH  14  27
BRANCH   1  32
ATOM     31  C   UNL     1       4.785   3.480  12.198  0.00  0.00    +0.000 C 
ATOM     32  O   UNL     1       6.007   3.261  12.918  0.00  0.00    +0.000 OA
ENDBRANCH   1  32
BRANCH   6  33
ATOM     33  O   UNL     1       7.207   5.797  13.367  0.00  0.00    +0.000 OA
ATOM     34  C   UNL     1       8.566   5.486  13.063  0.00  0.00    +0.000 C 
ENDBRANCH   6  33
TORSDOF 5
ENDMDL
MODEL 5
REMARK VINA RESULT:      -7.7      6.123     11.029
REMARK  Name = 
REMARK  10 active torsions:
REMARK  status: ('A' for Active; 'I' for Inactive)
REMARK    1  A    between atoms: C_1  and  O_2
REMARK    2  A    between atoms: O_2  and  C_3
REMARK    3  A    between atoms: C_8  and  O_9
REMARK    4  A    between atoms: O_9  and  C_10
REMARK    5  A    between atoms: C_15  and  C_16
REMARK    6  A    between atoms: C_19  and  C_20
REMARK    7  A    between atoms: C_20  and  C_21
REMARK    8  A    between atoms: C_20  and  C_22
REMARK    9  A    between atoms: C_20  and  C_23
REMARK   10  A    between atoms: C_28  and  S_29
REMARK                            x       y       z     vdW  Elec       q    Type
REMARK                         _______ _______ _______ _____ _____    ______ ____
ROOT
ATOM      1  C   UNL     1       6.092   3.881  14.105  0.00  0.00    +0.000 A 
ATOM      2  C   UNL     1       5.558   3.144  15.180  0.00  0.00    +0.000 A 
ATOM      3  C   UNL     1       5.534   3.664  16.488  0.00  0.00    +0.000 A 
ATOM      4  C   UNL     1       6.068   4.930  16.703  0.00  0.00    +0.000 A 
ATOM      5  C   UNL     1       6.635   5.656  15.643  0.00  0.00    +0.000 A 
ATOM      6  C   UNL     1       6.651   5.150  14.343  0.00  0.00    +0.000 A 
ATOM      7  C   UNL     1       6.020   5.629  18.011  0.00  0.00    +0.000 C 
ATOM      8  O   UNL     1       6.968   6.360  18.306  0.00  0.00    +0.000 OA
ATOM      9  N   UNL     1       4.771   5.740  18.578  0.00  0.00    +0.000 N 
ATOM     10  C   UNL     1       4.197   6.970  18.739  0.00  0.00    +0.000 C 
ATOM     11  C   UNL     1       2.919   6.910  19.108  0.00  0.00    +0.000 C 
ATOM     12  C   UNL     1       2.527   5.458  19.352  0.00  0.00    +0.000 C 
ATOM     13  C   UNL     1       3.833   4.658  19.025  0.00  0.00    +0.000 C 
ATOM     14  C   UNL     1       3.644   3.504  18.021  0.00  0.00    +0.000 C 
ATOM     15  N   UNL     1       4.965   2.936  17.530  0.00  0.00    +0.000 N 
ATOM     16  H   UNL     1       4.760   1.954  17.309  0.00  0.00    +0.000 HD
ENDROOT
BRANCH  11  17
ATOM     17  C   UNL     1       2.006   8.074  19.011  0.00  0.00    +0.000 A 
ATOM     18  C   UNL     1       1.878   8.818  17.836  0.00  0.00    +0.000 A 
ATOM     19  C   UNL     1       1.187  10.042  17.823  0.00  0.00    +0.000 A 
ATOM     20  C   UNL     1       0.593  10.581  18.979  0.00  0.00    +0.000 A 
ATOM     21  C   UNL     1       0.631   9.778  20.128  0.00  0.00    +0.000 A 
ATOM     22  C   UNL     1       1.316   8.552  20.138  0.00  0.00    +0.000 A 
BRANCH  20  23
ATOM     23  C   UNL     1      -0.031  11.993  19.025  0.00  0.00    +0.000 C 
ATOM     24  C   UNL     1       0.927  13.097  18.523  0.00  0.00    +0.000 C 
ATOM     25  C   UNL     1      -1.308  12.065  18.163  0.00  0.00    +0.000 C 
ATOM     26  C   UNL     1      -0.410  12.358  20.480  0.00  0.00    +0.000 C 
ENDBRANCH  20  23
ENDBRANCH  11  17
BRANCH  14  27
ATOM     27  S   UNL     1       2.593   2.159  18.746  0.00  0.00    +0.000 S 
ATOM     28  O   UNL     1       1.318   2.259  18.046  0.00  0.00    +0.000 OA
ATOM     29  O   UNL     1       3.383   0.967  18.408  0.00  0.00    +0.000 OA
ATOM     30  O   UNL     1       2.550   2.455  20.173  0.00  0.00    +0.000 OA
ENDBRANCH  14  27
BRANCH   1  32
ATOM     31  C   UNL     1       4.857   3.413  12.154  0.00  0.00    +0.000 C 
ATOM     32  O   UNL     1       6.084   3.239  12.878  0.00  0.00    +0.000 OA
ENDBRANCH   1  32
BRANCH   6  33
ATOM     33  O   UNL     1       7.207   5.817  13.283  0.00  0.00    +0.000 OA
ATOM     34  C   UNL     1       8.586   5.575  13.008  0.00  0.00    +0.000 C 
ENDBRANCH   6  33
TORSDOF 5
ENDMDL
MODEL 6
REMARK VINA RESULT:      -7.6      1.177      1.540
REMARK  Name = 
REMARK  10 active torsions:
REMARK  status: ('A' for Active; 'I' for Inactive)
REMARK    1  A    between atoms: C_1  and  O_2
REMARK    2  A    between atoms: O_2  and  C_3
REMARK    3  A    between atoms: C_8  and  O_9
REMARK    4  A    between atoms: O_9  and  C_10
REMARK    5  A    between atoms: C_15  and  C_16
REMARK    6  A    between atoms: C_19  and  C_20
REMARK    7  A    between atoms: C_20  and  C_21
REMARK    8  A    between atoms: C_20  and  C_22
REMARK    9  A    between atoms: C_20  and  C_23
REMARK   10  A    between atoms: C_28  and  S_29
REMARK                            x       y       z     vdW  Elec       q    Type
REMARK                         _______ _______ _______ _____ _____    ______ ____
ROOT
ATOM      1  C   UNL     1      -4.542  13.236  23.125  0.00  0.00    +0.000 A 
ATOM      2  C   UNL     1      -4.859  13.127  21.757  0.00  0.00    +0.000 A 
ATOM      3  C   UNL     1      -3.879  13.295  20.760  0.00  0.00    +0.000 A 
ATOM      4  C   UNL     1      -2.579  13.586  21.157  0.00  0.00    +0.000 A 
ATOM      5  C   UNL     1      -2.262  13.731  22.518  0.00  0.00    +0.000 A 
ATOM      6  C   UNL     1      -3.228  13.555  23.510  0.00  0.00    +0.000 A 
ATOM      7  C   UNL     1      -1.438  13.692  20.215  0.00  0.00    +0.000 C 
ATOM      8  O   UNL     1      -0.551  14.508  20.477  0.00  0.00    +0.000 OA
ATOM      9  N   UNL     1      -1.252  12.611  19.384  0.00  0.00    +0.000 N 
ATOM     10  C   UNL     1      -0.126  11.844  19.495  0.00  0.00    +0.000 C 
ATOM     11  C   UNL     1      -0.178  10.727  18.774  0.00  0.00    +0.000 C 
ATOM     12  C   UNL     1      -1.455  10.714  17.944  0.00  0.00    +0.000 C 
ATOM     13  C   UNL     1      -2.172  12.048  18.341  0.00  0.00    +0.000 C 
ATOM     14  C   UNL     1      -3.638  11.882  18.787  0.00  0.00    +0.000 C 
ATOM     15  N   UNL     1      -4.204  13.144  19.414  0.00  0.00    +0.000 N 
ATOM     16  H   UNL     1      -5.212  13.104  19.215  0.00  0.00    +0.000 HD
ENDROOT
BRANCH  11  17
ATOM     17  C   UNL     1       0.751   9.592  18.995  0.00  0.00    +0.000 A 
ATOM     18  C   UNL     1       1.538   9.069  17.967  0.00  0.00    +0.000 A 
ATOM     19  C   UNL     1       2.240   7.862  18.133  0.00  0.00    +0.000 A 
ATOM     20  C   UNL     1       2.189   7.121  19.328  0.00  0.00    +0.000 A 
ATOM     21  C   UNL     1       1.486   7.706  20.391  0.00  0.00    +0.000 A 
ATOM     22  C   UNL     1       0.791   8.915  20.227  0.00  0.00    +0.000 A 
BRANCH  20  23
ATOM     23  C   UNL     1       2.820   5.720  19.476  0.00  0.00    +0.000 C 
ATOM     24  C   UNL     1       2.505   5.052  20.834  0.00  0.00    +0.000 C 
ATOM     25  C   UNL     1       2.325   4.766  18.369  0.00  0.00    +0.000 C 
ATOM     26  C   UNL     1       4.361   5.819  19.374  0.00  0.00    +0.000 C 
ENDBRANCH  20  23
ENDBRANCH  11  17
BRANCH  14  27
ATOM     27  S   UNL     1      -4.703  11.329  17.373  0.00  0.00    +0.000 S 
ATOM     28  O   UNL     1      -5.306  10.080  17.820  0.00  0.00    +0.000 OA
ATOM     29  O   UNL     1      -5.641  12.455  17.266  0.00  0.00    +0.000 OA
ATOM     30  O   UNL     1      -3.786  11.215  16.244  0.00  0.00    +0.000 OA
ENDBRANCH  14  27
BRANCH   1  32
ATOM     31  C   UNL     1      -6.820  12.678  23.350  0.00  0.00    +0.000 C 
ATOM     32  O   UNL     1      -5.606  13.081  23.999  0.00  0.00    +0.000 OA
ENDBRANCH   1  32
BRANCH   6  33
ATOM     33  O   UNL     1      -2.967  13.702  24.847  0.00  0.00    +0.000 OA
ATOM     34  C   UNL     1      -2.416  14.947  25.273  0.00  0.00    +0.000 C 
ENDBRANCH   6  33
TORSDOF 5
ENDMDL
MODEL 7
REMARK VINA RESULT:      -7.6      1.333      1.778
REMARK  Name = 
REMARK  10 active torsions:
REMARK  status: ('A' for Active; 'I' for Inactive)
REMARK    1  A    between atoms: C_1  and  O_2
REMARK    2  A    between atoms: O_2  and  C_3
REMARK    3  A    between atoms: C_8  and  O_9
REMARK    4  A    between atoms: O_9  and  C_10
REMARK    5  A    between atoms: C_15  and  C_16
REMARK    6  A    between atoms: C_19  and  C_20
REMARK    7  A    between atoms: C_20  and  C_21
REMARK    8  A    between atoms: C_20  and  C_22
REMARK    9  A    between atoms: C_20  and  C_23
REMARK   10  A    between atoms: C_28  and  S_29
REMARK                            x       y       z     vdW  Elec       q    Type
REMARK                         _______ _______ _______ _____ _____    ______ ____
ROOT
ATOM      1  C   UNL     1      -4.907  13.058  23.166  0.00  0.00    +0.000 A 
ATOM      2  C   UNL     1      -5.163  13.011  21.782  0.00  0.00    +0.000 A 
ATOM      3  C   UNL     1      -4.146  13.244  20.837  0.00  0.00    +0.000 A 
ATOM      4  C   UNL     1      -2.869  13.539  21.304  0.00  0.00    +0.000 A 
ATOM      5  C   UNL     1      -2.614  13.622  22.682  0.00  0.00    +0.000 A 
ATOM      6  C   UNL     1      -3.616  13.381  23.623  0.00  0.00    +0.000 A 
ATOM      7  C   UNL     1      -1.692  13.711  20.417  0.00  0.00    +0.000 C 
ATOM      8  O   UNL     1      -0.834  14.529  20.756  0.00  0.00    +0.000 OA
ATOM      9  N   UNL     1      -1.450  12.676  19.544  0.00  0.00    +0.000 N 
ATOM     10  C   UNL     1      -0.315  11.925  19.667  0.00  0.00    +0.000 C 
ATOM     11  C   UNL     1      -0.314  10.843  18.891  0.00  0.00    +0.000 C 
ATOM     12  C   UNL     1      -1.555  10.848  18.008  0.00  0.00    +0.000 C 
ATOM     13  C   UNL     1      -2.314  12.148  18.437  0.00  0.00    +0.000 C 
ATOM     14  C   UNL     1      -3.794  11.934  18.811  0.00  0.00    +0.000 C 
ATOM     15  N   UNL     1      -4.411  13.154  19.473  0.00  0.00    +0.000 N 
ATOM     16  H   UNL     1      -5.408  13.105  19.229  0.00  0.00    +0.000 HD
ENDROOT
BRANCH  11  17
ATOM     17  C   UNL     1       0.627   9.715  19.098  0.00  0.00    +0.000 A 
ATOM     18  C   UNL     1       1.399   9.197  18.057  0.00  0.00    +0.000 A 
ATOM     19  C   UNL     1       2.114   7.996  18.211  0.00  0.00    +0.000 A 
ATOM     20  C   UNL     1       2.088   7.256  19.407  0.00  0.00    +0.000 A 
ATOM     21  C   UNL     1       1.400   7.837  20.482  0.00  0.00    +0.000 A 
ATOM     22  C   UNL     1       0.693   9.041  20.329  0.00  0.00    +0.000 A 
BRANCH  20  23
ATOM     23  C   UNL     1       2.732   5.859  19.547  0.00  0.00    +0.000 C 
ATOM     24  C   UNL     1       4.267   5.876  19.364  0.00  0.00    +0.000 C 
ATOM     25  C   UNL     1       2.440   5.246  20.932  0.00  0.00    +0.000 C 
ATOM     26  C   UNL     1       2.165   4.905  18.468  0.00  0.00    +0.000 C 
ENDBRANCH  20  23
ENDBRANCH  11  17
BRANCH  14  27
ATOM     27  S   UNL     1      -4.788  11.433  17.327  0.00  0.00    +0.000 S 
ATOM     28  O   UNL     1      -3.801  11.111  16.304  0.00  0.00    +0.000 OA
ATOM     29  O   UNL     1      -5.521  10.273  17.854  0.00  0.00    +0.000 OA
ATOM     30  O   UNL     1      -5.633  12.587  17.044  0.00  0.00    +0.000 OA
ENDBRANCH  14  27
BRANCH   1  32
ATOM     31  C   UNL     1      -7.176  12.433  23.268  0.00  0.00    +0.000 C 
ATOM     32  O   UNL     1      -6.003  12.842  23.985  0.00  0.00    +0.000 OA
ENDBRANCH   1  32
BRANCH   6  33
ATOM     33  O   UNL     1      -3.414  13.467  24.975  0.00  0.00    +0.000 OA
ATOM     34  C   UNL     1      -2.819  14.665  25.473  0.00  0.00    +0.000 C 
ENDBRANCH   6  33
TORSDOF 5
ENDMDL
MODEL 8
REMARK VINA RESULT:      -7.4      3.168      4.809
REMARK  Name = 
REMARK  10 active torsions:
REMARK  status: ('A' for Active; 'I' for Inactive)
REMARK    1  A    between atoms: C_1  and  O_2
REMARK    2  A    between atoms: O_2  and  C_3
REMARK    3  A    between atoms: C_8  and  O_9
REMARK    4  A    between atoms: O_9  and  C_10
REMARK    5  A    between atoms: C_15  and  C_16
REMARK    6  A    between atoms: C_19  and  C_20
REMARK    7  A    between atoms: C_20  and  C_21
REMARK    8  A    between atoms: C_20  and  C_22
REMARK    9  A    between atoms: C_20  and  C_23
REMARK   10  A    between atoms: C_28  and  S_29
REMARK                            x       y       z     vdW  Elec       q    Type
REMARK                         _______ _______ _______ _____ _____    ______ ____
ROOT
ATOM      1  C   UNL     1       3.863  15.229  21.566  0.00  0.00    +0.000 A 
ATOM      2  C   UNL     1       2.515  14.934  21.846  0.00  0.00    +0.000 A 
ATOM      3  C   UNL     1       1.711  14.230  20.929  0.00  0.00    +0.000 A 
ATOM      4  C   UNL     1       2.278  13.839  19.721  0.00  0.00    +0.000 A 
ATOM      5  C   UNL     1       3.612  14.161  19.420  0.00  0.00    +0.000 A 
ATOM      6  C   UNL     1       4.416  14.849  20.330  0.00  0.00    +0.000 A 
ATOM      7  C   UNL     1       1.571  13.013  18.712  0.00  0.00    +0.000 C 
ATOM      8  O   UNL     1       1.818  13.224  17.523  0.00  0.00    +0.000 OA
ATOM      9  N   UNL     1       1.040  11.833  19.179  0.00  0.00    +0.000 N 
ATOM     10  C   UNL     1       1.525  10.636  18.730  0.00  0.00    +0.000 C 
ATOM     11  C   UNL     1       1.062   9.592  19.413  0.00  0.00    +0.000 C 
ATOM     12  C   UNL     1       0.026  10.063  20.425  0.00  0.00    +0.000 C 
ATOM     13  C   UNL     1      -0.015  11.615  20.223  0.00  0.00    +0.000 C 
ATOM     14  C   UNL     1       0.168  12.435  21.515  0.00  0.00    +0.000 C 
ATOM     15  N   UNL     1       0.392  13.912  21.241  0.00  0.00    +0.000 N 
ATOM     16  H   UNL     1       0.017  14.390  22.070  0.00  0.00    +0.000 HD
ENDROOT
BRANCH  11  17
ATOM     17  C   UNL     1       1.694   8.251  19.344  0.00  0.00    +0.000 A 
ATOM     18  C   UNL     1       2.279   7.769  18.171  0.00  0.00    +0.000 A 
ATOM     19  C   UNL     1       2.670   6.424  18.054  0.00  0.00    +0.000 A 
ATOM     20  C   UNL     1       2.494   5.498  19.099  0.00  0.00    +0.000 A 
ATOM     21  C   UNL     1       2.007   6.013  20.309  0.00  0.00    +0.000 A 
ATOM     22  C   UNL     1       1.624   7.358  20.427  0.00  0.00    +0.000 A 
BRANCH  20  23
ATOM     23  C   UNL     1       2.767   3.987  18.939  0.00  0.00    +0.000 C 
ATOM     24  C   UNL     1       4.203   3.582  19.343  0.00  0.00    +0.000 C 
ATOM     25  C   UNL     1       1.795   3.150  19.796  0.00  0.00    +0.000 C 
ATOM     26  C   UNL     1       2.586   3.570  17.459  0.00  0.00    +0.000 C 
ENDBRANCH  20  23
ENDBRANCH  11  17
BRANCH  14  27
ATOM     27  S   UNL     1      -1.274  12.202  22.659  0.00  0.00    +0.000 S 
ATOM     28  O   UNL     1      -0.967  10.990  23.409  0.00  0.00    +0.000 OA
ATOM     29  O   UNL     1      -1.214  13.439  23.448  0.00  0.00    +0.000 OA
ATOM     30  O   UNL     1      -2.433  12.118  21.778  0.00  0.00    +0.000 OA
ENDBRANCH  14  27
BRANCH   1  32
ATOM     31  C   UNL     1       5.164  15.132  23.529  0.00  0.00    +0.000 C 
ATOM     32  O   UNL     1       4.530  15.956  22.539  0.00  0.00    +0.000 OA
ENDBRANCH   1  32
BRANCH   6  33
ATOM     33  O   UNL     1       5.715  15.197  20.072  0.00  0.00    +0.000 OA
ATOM     34  C   UNL     1       5.948  16.103  18.993  0.00  0.00    +0.000 C 
ENDBRANCH   6  33
TORSDOF 5
ENDMDL
MODEL 9
REMARK VINA RESULT:      -7.4      5.752     10.314
REMARK  Name = 
REMARK  10 active torsions:
REMARK  status: ('A' for Active; 'I' for Inactive)
REMARK    1  A    between atoms: C_1  and  O_2
REMARK    2  A    between atoms: O_2  and  C_3
REMARK    3  A    between atoms: C_8  and  O_9
REMARK    4  A    between atoms: O_9  and  C_10
REMARK    5  A    between atoms: C_15  and  C_16
REMARK    6  A    between atoms: C_19  and  C_20
REMARK    7  A    between atoms: C_20  and  C_21
REMARK    8  A    between atoms: C_20  and  C_22
REMARK    9  A    between atoms: C_20  and  C_23
REMARK   10  A    between atoms: C_28  and  S_29
REMARK                            x       y       z     vdW  Elec       q    Type
REMARK                         _______ _______ _______ _____ _____    ______ ____
ROOT
ATOM      1  C   UNL     1       4.415   2.161  20.797  0.00  0.00    +0.000 A 
ATOM      2  C   UNL     1       5.122   2.662  19.686  0.00  0.00    +0.000 A 
ATOM      3  C   UNL     1       4.469   3.365  18.656  0.00  0.00    +0.000 A 
ATOM      4  C   UNL     1       3.093   3.546  18.752  0.00  0.00    +0.000 A 
ATOM      5  C   UNL     1       2.377   3.019  19.839  0.00  0.00    +0.000 A 
ATOM      6  C   UNL     1       3.021   2.330  20.868  0.00  0.00    +0.000 A 
ATOM      7  C   UNL     1       2.302   4.348  17.786  0.00  0.00    +0.000 C 
ATOM      8  O   UNL     1       1.150   3.981  17.544  0.00  0.00    +0.000 OA
ATOM      9  N   UNL     1       2.750   5.631  17.574  0.00  0.00    +0.000 N 
ATOM     10  C   UNL     1       1.983   6.698  17.950  0.00  0.00    +0.000 C 
ATOM     11  C   UNL     1       2.624   7.861  17.871  0.00  0.00    +0.000 C 
ATOM     12  C   UNL     1       4.003   7.642  17.262  0.00  0.00    +0.000 C 
ATOM     13  C   UNL     1       4.063   6.097  17.017  0.00  0.00    +0.000 C 
ATOM     14  C   UNL     1       5.304   5.402  17.608  0.00  0.00    +0.000 C 
ATOM     15  N   UNL     1       5.191   3.887  17.586  0.00  0.00    +0.000 N 
ATOM     16  H   UNL     1       6.160   3.554  17.516  0.00  0.00    +0.000 HD
ENDROOT
BRANCH  11  17
ATOM     17  C   UNL     1       2.131   9.091  18.538  0.00  0.00    +0.000 A 
ATOM     18  C   UNL     1       1.357   9.042  19.700  0.00  0.00    +0.000 A 
ATOM     19  C   UNL     1       0.713  10.191  20.192  0.00  0.00    +0.000 A 
ATOM     20  C   UNL     1       0.809  11.438  19.548  0.00  0.00    +0.000 A 
ATOM     21  C   UNL     1       1.674  11.504  18.447  0.00  0.00    +0.000 A 
ATOM     22  C   UNL     1       2.323  10.358  17.960  0.00  0.00    +0.000 A 
BRANCH  20  23
ATOM     23  C   UNL     1      -0.015  12.672  19.978  0.00  0.00    +0.000 C 
ATOM     24  C   UNL     1      -0.442  13.562  18.790  0.00  0.00    +0.000 C 
ATOM     25  C   UNL     1      -1.299  12.252  20.724  0.00  0.00    +0.000 C 
ATOM     26  C   UNL     1       0.822  13.564  20.926  0.00  0.00    +0.000 C 
ENDBRANCH  20  23
ENDBRANCH  11  17
BRANCH  14  27
ATOM     27  S   UNL     1       6.848   5.945  16.734  0.00  0.00    +0.000 S 
ATOM     28  O   UNL     1       7.241   7.182  17.398  0.00  0.00    +0.000 OA
ATOM     29  O   UNL     1       7.738   4.805  16.993  0.00  0.00    +0.000 OA
ATOM     30  O   UNL     1       6.452   6.080  15.337  0.00  0.00    +0.000 OA
ENDBRANCH  14  27
BRANCH   1  32
ATOM     31  C   UNL     1       5.673   0.213  21.216  0.00  0.00    +0.000 C 
ATOM     32  O   UNL     1       5.173   1.459  21.721  0.00  0.00    +0.000 OA
ENDBRANCH   1  32
BRANCH   6  33
ATOM     33  O   UNL     1       2.360   1.787  21.938  0.00  0.00    +0.000 OA
ATOM     34  C   UNL     1       1.121   2.387  22.315  0.00  0.00    +0.000 C 
ENDBRANCH   6  33
TORSDOF 5
ENDMDL
