MODEL 1
REMARK VINA RESULT:      -8.7      0.000      0.000
REMARK  Name = 
REMARK  8 active torsions:
REMARK  status: ('A' for Active; 'I' for Inactive)
REMARK    1  A    between atoms: C_1  and  C_2
REMARK    2  A    between atoms: N_4  and  C_5
REMARK    3  A    between atoms: C_5  and  C_6
REMARK    4  A    between atoms: C_5  and  C_7
REMARK    5  A    between atoms: C_10  and  O_11
REMARK    6  A    between atoms: O_11  and  C_12
REMARK    7  A    between atoms: N_15  and  C_16
REMARK    8  A    between atoms: C_24  and  C_25
REMARK                            x       y       z     vdW  Elec       q    Type
REMARK                         _______ _______ _______ _____ _____    ______ ____
ROOT
ATOM      1  C   UNL     1       2.421   6.293  19.062  0.00  0.00    +0.000 C 
ATOM      2  C   UNL     1       2.090   7.373  18.024  0.00  0.00    +0.000 C 
ATOM      3  C   UNL     1       1.880   8.658  18.825  0.00  0.00    +0.000 C 
ATOM      4  N   UNL     1       1.337   8.175  20.080  0.00  0.00    +0.000 N 
ATOM      5  C   UNL     1       1.782   6.816  20.363  0.00  0.00    +0.000 C 
ENDROOT
BRANCH   4   6
ATOM      6  C   UNL     1       0.810   9.022  21.030  0.00  0.00    +0.000 A 
ATOM      7  N   UNL     1       1.029   8.730  22.329  0.00  0.00    +0.000 NA
ATOM      8  C   UNL     1       0.545   9.591  23.237  0.00  0.00    +0.000 A 
ATOM      9  N   UNL     1      -0.156  10.709  22.993  0.00  0.00    +0.000 NA
ATOM     10  C   UNL     1      -0.405  11.003  21.706  0.00  0.00    +0.000 A 
ATOM     11  N   UNL     1      -1.146  12.146  21.399  0.00  0.00    +0.000 N 
ATOM     12  C   UNL     1      -1.724  12.947  22.477  0.00  0.00    +0.000 C 
ATOM     13  C   UNL     1      -3.210  13.016  22.135  0.00  0.00    +0.000 C 
ATOM     14  C   UNL     1      -3.221  13.009  20.609  0.00  0.00    +0.000 C 
ATOM     15  C   UNL     1      -4.547  12.531  20.036  0.00  0.00    +0.000 C 
ATOM     16  C   UNL     1      -2.063  12.072  20.256  0.00  0.00    +0.000 C 
ATOM     17  C   UNL     1       0.101  10.176  20.695  0.00  0.00    +0.000 A 
ATOM     18  F   UNL     1      -0.094  10.502  19.406  0.00  0.00    +0.000 F 
ENDBRANCH   4   6
BRANCH   1  19
ATOM     19  O   UNL     1       3.848   6.155  19.160  0.00  0.00    +0.000 OA
BRANCH  19  23
ATOM     20  C   UNL     1       5.650   4.676  15.660  0.00  0.00    +0.000 A 
ATOM     21  C   UNL     1       4.874   3.867  16.500  0.00  0.00    +0.000 A 
ATOM     22  C   UNL     1       4.294   4.393  17.665  0.00  0.00    +0.000 A 
ATOM     23  C   UNL     1       4.491   5.729  18.024  0.00  0.00    +0.000 A 
ATOM     24  C   UNL     1       5.261   6.541  17.192  0.00  0.00    +0.000 A 
ATOM     25  C   UNL     1       5.829   6.021  16.022  0.00  0.00    +0.000 A 
BRANCH  20  26
ATOM     26  C   UNL     1       6.276   4.118  14.386  0.00  0.00    +0.000 C 
ATOM     27  C   UNL     1       7.414   5.031  13.910  0.00  0.00    +0.000 C 
BRANCH  26  31
ATOM     28  C   UNL     1       4.249   3.197  11.305  0.00  0.00    +0.000 C 
ATOM     29  C   UNL     1       5.461   3.259  12.197  0.00  0.00    +0.000 C 
ATOM     30  O   UNL     1       6.525   2.736  11.888  0.00  0.00    +0.000 OA
ATOM     31  N   UNL     1       5.245   3.952  13.366  0.00  0.00    +0.000 N 
ATOM     32  H   UNL     1       4.285   4.072  13.661  0.00  0.00    +0.000 HD
ENDBRANCH  26  31
ENDBRANCH  20  26
ENDBRANCH  19  23
ENDBRANCH   1  19
TORSDOF 5
ENDMDL
MODEL 2
REMARK VINA RESULT:      -8.4      3.344     10.102
REMARK  Name = 
REMARK  8 active torsions:
REMARK  status: ('A' for Active; 'I' for Inactive)
REMARK    1  A    between atoms: C_1  and  C_2
REMARK    2  A    between atoms: N_4  and  C_5
REMARK    3  A    between atoms: C_5  and  C_6
REMARK    4  A    between atoms: C_5  and  C_7
REMARK    5  A    between atoms: C_10  and  O_11
REMARK    6  A    between atoms: O_11  and  C_12
REMARK    7  A    between atoms: N_15  and  C_16
REMARK    8  A    between atoms: C_24  and  C_25
REMARK                            x       y       z     vdW  Elec       q    Type
REMARK                         _______ _______ _______ _____ _____    ______ ____
ROOT
ATOM      1  C   UNL     1       2.158   6.124  19.591  0.00  0.00    +0.000 C 
ATOM      2  C   UNL     1       2.972   5.007  20.256  0.00  0.00    +0.000 C 
ATOM      3  C   UNL     1       4.386   5.140  19.690  0.00  0.00    +0.000 C 
ATOM      4  N   UNL     1       4.155   5.646  18.351  0.00  0.00    +0.000 N 
ATOM      5  C   UNL     1       2.913   6.406  18.277  0.00  0.00    +0.000 C 
ENDROOT
BRANCH   4   6
ATOM      6  C   UNL     1       5.157   5.722  17.408  0.00  0.00    +0.000 A 
ATOM      7  N   UNL     1       6.054   6.724  17.519  0.00  0.00    +0.000 NA
ATOM      8  C   UNL     1       7.048   6.754  16.618  0.00  0.00    +0.000 A 
ATOM      9  N   UNL     1       7.236   5.903  15.599  0.00  0.00    +0.000 NA
ATOM     10  C   UNL     1       6.338   4.913  15.457  0.00  0.00    +0.000 A 
ATOM     11  N   UNL     1       6.479   4.010  14.402  0.00  0.00    +0.000 N 
ATOM     12  C   UNL     1       7.535   4.213  13.410  0.00  0.00    +0.000 C 
ATOM     13  C   UNL     1       6.795   4.235  12.076  0.00  0.00    +0.000 C 
ATOM     14  C   UNL     1       5.634   3.271  12.301  0.00  0.00    +0.000 C 
ATOM     15  C   UNL     1       4.472   3.523  11.351  0.00  0.00    +0.000 C 
ATOM     16  C   UNL     1       5.253   3.518  13.763  0.00  0.00    +0.000 C 
ATOM     17  C   UNL     1       5.294   4.788  16.382  0.00  0.00    +0.000 A 
ATOM     18  F   UNL     1       4.432   3.763  16.280  0.00  0.00    +0.000 F 
ENDBRANCH   4   6
BRANCH   1  19
ATOM     19  O   UNL     1       2.120   7.265  20.465  0.00  0.00    +0.000 OA
BRANCH  19  23
ATOM     20  C   UNL     1       0.007  10.689  19.244  0.00  0.00    +0.000 A 
ATOM     21  C   UNL     1      -0.233  10.063  20.474  0.00  0.00    +0.000 A 
ATOM     22  C   UNL     1       0.487   8.916  20.845  0.00  0.00    +0.000 A 
ATOM     23  C   UNL     1       1.444   8.363  19.992  0.00  0.00    +0.000 A 
ATOM     24  C   UNL     1       1.689   8.982  18.766  0.00  0.00    +0.000 A 
ATOM     25  C   UNL     1       0.982  10.133  18.400  0.00  0.00    +0.000 A 
BRANCH  20  26
ATOM     26  C   UNL     1      -0.761  11.942  18.834  0.00  0.00    +0.000 C 
ATOM     27  C   UNL     1      -1.860  12.250  19.859  0.00  0.00    +0.000 C 
BRANCH  26  31
ATOM     28  C   UNL     1      -2.694  10.850  15.747  0.00  0.00    +0.000 C 
ATOM     29  C   UNL     1      -2.274  10.837  17.194  0.00  0.00    +0.000 C 
ATOM     30  O   UNL     1      -2.765  10.065  18.009  0.00  0.00    +0.000 OA
ATOM     31  N   UNL     1      -1.302  11.766  17.488  0.00  0.00    +0.000 N 
ATOM     32  H   UNL     1      -1.190  12.538  16.845  0.00  0.00    +0.000 HD
ENDBRANCH  26  31
ENDBRANCH  20  26
ENDBRANCH  19  23
ENDBRANCH   1  19
TORSDOF 5
ENDMDL
MODEL 3
REMARK VINA RESULT:      -8.4      3.016      4.990
REMARK  Name = 
REMARK  8 active torsions:
REMARK  status: ('A' for Active; 'I' for Inactive)
REMARK    1  A    between atoms: C_1  and  C_2
REMARK    2  A    between atoms: N_4  and  C_5
REMARK    3  A    between atoms: C_5  and  C_6
REMARK    4  A    between atoms: C_5  and  C_7
REMARK    5  A    between atoms: C_10  and  O_11
REMARK    6  A    between atoms: O_11  and  C_12
REMARK    7  A    between atoms: N_15  and  C_16
REMARK    8  A    between atoms: C_24  and  C_25
REMARK                            x       y       z     vdW  Elec       q    Type
REMARK                         _______ _______ _______ _____ _____    ______ ____
ROOT
ATOM      1  C   UNL     1       0.829  10.164  21.534  0.00  0.00    +0.000 C 
ATOM      2  C   UNL     1       0.190   9.580  22.800  0.00  0.00    +0.000 C 
ATOM      3  C   UNL     1      -1.007  10.482  23.107  0.00  0.00    +0.000 C 
ATOM      4  N   UNL     1      -0.569  11.778  22.627  0.00  0.00    +0.000 N 
ATOM      5  C   UNL     1       0.404  11.645  21.549  0.00  0.00    +0.000 C 
ENDROOT
BRANCH   4   6
ATOM      6  C   UNL     1      -1.269  12.936  22.890  0.00  0.00    +0.000 A 
ATOM      7  N   UNL     1      -0.613  13.944  23.504  0.00  0.00    +0.000 NA
ATOM      8  C   UNL     1      -1.299  15.078  23.711  0.00  0.00    +0.000 A 
ATOM      9  N   UNL     1      -2.580  15.315  23.391  0.00  0.00    +0.000 NA
ATOM     10  C   UNL     1      -3.256  14.314  22.801  0.00  0.00    +0.000 A 
ATOM     11  N   UNL     1      -4.597  14.503  22.464  0.00  0.00    +0.000 N 
ATOM     12  C   UNL     1      -5.274  15.742  22.846  0.00  0.00    +0.000 C 
ATOM     13  C   UNL     1      -6.495  15.272  23.631  0.00  0.00    +0.000 C 
ATOM     14  C   UNL     1      -6.861  13.952  22.959  0.00  0.00    +0.000 C 
ATOM     15  C   UNL     1      -7.674  13.040  23.865  0.00  0.00    +0.000 C 
ATOM     16  C   UNL     1      -5.499  13.353  22.601  0.00  0.00    +0.000 C 
ATOM     17  C   UNL     1      -2.599  13.110  22.513  0.00  0.00    +0.000 A 
ATOM     18  F   UNL     1      -3.255  12.132  21.867  0.00  0.00    +0.000 F 
ENDBRANCH   4   6
BRANCH   1  19
ATOM     19  O   UNL     1       0.334   9.456  20.386  0.00  0.00    +0.000 OA
BRANCH  19  23
ATOM     20  C   UNL     1       3.050   6.877  18.473  0.00  0.00    +0.000 A 
ATOM     21  C   UNL     1       2.528   6.603  19.744  0.00  0.00    +0.000 A 
ATOM     22  C   UNL     1       1.629   7.491  20.356  0.00  0.00    +0.000 A 
ATOM     23  C   UNL     1       1.248   8.676  19.721  0.00  0.00    +0.000 A 
ATOM     24  C   UNL     1       1.761   8.954  18.455  0.00  0.00    +0.000 A 
ATOM     25  C   UNL     1       2.648   8.063  17.838  0.00  0.00    +0.000 A 
BRANCH  20  26
ATOM     26  C   UNL     1       4.019   5.914  17.795  0.00  0.00    +0.000 C 
ATOM     27  C   UNL     1       4.670   6.586  16.578  0.00  0.00    +0.000 C 
BRANCH  26  31
ATOM     28  C   UNL     1       2.699   2.359  17.527  0.00  0.00    +0.000 C 
ATOM     29  C   UNL     1       3.557   3.482  18.050  0.00  0.00    +0.000 C 
ATOM     30  O   UNL     1       4.383   3.311  18.939  0.00  0.00    +0.000 OA
ATOM     31  N   UNL     1       3.316   4.687  17.431  0.00  0.00    +0.000 N 
ATOM     32  H   UNL     1       2.432   4.791  16.948  0.00  0.00    +0.000 HD
ENDBRANCH  26  31
ENDBRANCH  20  26
ENDBRANCH  19  23
ENDBRANCH   1  19
TORSDOF 5
ENDMDL
MODEL 4
REMARK VINA RESULT:      -8.4      0.516      1.002
REMARK  Name = 
REMARK  8 active torsions:
REMARK  status: ('A' for Active; 'I' for Inactive)
REMARK    1  A    between atoms: C_1  and  C_2
REMARK    2  A    between atoms: N_4  and  C_5
REMARK    3  A    between atoms: C_5  and  C_6
REMARK    4  A    between atoms: C_5  and  C_7
REMARK    5  A    between atoms: C_10  and  O_11
REMARK    6  A    between atoms: O_11  and  C_12
REMARK    7  A    between atoms: N_15  and  C_16
REMARK    8  A    between atoms: C_24  and  C_25
REMARK                            x       y       z     vdW  Elec       q    Type
REMARK                         _______ _______ _______ _____ _____    ______ ____
ROOT
ATOM      1  C   UNL     1       2.238   6.885  18.731  0.00  0.00    +0.000 C 
ATOM      2  C   UNL     1       1.916   8.117  17.875  0.00  0.00    +0.000 C 
ATOM      3  C   UNL     1       1.718   9.263  18.867  0.00  0.00    +0.000 C 
ATOM      4  N   UNL     1       1.171   8.594  20.032  0.00  0.00    +0.000 N 
ATOM      5  C   UNL     1       1.603   7.204  20.098  0.00  0.00    +0.000 C 
ENDROOT
BRANCH   4   6
ATOM      6  C   UNL     1       0.651   9.288  21.103  0.00  0.00    +0.000 A 
ATOM      7  N   UNL     1       0.916   8.825  22.343  0.00  0.00    +0.000 NA
ATOM      8  C   UNL     1       0.438   9.539  23.374  0.00  0.00    +0.000 A 
ATOM      9  N   UNL     1      -0.296  10.660  23.306  0.00  0.00    +0.000 NA
ATOM     10  C   UNL     1      -0.591  11.121  22.079  0.00  0.00    +0.000 A 
ATOM     11  N   UNL     1      -1.368  12.274  21.952  0.00  0.00    +0.000 N 
ATOM     12  C   UNL     1      -1.933  12.903  23.146  0.00  0.00    +0.000 C 
ATOM     13  C   UNL     1      -3.429  12.977  22.855  0.00  0.00    +0.000 C 
ATOM     14  C   UNL     1      -3.485  13.180  21.344  0.00  0.00    +0.000 C 
ATOM     15  C   UNL     1      -4.815  12.748  20.744  0.00  0.00    +0.000 C 
ATOM     16  C   UNL     1      -2.316  12.333  20.834  0.00  0.00    +0.000 C 
ATOM     17  C   UNL     1      -0.095  10.456  20.950  0.00  0.00    +0.000 A 
ATOM     18  F   UNL     1      -0.335  10.950  19.725  0.00  0.00    +0.000 F 
ENDBRANCH   4   6
BRANCH   1  19
ATOM     19  O   UNL     1       3.664   6.721  18.805  0.00  0.00    +0.000 OA
BRANCH  19  23
ATOM     20  C   UNL     1       5.647   4.864  15.594  0.00  0.00    +0.000 A 
ATOM     21  C   UNL     1       5.911   6.188  15.970  0.00  0.00    +0.000 A 
ATOM     22  C   UNL     1       5.224   6.777  17.043  0.00  0.00    +0.000 A 
ATOM     23  C   UNL     1       4.249   6.067  17.748  0.00  0.00    +0.000 A 
ATOM     24  C   UNL     1       3.981   4.749  17.380  0.00  0.00    +0.000 A 
ATOM     25  C   UNL     1       4.676   4.154  16.319  0.00  0.00    +0.000 A 
BRANCH  20  26
ATOM     26  C   UNL     1       6.394   4.209  14.437  0.00  0.00    +0.000 C 
ATOM     27  C   UNL     1       7.487   5.148  13.911  0.00  0.00    +0.000 C 
BRANCH  26  31
ATOM     28  C   UNL     1       4.683   2.914  11.299  0.00  0.00    +0.000 C 
ATOM     29  C   UNL     1       5.834   3.230  12.218  0.00  0.00    +0.000 C 
ATOM     30  O   UNL     1       6.994   2.965  11.925  0.00  0.00    +0.000 OA
ATOM     31  N   UNL     1       5.445   3.834  13.392  0.00  0.00    +0.000 N 
ATOM     32  H   UNL     1       4.477   3.730  13.667  0.00  0.00    +0.000 HD
ENDBRANCH  26  31
ENDBRANCH  20  26
ENDBRANCH  19  23
ENDBRANCH   1  19
TORSDOF 5
ENDMDL
MODEL 5
REMARK VINA RESULT:      -8.4      2.982     10.937
REMARK  Name = 
REMARK  8 active torsions:
REMARK  status: ('A' for Active; 'I' for Inactive)
REMARK    1  A    between atoms: C_1  and  C_2
REMARK    2  A    between atoms: N_4  and  C_5
REMARK    3  A    between atoms: C_5  and  C_6
REMARK    4  A    between atoms: C_5  and  C_7
REMARK    5  A    between atoms: C_10  and  O_11
REMARK    6  A    between atoms: O_11  and  C_12
REMARK    7  A    between atoms: N_15  and  C_16
REMARK    8  A    between atoms: C_24  and  C_25
REMARK                            x       y       z     vdW  Elec       q    Type
REMARK                         _______ _______ _______ _____ _____    ______ ____
ROOT
ATOM      1  C   UNL     1       2.055   6.497  19.555  0.00  0.00    +0.000 C 
ATOM      2  C   UNL     1       2.658   5.202  20.115  0.00  0.00    +0.000 C 
ATOM      3  C   UNL     1       4.094   5.162  19.592  0.00  0.00    +0.000 C 
ATOM      4  N   UNL     1       3.993   5.830  18.309  0.00  0.00    +0.000 N 
ATOM      5  C   UNL     1       2.890   6.783  18.292  0.00  0.00    +0.000 C 
ENDROOT
BRANCH   4   6
ATOM      6  C   UNL     1       5.027   5.838  17.399  0.00  0.00    +0.000 A 
ATOM      7  N   UNL     1       5.972   6.794  17.524  0.00  0.00    +0.000 NA
ATOM      8  C   UNL     1       6.994   6.757  16.654  0.00  0.00    +0.000 A 
ATOM      9  N   UNL     1       7.169   5.880  15.655  0.00  0.00    +0.000 NA
ATOM     10  C   UNL     1       6.225   4.936  15.500  0.00  0.00    +0.000 A 
ATOM     11  N   UNL     1       6.351   4.010  14.463  0.00  0.00    +0.000 N 
ATOM     12  C   UNL     1       7.447   4.140  13.503  0.00  0.00    +0.000 C 
ATOM     13  C   UNL     1       6.752   4.178  12.145  0.00  0.00    +0.000 C 
ATOM     14  C   UNL     1       5.534   3.280  12.347  0.00  0.00    +0.000 C 
ATOM     15  C   UNL     1       4.418   3.576  11.357  0.00  0.00    +0.000 C 
ATOM     16  C   UNL     1       5.122   3.571  13.793  0.00  0.00    +0.000 C 
ATOM     17  C   UNL     1       5.147   4.881  16.392  0.00  0.00    +0.000 A 
ATOM     18  F   UNL     1       4.236   3.900  16.277  0.00  0.00    +0.000 F 
ENDBRANCH   4   6
BRANCH   1  19
ATOM     19  O   UNL     1       2.166   7.535  20.542  0.00  0.00    +0.000 OA
BRANCH  19  23
ATOM     20  C   UNL     1      -0.600  10.702  20.471  0.00  0.00    +0.000 A 
ATOM     21  C   UNL     1      -0.416   9.897  21.602  0.00  0.00    +0.000 A 
ATOM     22  C   UNL     1       0.512   8.843  21.587  0.00  0.00    +0.000 A 
ATOM     23  C   UNL     1       1.259   8.561  20.441  0.00  0.00    +0.000 A 
ATOM     24  C   UNL     1       1.083   9.360  19.311  0.00  0.00    +0.000 A 
ATOM     25  C   UNL     1       0.168  10.420  19.329  0.00  0.00    +0.000 A 
BRANCH  20  26
ATOM     26  C   UNL     1      -1.596  11.857  20.478  0.00  0.00    +0.000 C 
ATOM     27  C   UNL     1      -1.102  12.991  19.571  0.00  0.00    +0.000 C 
BRANCH  26  31
ATOM     28  C   UNL     1      -3.048  12.927  23.824  0.00  0.00    +0.000 C 
ATOM     29  C   UNL     1      -3.069  12.477  22.387  0.00  0.00    +0.000 C 
ATOM     30  O   UNL     1      -4.115  12.290  21.777  0.00  0.00    +0.000 OA
ATOM     31  N   UNL     1      -1.813  12.307  21.850  0.00  0.00    +0.000 N 
ATOM     32  H   UNL     1      -1.045  12.188  22.498  0.00  0.00    +0.000 HD
ENDBRANCH  26  31
ENDBRANCH  20  26
ENDBRANCH  19  23
ENDBRANCH   1  19
TORSDOF 5
ENDMDL
MODEL 6
REMARK VINA RESULT:      -8.3      3.307     10.586
REMARK  Name = 
REMARK  8 active torsions:
REMARK  status: ('A' for Active; 'I' for Inactive)
REMARK    1  A    between atoms: C_1  and  C_2
REMARK    2  A    between atoms: N_4  and  C_5
REMARK    3  A    between atoms: C_5  and  C_6
REMARK    4  A    between atoms: C_5  and  C_7
REMARK    5  A    between atoms: C_10  and  O_11
REMARK    6  A    between atoms: O_11  and  C_12
REMARK    7  A    between atoms: N_15  and  C_16
REMARK    8  A    between atoms: C_24  and  C_25
REMARK                            x       y       z     vdW  Elec       q    Type
REMARK                         _______ _______ _______ _____ _____    ______ ____
ROOT
ATOM      1  C   UNL     1       2.151   6.537  19.455  0.00  0.00    +0.000 C 
ATOM      2  C   UNL     1       2.815   5.314  20.102  0.00  0.00    +0.000 C 
ATOM      3  C   UNL     1       4.246   5.296  19.565  0.00  0.00    +0.000 C 
ATOM      4  N   UNL     1       4.104   5.862  18.237  0.00  0.00    +0.000 N 
ATOM      5  C   UNL     1       2.960   6.763  18.164  0.00  0.00    +0.000 C 
ENDROOT
BRANCH   4   6
ATOM      6  C   UNL     1       5.128   5.845  17.315  0.00  0.00    +0.000 A 
ATOM      7  N   UNL     1       6.098   6.777  17.432  0.00  0.00    +0.000 NA
ATOM      8  C   UNL     1       7.109   6.716  16.551  0.00  0.00    +0.000 A 
ATOM      9  N   UNL     1       7.251   5.837  15.548  0.00  0.00    +0.000 NA
ATOM     10  C   UNL     1       6.282   4.918  15.402  0.00  0.00    +0.000 A 
ATOM     11  N   UNL     1       6.374   3.990  14.362  0.00  0.00    +0.000 N 
ATOM     12  C   UNL     1       7.462   4.095  13.390  0.00  0.00    +0.000 C 
ATOM     13  C   UNL     1       6.753   4.153  12.041  0.00  0.00    +0.000 C 
ATOM     14  C   UNL     1       5.516   3.286  12.254  0.00  0.00    +0.000 C 
ATOM     15  C   UNL     1       4.397   3.612  11.277  0.00  0.00    +0.000 C 
ATOM     16  C   UNL     1       5.127   3.584  13.705  0.00  0.00    +0.000 C 
ATOM     17  C   UNL     1       5.213   4.888  16.306  0.00  0.00    +0.000 A 
ATOM     18  F   UNL     1       4.276   3.931  16.199  0.00  0.00    +0.000 F 
ENDBRANCH   4   6
BRANCH   1  19
ATOM     19  O   UNL     1       2.227   7.649  20.361  0.00  0.00    +0.000 OA
BRANCH  19  23
ATOM     20  C   UNL     1      -0.618  10.642  19.560  0.00  0.00    +0.000 A 
ATOM     21  C   UNL     1       0.353  10.264  18.623  0.00  0.00    +0.000 A 
ATOM     22  C   UNL     1       1.292   9.265  18.928  0.00  0.00    +0.000 A 
ATOM     23  C   UNL     1       1.293   8.640  20.177  0.00  0.00    +0.000 A 
ATOM     24  C   UNL     1       0.329   9.010  21.115  0.00  0.00    +0.000 A 
ATOM     25  C   UNL     1      -0.617   9.995  20.807  0.00  0.00    +0.000 A 
BRANCH  20  26
ATOM     26  C   UNL     1      -1.650  11.717  19.237  0.00  0.00    +0.000 C 
ATOM     27  C   UNL     1      -2.695  11.172  18.255  0.00  0.00    +0.000 C 
BRANCH  26  31
ATOM     28  C   UNL     1      -0.084  15.142  18.714  0.00  0.00    +0.000 C 
ATOM     29  C   UNL     1      -0.835  14.060  19.446  0.00  0.00    +0.000 C 
ATOM     30  O   UNL     1      -1.270  14.221  20.580  0.00  0.00    +0.000 OA
ATOM     31  N   UNL     1      -0.974  12.902  18.715  0.00  0.00    +0.000 N 
ATOM     32  H   UNL     1      -0.335  12.763  17.943  0.00  0.00    +0.000 HD
ENDBRANCH  26  31
ENDBRANCH  20  26
ENDBRANCH  19  23
ENDBRANCH   1  19
TORSDOF 5
ENDMDL
MODEL 7
REMARK VINA RESULT:      -8.2      3.358      5.163
REMARK  Name = 
REMARK  8 active torsions:
REMARK  status: ('A' for Active; 'I' for Inactive)
REMARK    1  A    between atoms: C_1  and  C_2
REMARK    2  A    between atoms: N_4  and  C_5
REMARK    3  A    between atoms: C_5  and  C_6
REMARK    4  A    between atoms: C_5  and  C_7
REMARK    5  A    between atoms: C_10  and  O_11
REMARK    6  A    between atoms: O_11  and  C_12
REMARK    7  A    between atoms: N_15  and  C_16
REMARK    8  A    between atoms: C_24  and  C_25
REMARK                            x       y       z     vdW  Elec       q    Type
REMARK                         _______ _______ _______ _____ _____    ______ ____
ROOT
ATOM      1  C   UNL     1       0.765  10.209  18.298  0.00  0.00    +0.000 C 
ATOM      2  C   UNL     1       0.873  11.659  18.786  0.00  0.00    +0.000 C 
ATOM      3  C   UNL     1      -0.551  12.073  19.157  0.00  0.00    +0.000 C 
ATOM      4  N   UNL     1      -1.364  11.312  18.228  0.00  0.00    +0.000 N 
ATOM      5  C   UNL     1      -0.695  10.084  17.818  0.00  0.00    +0.000 C 
ENDROOT
BRANCH   4   6
ATOM      6  C   UNL     1      -2.715  11.537  18.077  0.00  0.00    +0.000 A 
ATOM      7  N   UNL     1      -3.255  11.339  16.856  0.00  0.00    +0.000 NA
ATOM      8  C   UNL     1      -4.580  11.520  16.739  0.00  0.00    +0.000 A 
ATOM      9  N   UNL     1      -5.429  11.898  17.707  0.00  0.00    +0.000 NA
ATOM     10  C   UNL     1      -4.905  12.123  18.923  0.00  0.00    +0.000 A 
ATOM     11  N   UNL     1      -5.743  12.536  19.961  0.00  0.00    +0.000 N 
ATOM     12  C   UNL     1      -7.153  12.814  19.688  0.00  0.00    +0.000 C 
ATOM     13  C   UNL     1      -7.356  14.239  20.195  0.00  0.00    +0.000 C 
ATOM     14  C   UNL     1      -6.401  14.331  21.382  0.00  0.00    +0.000 C 
ATOM     15  C   UNL     1      -6.016  15.765  21.712  0.00  0.00    +0.000 C 
ATOM     16  C   UNL     1      -5.201  13.495  20.930  0.00  0.00    +0.000 C 
ATOM     17  C   UNL     1      -3.536  11.917  19.138  0.00  0.00    +0.000 A 
ATOM     18  F   UNL     1      -3.021  12.081  20.368  0.00  0.00    +0.000 F 
ENDBRANCH   4   6
BRANCH   1  19
ATOM     19  O   UNL     1       1.069   9.321  19.386  0.00  0.00    +0.000 OA
BRANCH  19  23
ATOM     20  C   UNL     1       3.713   6.227  18.324  0.00  0.00    +0.000 A 
ATOM     21  C   UNL     1       3.482   7.331  17.492  0.00  0.00    +0.000 A 
ATOM     22  C   UNL     1       2.586   8.341  17.876  0.00  0.00    +0.000 A 
ATOM     23  C   UNL     1       1.891   8.262  19.086  0.00  0.00    +0.000 A 
ATOM     24  C   UNL     1       2.117   7.168  19.920  0.00  0.00    +0.000 A 
ATOM     25  C   UNL     1       3.021   6.165  19.544  0.00  0.00    +0.000 A 
BRANCH  20  26
ATOM     26  C   UNL     1       4.691   5.128  17.922  0.00  0.00    +0.000 C 
ATOM     27  C   UNL     1       5.385   5.490  16.603  0.00  0.00    +0.000 C 
BRANCH  26  31
ATOM     28  C   UNL     1       3.301   1.636  18.492  0.00  0.00    +0.000 C 
ATOM     29  C   UNL     1       4.144   2.852  18.770  0.00  0.00    +0.000 C 
ATOM     30  O   UNL     1       4.892   2.919  19.738  0.00  0.00    +0.000 OA
ATOM     31  N   UNL     1       3.986   3.852  17.838  0.00  0.00    +0.000 N 
ATOM     32  H   UNL     1       3.146   3.829  17.273  0.00  0.00    +0.000 HD
ENDBRANCH  26  31
ENDBRANCH  20  26
ENDBRANCH  19  23
ENDBRANCH   1  19
TORSDOF 5
ENDMDL
MODEL 8
REMARK VINA RESULT:      -8.2      2.989     10.997
REMARK  Name = 
REMARK  8 active torsions:
REMARK  status: ('A' for Active; 'I' for Inactive)
REMARK    1  A    between atoms: C_1  and  C_2
REMARK    2  A    between atoms: N_4  and  C_5
REMARK    3  A    between atoms: C_5  and  C_6
REMARK    4  A    between atoms: C_5  and  C_7
REMARK    5  A    between atoms: C_10  and  O_11
REMARK    6  A    between atoms: O_11  and  C_12
REMARK    7  A    between atoms: N_15  and  C_16
REMARK    8  A    between atoms: C_24  and  C_25
REMARK                            x       y       z     vdW  Elec       q    Type
REMARK                         _______ _______ _______ _____ _____    ______ ____
ROOT
ATOM      1  C   UNL     1       2.036   6.704  19.532  0.00  0.00    +0.000 C 
ATOM      2  C   UNL     1       2.463   5.291  19.948  0.00  0.00    +0.000 C 
ATOM      3  C   UNL     1       3.898   5.134  19.445  0.00  0.00    +0.000 C 
ATOM      4  N   UNL     1       3.915   5.951  18.247  0.00  0.00    +0.000 N 
ATOM      5  C   UNL     1       2.935   7.027  18.323  0.00  0.00    +0.000 C 
ENDROOT
BRANCH   4   6
ATOM      6  C   UNL     1       4.969   5.934  17.359  0.00  0.00    +0.000 A 
ATOM      7  N   UNL     1       5.920   6.882  17.490  0.00  0.00    +0.000 NA
ATOM      8  C   UNL     1       6.960   6.822  16.644  0.00  0.00    +0.000 A 
ATOM      9  N   UNL     1       7.148   5.928  15.661  0.00  0.00    +0.000 NA
ATOM     10  C   UNL     1       6.198   4.992  15.500  0.00  0.00    +0.000 A 
ATOM     11  N   UNL     1       6.337   4.049  14.479  0.00  0.00    +0.000 N 
ATOM     12  C   UNL     1       7.454   4.154  13.542  0.00  0.00    +0.000 C 
ATOM     13  C   UNL     1       6.789   4.178  12.169  0.00  0.00    +0.000 C 
ATOM     14  C   UNL     1       5.558   3.296  12.358  0.00  0.00    +0.000 C 
ATOM     15  C   UNL     1       4.467   3.588  11.339  0.00  0.00    +0.000 C 
ATOM     16  C   UNL     1       5.118   3.612  13.789  0.00  0.00    +0.000 C 
ATOM     17  C   UNL     1       5.100   4.961  16.369  0.00  0.00    +0.000 A 
ATOM     18  F   UNL     1       4.182   3.988  16.249  0.00  0.00    +0.000 F 
ENDBRANCH   4   6
BRANCH   1  19
ATOM     19  O   UNL     1       2.243   7.603  20.634  0.00  0.00    +0.000 OA
BRANCH  19  23
ATOM     20  C   UNL     1      -0.602  10.697  20.792  0.00  0.00    +0.000 A 
ATOM     21  C   UNL     1       0.145  10.427  19.638  0.00  0.00    +0.000 A 
ATOM     22  C   UNL     1       1.092   9.390  19.624  0.00  0.00    +0.000 A 
ATOM     23  C   UNL     1       1.325   8.617  20.764  0.00  0.00    +0.000 A 
ATOM     24  C   UNL     1       0.585   8.879  21.916  0.00  0.00    +0.000 A 
ATOM     25  C   UNL     1      -0.370   9.904  21.927  0.00  0.00    +0.000 A 
BRANCH  20  26
ATOM     26  C   UNL     1      -1.640  11.813  20.816  0.00  0.00    +0.000 C 
ATOM     27  C   UNL     1      -1.859  12.366  19.401  0.00  0.00    +0.000 C 
BRANCH  26  31
ATOM     28  C   UNL     1      -1.279  14.233  23.726  0.00  0.00    +0.000 C 
ATOM     29  C   UNL     1      -1.911  13.138  22.906  0.00  0.00    +0.000 C 
ATOM     30  O   UNL     1      -2.940  12.573  23.255  0.00  0.00    +0.000 OA
ATOM     31  N   UNL     1      -1.219  12.854  21.751  0.00  0.00    +0.000 N 
ATOM     32  H   UNL     1      -0.251  13.143  21.708  0.00  0.00    +0.000 HD
ENDBRANCH  26  31
ENDBRANCH  20  26
ENDBRANCH  19  23
ENDBRANCH   1  19
TORSDOF 5
ENDMDL
MODEL 9
REMARK VINA RESULT:      -8.2      3.599      5.569
REMARK  Name = 
REMARK  8 active torsions:
REMARK  status: ('A' for Active; 'I' for Inactive)
REMARK    1  A    between atoms: C_1  and  C_2
REMARK    2  A    between atoms: N_4  and  C_5
REMARK    3  A    between atoms: C_5  and  C_6
REMARK    4  A    between atoms: C_5  and  C_7
REMARK    5  A    between atoms: C_10  and  O_11
REMARK    6  A    between atoms: O_11  and  C_12
REMARK    7  A    between atoms: N_15  and  C_16
REMARK    8  A    between atoms: C_24  and  C_25
REMARK                            x       y       z     vdW  Elec       q    Type
REMARK                         _______ _______ _______ _____ _____    ______ ____
ROOT
ATOM      1  C   UNL     1       0.803  10.566  18.504  0.00  0.00    +0.000 C 
ATOM      2  C   UNL     1       0.759  12.063  18.837  0.00  0.00    +0.000 C 
ATOM      3  C   UNL     1      -0.717  12.386  19.071  0.00  0.00    +0.000 C 
ATOM      4  N   UNL     1      -1.397  11.466  18.181  0.00  0.00    +0.000 N 
ATOM      5  C   UNL     1      -0.603  10.265  17.950  0.00  0.00    +0.000 C 
ENDROOT
BRANCH   4   6
ATOM      6  C   UNL     1      -2.748  11.554  17.921  0.00  0.00    +0.000 A 
ATOM      7  N   UNL     1      -3.166  11.307  16.662  0.00  0.00    +0.000 NA
ATOM      8  C   UNL     1      -4.489  11.355  16.440  0.00  0.00    +0.000 A 
ATOM      9  N   UNL     1      -5.446  11.642  17.335  0.00  0.00    +0.000 NA
ATOM     10  C   UNL     1      -5.045  11.915  18.588  0.00  0.00    +0.000 A 
ATOM     11  N   UNL     1      -6.001  12.238  19.554  0.00  0.00    +0.000 N 
ATOM     12  C   UNL     1      -7.405  12.375  19.168  0.00  0.00    +0.000 C 
ATOM     13  C   UNL     1      -7.790  13.770  19.651  0.00  0.00    +0.000 C 
ATOM     14  C   UNL     1      -6.947  13.953  20.910  0.00  0.00    +0.000 C 
ATOM     15  C   UNL     1      -6.734  15.417  21.264  0.00  0.00    +0.000 C 
ATOM     16  C   UNL     1      -5.636  13.243  20.558  0.00  0.00    +0.000 C 
ATOM     17  C   UNL     1      -3.684  11.846  18.912  0.00  0.00    +0.000 A 
ATOM     18  F   UNL     1      -3.288  12.056  20.178  0.00  0.00    +0.000 F 
ENDBRANCH   4   6
BRANCH   1  19
ATOM     19  O   UNL     1       1.099   9.825  19.699  0.00  0.00    +0.000 OA
BRANCH  19  23
ATOM     20  C   UNL     1       2.931   6.109  18.974  0.00  0.00    +0.000 A 
ATOM     21  C   UNL     1       2.948   7.146  18.032  0.00  0.00    +0.000 A 
ATOM     22  C   UNL     1       2.319   8.372  18.306  0.00  0.00    +0.000 A 
ATOM     23  C   UNL     1       1.647   8.579  19.513  0.00  0.00    +0.000 A 
ATOM     24  C   UNL     1       1.627   7.551  20.455  0.00  0.00    +0.000 A 
ATOM     25  C   UNL     1       2.265   6.333  20.190  0.00  0.00    +0.000 A 
BRANCH  20  26
ATOM     26  C   UNL     1       3.619   4.777  18.692  0.00  0.00    +0.000 C 
ATOM     27  C   UNL     1       4.100   4.725  17.236  0.00  0.00    +0.000 C 
BRANCH  26  31
ATOM     28  C   UNL     1       0.776   2.256  18.796  0.00  0.00    +0.000 C 
ATOM     29  C   UNL     1       1.543   3.457  18.310  0.00  0.00    +0.000 C 
ATOM     30  O   UNL     1       1.147   4.153  17.383  0.00  0.00    +0.000 OA
ATOM     31  N   UNL     1       2.709   3.680  19.007  0.00  0.00    +0.000 N 
ATOM     32  H   UNL     1       3.092   2.901  19.527  0.00  0.00    +0.000 HD
ENDBRANCH  26  31
ENDBRANCH  20  26
ENDBRANCH  19  23
ENDBRANCH   1  19
TORSDOF 5
ENDMDL
