MODEL 1
REMARK VINA RESULT:      -8.8      0.000      0.000
REMARK  Name = 
REMARK  4 active torsions:
REMARK  status: ('A' for Active; 'I' for Inactive)
REMARK    1  A    between atoms: C_1  and  C_2
REMARK    2  A    between atoms: C_5  and  C_6
REMARK    3  A    between atoms: N_8  and  C_9
REMARK    4  A    between atoms: C_13  and  C_14
REMARK                            x       y       z     vdW  Elec       q    Type
REMARK                         _______ _______ _______ _____ _____    ______ ____
ROOT
ATOM      1  C   UNL     1       7.015   5.750  18.099  0.00  0.00    +0.000 C 
ATOM      2  C   UNL     1       6.584   5.191  16.765  0.00  0.00    +0.000 A 
ATOM      3  C   UNL     1       7.521   5.312  15.720  0.00  0.00    +0.000 A 
ATOM      4  C   UNL     1       7.261   4.804  14.451  0.00  0.00    +0.000 A 
ATOM      5  C   UNL     1       6.053   4.163  14.192  0.00  0.00    +0.000 A 
ATOM      6  C   UNL     1       5.093   4.069  15.213  0.00  0.00    +0.000 A 
ATOM      7  C   UNL     1       5.321   4.578  16.521  0.00  0.00    +0.000 A 
ENDROOT
BRANCH   7   8
ATOM      8  C   UNL     1       4.248   4.434  17.556  0.00  0.00    +0.000 A 
ATOM      9  C   UNL     1       3.048   5.159  17.502  0.00  0.00    +0.000 A 
ATOM     10  C   UNL     1       2.091   5.085  18.513  0.00  0.00    +0.000 A 
ATOM     11  C   UNL     1       2.263   4.191  19.567  0.00  0.00    +0.000 A 
ATOM     12  C   UNL     1       1.298   4.067  20.576  0.00  0.00    +0.000 A 
ATOM     13  C   UNL     1       1.482   3.126  21.578  0.00  0.00    +0.000 A 
ATOM     14  C   UNL     1       2.626   2.352  21.540  0.00  0.00    +0.000 A 
ATOM     15  N   UNL     1       3.588   2.467  20.598  0.00  0.00    +0.000 NA
ATOM     16  C   UNL     1       3.413   3.375  19.625  0.00  0.00    +0.000 A 
ATOM     17  C   UNL     1       4.383   3.537  18.638  0.00  0.00    +0.000 A 
ENDBRANCH   7   8
BRANCH   5  18
ATOM     18  C   UNL     1       5.828   3.647  12.814  0.00  0.00    +0.000 C 
ATOM     19  O   UNL     1       6.774   3.185  12.181  0.00  0.00    +0.000 OA
ATOM     20  N   UNL     1       4.531   3.675  12.330  0.00  0.00    +0.000 N 
ATOM     21  H   UNL     1       3.772   3.927  12.948  0.00  0.00    +0.000 HD
BRANCH  20  22
ATOM     22  C   UNL     1       4.204   3.150  11.037  0.00  0.00    +0.000 C 
ATOM     23  C   UNL     1       2.800   2.736  10.694  0.00  0.00    +0.000 C 
ATOM     24  C   UNL     1       3.388   3.969  10.076  0.00  0.00    +0.000 C 
ENDBRANCH  20  22
ENDBRANCH   5  18
TORSDOF 3
ENDMDL
MODEL 2
REMARK VINA RESULT:      -8.2      1.026      1.472
REMARK  Name = 
REMARK  4 active torsions:
REMARK  status: ('A' for Active; 'I' for Inactive)
REMARK    1  A    between atoms: C_1  and  C_2
REMARK    2  A    between atoms: C_5  and  C_6
REMARK    3  A    between atoms: N_8  and  C_9
REMARK    4  A    between atoms: C_13  and  C_14
REMARK                            x       y       z     vdW  Elec       q    Type
REMARK                         _______ _______ _______ _____ _____    ______ ____
ROOT
ATOM      1  C   UNL     1       7.106   5.207  17.905  0.00  0.00    +0.000 C 
ATOM      2  C   UNL     1       6.655   4.767  16.533  0.00  0.00    +0.000 A 
ATOM      3  C   UNL     1       7.503   5.127  15.467  0.00  0.00    +0.000 A 
ATOM      4  C   UNL     1       7.220   4.751  14.158  0.00  0.00    +0.000 A 
ATOM      5  C   UNL     1       6.078   4.005  13.879  0.00  0.00    +0.000 A 
ATOM      6  C   UNL     1       5.204   3.671  14.926  0.00  0.00    +0.000 A 
ATOM      7  C   UNL     1       5.457   4.040  16.275  0.00  0.00    +0.000 A 
ENDROOT
BRANCH   7   8
ATOM      8  C   UNL     1       4.477   3.641  17.336  0.00  0.00    +0.000 A 
ATOM      9  C   UNL     1       4.179   2.300  17.619  0.00  0.00    +0.000 A 
ATOM     10  C   UNL     1       3.203   1.936  18.545  0.00  0.00    +0.000 A 
ATOM     11  C   UNL     1       2.565   2.917  19.300  0.00  0.00    +0.000 A 
ATOM     12  C   UNL     1       1.608   2.578  20.268  0.00  0.00    +0.000 A 
ATOM     13  C   UNL     1       1.035   3.581  21.036  0.00  0.00    +0.000 A 
ATOM     14  C   UNL     1       1.433   4.884  20.803  0.00  0.00    +0.000 A 
ATOM     15  N   UNL     1       2.330   5.246  19.861  0.00  0.00    +0.000 NA
ATOM     16  C   UNL     1       2.889   4.278  19.116  0.00  0.00    +0.000 A 
ATOM     17  C   UNL     1       3.810   4.605  18.124  0.00  0.00    +0.000 A 
ENDBRANCH   7   8
BRANCH   5  18
ATOM     18  C   UNL     1       5.825   3.638  12.459  0.00  0.00    +0.000 C 
ATOM     19  O   UNL     1       6.768   3.316  11.741  0.00  0.00    +0.000 OA
ATOM     20  N   UNL     1       4.508   3.636  12.029  0.00  0.00    +0.000 N 
ATOM     21  H   UNL     1       3.763   3.764  12.701  0.00  0.00    +0.000 HD
BRANCH  20  22
ATOM     22  C   UNL     1       4.157   3.244  10.697  0.00  0.00    +0.000 C 
ATOM     23  C   UNL     1       2.767   2.781  10.359  0.00  0.00    +0.000 C 
ATOM     24  C   UNL     1       3.252   4.114   9.869  0.00  0.00    +0.000 C 
ENDBRANCH  20  22
ENDBRANCH   5  18
TORSDOF 3
ENDMDL
MODEL 3
REMARK VINA RESULT:      -8.0      1.339      1.563
REMARK  Name = 
REMARK  4 active torsions:
REMARK  status: ('A' for Active; 'I' for Inactive)
REMARK    1  A    between atoms: C_1  and  C_2
REMARK    2  A    between atoms: C_5  and  C_6
REMARK    3  A    between atoms: N_8  and  C_9
REMARK    4  A    between atoms: C_13  and  C_14
REMARK                            x       y       z     vdW  Elec       q    Type
REMARK                         _______ _______ _______ _____ _____    ______ ____
ROOT
ATOM      1  C   UNL     1       6.773   5.518  18.899  0.00  0.00    +0.000 C 
ATOM      2  C   UNL     1       6.593   5.121  17.454  0.00  0.00    +0.000 A 
ATOM      3  C   UNL     1       7.682   5.398  16.604  0.00  0.00    +0.000 A 
ATOM      4  C   UNL     1       7.657   5.049  15.257  0.00  0.00    +0.000 A 
ATOM      5  C   UNL     1       6.539   4.414  14.724  0.00  0.00    +0.000 A 
ATOM      6  C   UNL     1       5.431   4.165  15.549  0.00  0.00    +0.000 A 
ATOM      7  C   UNL     1       5.418   4.511  16.929  0.00  0.00    +0.000 A 
ENDROOT
BRANCH   7   8
ATOM      8  C   UNL     1       4.197   4.208  17.743  0.00  0.00    +0.000 A 
ATOM      9  C   UNL     1       2.901   4.496  17.292  0.00  0.00    +0.000 A 
ATOM     10  C   UNL     1       1.776   4.293  18.089  0.00  0.00    +0.000 A 
ATOM     11  C   UNL     1       1.910   3.687  19.337  0.00  0.00    +0.000 A 
ATOM     12  C   UNL     1       0.791   3.433  20.143  0.00  0.00    +0.000 A 
ATOM     13  C   UNL     1       0.962   2.779  21.354  0.00  0.00    +0.000 A 
ATOM     14  C   UNL     1       2.244   2.412  21.718  0.00  0.00    +0.000 A 
ATOM     15  N   UNL     1       3.345   2.668  20.977  0.00  0.00    +0.000 NA
ATOM     16  C   UNL     1       3.184   3.298  19.803  0.00  0.00    +0.000 A 
ATOM     17  C   UNL     1       4.291   3.593  19.011  0.00  0.00    +0.000 A 
ENDBRANCH   7   8
BRANCH   5  18
ATOM     18  C   UNL     1       6.568   4.071  13.275  0.00  0.00    +0.000 C 
ATOM     19  O   UNL     1       7.111   4.838  12.484  0.00  0.00    +0.000 OA
ATOM     20  N   UNL     1       6.010   2.861  12.899  0.00  0.00    +0.000 N 
ATOM     21  H   UNL     1       5.712   2.205  13.608  0.00  0.00    +0.000 HD
BRANCH  20  22
ATOM     22  C   UNL     1       6.038   2.416  11.537  0.00  0.00    +0.000 C 
ATOM     23  C   UNL     1       7.195   1.621  10.998  0.00  0.00    +0.000 C 
ATOM     24  C   UNL     1       5.868   0.957  11.217  0.00  0.00    +0.000 C 
ENDBRANCH  20  22
ENDBRANCH   5  18
TORSDOF 3
ENDMDL
MODEL 4
REMARK VINA RESULT:      -7.9      3.365      4.797
REMARK  Name = 
REMARK  4 active torsions:
REMARK  status: ('A' for Active; 'I' for Inactive)
REMARK    1  A    between atoms: C_1  and  C_2
REMARK    2  A    between atoms: C_5  and  C_6
REMARK    3  A    between atoms: N_8  and  C_9
REMARK    4  A    between atoms: C_13  and  C_14
REMARK                            x       y       z     vdW  Elec       q    Type
REMARK                         _______ _______ _______ _____ _____    ______ ____
ROOT
ATOM      1  C   UNL     1       1.432   4.084  19.061  0.00  0.00    +0.000 C 
ATOM      2  C   UNL     1       2.680   4.357  18.258  0.00  0.00    +0.000 A 
ATOM      3  C   UNL     1       3.375   3.219  17.802  0.00  0.00    +0.000 A 
ATOM      4  C   UNL     1       4.520   3.335  17.020  0.00  0.00    +0.000 A 
ATOM      5  C   UNL     1       5.003   4.594  16.675  0.00  0.00    +0.000 A 
ATOM      6  C   UNL     1       4.344   5.737  17.153  0.00  0.00    +0.000 A 
ATOM      7  C   UNL     1       3.173   5.659  17.957  0.00  0.00    +0.000 A 
ENDROOT
BRANCH   7   8
ATOM      8  C   UNL     1       2.525   6.927  18.424  0.00  0.00    +0.000 A 
ATOM      9  C   UNL     1       2.171   7.960  17.543  0.00  0.00    +0.000 A 
ATOM     10  C   UNL     1       1.650   9.172  17.993  0.00  0.00    +0.000 A 
ATOM     11  C   UNL     1       1.364   9.344  19.345  0.00  0.00    +0.000 A 
ATOM     12  C   UNL     1       0.801  10.537  19.820  0.00  0.00    +0.000 A 
ATOM     13  C   UNL     1       0.481  10.649  21.165  0.00  0.00    +0.000 A 
ATOM     14  C   UNL     1       0.744   9.568  21.986  0.00  0.00    +0.000 A 
ATOM     15  N   UNL     1       1.311   8.417  21.565  0.00  0.00    +0.000 NA
ATOM     16  C   UNL     1       1.620   8.304  20.263  0.00  0.00    +0.000 A 
ATOM     17  C   UNL     1       2.218   7.140  19.786  0.00  0.00    +0.000 A 
ENDBRANCH   7   8
BRANCH   5  18
ATOM     18  C   UNL     1       6.236   4.654  15.843  0.00  0.00    +0.000 C 
ATOM     19  O   UNL     1       7.306   4.947  16.370  0.00  0.00    +0.000 OA
ATOM     20  N   UNL     1       6.114   4.324  14.504  0.00  0.00    +0.000 N 
ATOM     21  H   UNL     1       5.242   3.947  14.159  0.00  0.00    +0.000 HD
BRANCH  20  22
ATOM     22  C   UNL     1       7.252   4.298  13.633  0.00  0.00    +0.000 C 
ATOM     23  C   UNL     1       7.106   4.018  12.163  0.00  0.00    +0.000 C 
ATOM     24  C   UNL     1       7.460   5.398  12.631  0.00  0.00    +0.000 C 
ENDBRANCH  20  22
ENDBRANCH   5  18
TORSDOF 3
ENDMDL
MODEL 5
REMARK VINA RESULT:      -7.9      3.903      5.622
REMARK  Name = 
REMARK  4 active torsions:
REMARK  status: ('A' for Active; 'I' for Inactive)
REMARK    1  A    between atoms: C_1  and  C_2
REMARK    2  A    between atoms: C_5  and  C_6
REMARK    3  A    between atoms: N_8  and  C_9
REMARK    4  A    between atoms: C_13  and  C_14
REMARK                            x       y       z     vdW  Elec       q    Type
REMARK                         _______ _______ _______ _____ _____    ______ ____
ROOT
ATOM      1  C   UNL     1       1.473   5.111  20.833  0.00  0.00    +0.000 C 
ATOM      2  C   UNL     1       2.596   5.072  19.825  0.00  0.00    +0.000 A 
ATOM      3  C   UNL     1       3.315   3.861  19.759  0.00  0.00    +0.000 A 
ATOM      4  C   UNL     1       4.350   3.683  18.846  0.00  0.00    +0.000 A 
ATOM      5  C   UNL     1       4.697   4.713  17.977  0.00  0.00    +0.000 A 
ATOM      6  C   UNL     1       4.015   5.938  18.057  0.00  0.00    +0.000 A 
ATOM      7  C   UNL     1       2.955   6.159  18.978  0.00  0.00    +0.000 A 
ENDROOT
BRANCH   7   8
ATOM      8  C   UNL     1       2.275   7.494  18.998  0.00  0.00    +0.000 A 
ATOM      9  C   UNL     1       2.138   8.286  17.848  0.00  0.00    +0.000 A 
ATOM     10  C   UNL     1       1.583   9.564  17.890  0.00  0.00    +0.000 A 
ATOM     11  C   UNL     1       1.044  10.048  19.080  0.00  0.00    +0.000 A 
ATOM     12  C   UNL     1       0.443  11.313  19.142  0.00  0.00    +0.000 A 
ATOM     13  C   UNL     1      -0.130  11.735  20.332  0.00  0.00    +0.000 A 
ATOM     14  C   UNL     1      -0.072  10.881  21.418  0.00  0.00    +0.000 A 
ATOM     15  N   UNL     1       0.525   9.669  21.399  0.00  0.00    +0.000 NA
ATOM     16  C   UNL     1       1.078   9.256  20.248  0.00  0.00    +0.000 A 
ATOM     17  C   UNL     1       1.715   8.019  20.184  0.00  0.00    +0.000 A 
ENDBRANCH   7   8
BRANCH   5  18
ATOM     18  C   UNL     1       5.817   4.466  17.028  0.00  0.00    +0.000 C 
ATOM     19  O   UNL     1       6.974   4.492  17.441  0.00  0.00    +0.000 OA
ATOM     20  N   UNL     1       5.485   4.168  15.718  0.00  0.00    +0.000 N 
ATOM     21  H   UNL     1       4.517   4.013  15.470  0.00  0.00    +0.000 HD
BRANCH  20  22
ATOM     22  C   UNL     1       6.489   3.860  14.743  0.00  0.00    +0.000 C 
ATOM     23  C   UNL     1       6.154   3.757  13.281  0.00  0.00    +0.000 C 
ATOM     24  C   UNL     1       6.958   4.918  13.784  0.00  0.00    +0.000 C 
ENDBRANCH  20  22
ENDBRANCH   5  18
TORSDOF 3
ENDMDL
MODEL 6
REMARK VINA RESULT:      -7.7      1.440      1.701
REMARK  Name = 
REMARK  4 active torsions:
REMARK  status: ('A' for Active; 'I' for Inactive)
REMARK    1  A    between atoms: C_1  and  C_2
REMARK    2  A    between atoms: C_5  and  C_6
REMARK    3  A    between atoms: N_8  and  C_9
REMARK    4  A    between atoms: C_13  and  C_14
REMARK                            x       y       z     vdW  Elec       q    Type
REMARK                         _______ _______ _______ _____ _____    ______ ____
ROOT
ATOM      1  C   UNL     1       7.161   6.244  17.833  0.00  0.00    +0.000 C 
ATOM      2  C   UNL     1       6.600   5.539  16.622  0.00  0.00    +0.000 A 
ATOM      3  C   UNL     1       7.414   5.558  15.472  0.00  0.00    +0.000 A 
ATOM      4  C   UNL     1       7.027   4.914  14.300  0.00  0.00    +0.000 A 
ATOM      5  C   UNL     1       5.814   4.234  14.247  0.00  0.00    +0.000 A 
ATOM      6  C   UNL     1       4.975   4.238  15.373  0.00  0.00    +0.000 A 
ATOM      7  C   UNL     1       5.333   4.888  16.586  0.00  0.00    +0.000 A 
ENDROOT
BRANCH   7   8
ATOM      8  C   UNL     1       4.383   4.843  17.744  0.00  0.00    +0.000 A 
ATOM      9  C   UNL     1       3.727   5.986  18.224  0.00  0.00    +0.000 A 
ATOM     10  C   UNL     1       2.912   5.954  19.355  0.00  0.00    +0.000 A 
ATOM     11  C   UNL     1       2.645   4.739  19.982  0.00  0.00    +0.000 A 
ATOM     12  C   UNL     1       1.797   4.670  21.096  0.00  0.00    +0.000 A 
ATOM     13  C   UNL     1       1.513   3.435  21.658  0.00  0.00    +0.000 A 
ATOM     14  C   UNL     1       2.093   2.315  21.091  0.00  0.00    +0.000 A 
ATOM     15  N   UNL     1       2.936   2.351  20.036  0.00  0.00    +0.000 NA
ATOM     16  C   UNL     1       3.211   3.545  19.487  0.00  0.00    +0.000 A 
ATOM     17  C   UNL     1       4.084   3.631  18.405  0.00  0.00    +0.000 A 
ENDBRANCH   7   8
BRANCH   5  18
ATOM     18  C   UNL     1       5.452   3.570  12.965  0.00  0.00    +0.000 C 
ATOM     19  O   UNL     1       4.504   3.998  12.310  0.00  0.00    +0.000 OA
ATOM     20  N   UNL     1       6.248   2.516  12.549  0.00  0.00    +0.000 N 
ATOM     21  H   UNL     1       7.100   2.305  13.051  0.00  0.00    +0.000 HD
BRANCH  20  22
ATOM     22  C   UNL     1       6.015   1.849  11.303  0.00  0.00    +0.000 C 
ATOM     23  C   UNL     1       7.144   1.235  10.522  0.00  0.00    +0.000 C 
ATOM     24  C   UNL     1       6.145   0.354  11.212  0.00  0.00    +0.000 C 
ENDBRANCH  20  22
ENDBRANCH   5  18
TORSDOF 3
ENDMDL
MODEL 7
REMARK VINA RESULT:      -7.7      3.705      5.602
REMARK  Name = 
REMARK  4 active torsions:
REMARK  status: ('A' for Active; 'I' for Inactive)
REMARK    1  A    between atoms: C_1  and  C_2
REMARK    2  A    between atoms: C_5  and  C_6
REMARK    3  A    between atoms: N_8  and  C_9
REMARK    4  A    between atoms: C_13  and  C_14
REMARK                            x       y       z     vdW  Elec       q    Type
REMARK                         _______ _______ _______ _____ _____    ______ ____
ROOT
ATOM      1  C   UNL     1       0.960   4.019  20.368  0.00  0.00    +0.000 C 
ATOM      2  C   UNL     1       2.178   4.210  19.497  0.00  0.00    +0.000 A 
ATOM      3  C   UNL     1       2.804   3.028  19.054  0.00  0.00    +0.000 A 
ATOM      4  C   UNL     1       3.915   3.067  18.217  0.00  0.00    +0.000 A 
ATOM      5  C   UNL     1       4.431   4.291  17.801  0.00  0.00    +0.000 A 
ATOM      6  C   UNL     1       3.841   5.478  18.265  0.00  0.00    +0.000 A 
ATOM      7  C   UNL     1       2.708   5.479  19.124  0.00  0.00    +0.000 A 
ENDROOT
BRANCH   7   8
ATOM      8  C   UNL     1       2.134   6.789  19.572  0.00  0.00    +0.000 A 
ATOM      9  C   UNL     1       1.626   6.985  20.864  0.00  0.00    +0.000 A 
ATOM     10  C   UNL     1       1.015   8.178  21.247  0.00  0.00    +0.000 A 
ATOM     11  C   UNL     1       0.991   9.258  20.368  0.00  0.00    +0.000 A 
ATOM     12  C   UNL     1       0.420  10.483  20.741  0.00  0.00    +0.000 A 
ATOM     13  C   UNL     1       0.465  11.550  19.857  0.00  0.00    +0.000 A 
ATOM     14  C   UNL     1       1.071  11.351  18.630  0.00  0.00    +0.000 A 
ATOM     15  N   UNL     1       1.605  10.177  18.230  0.00  0.00    +0.000 NA
ATOM     16  C   UNL     1       1.566   9.142  19.085  0.00  0.00    +0.000 A 
ATOM     17  C   UNL     1       2.094   7.908  18.711  0.00  0.00    +0.000 A 
ENDBRANCH   7   8
BRANCH   5  18
ATOM     18  C   UNL     1       5.624   4.269  16.911  0.00  0.00    +0.000 C 
ATOM     19  O   UNL     1       6.732   4.515  17.381  0.00  0.00    +0.000 OA
ATOM     20  N   UNL     1       5.421   3.920  15.587  0.00  0.00    +0.000 N 
ATOM     21  H   UNL     1       4.514   3.583  15.291  0.00  0.00    +0.000 HD
BRANCH  20  22
ATOM     22  C   UNL     1       6.513   3.816  14.665  0.00  0.00    +0.000 C 
ATOM     23  C   UNL     1       6.283   3.796  13.179  0.00  0.00    +0.000 C 
ATOM     24  C   UNL     1       6.905   4.999  13.824  0.00  0.00    +0.000 C 
ENDBRANCH  20  22
ENDBRANCH   5  18
TORSDOF 3
ENDMDL
MODEL 8
REMARK VINA RESULT:      -7.6      5.159      8.180
REMARK  Name = 
REMARK  4 active torsions:
REMARK  status: ('A' for Active; 'I' for Inactive)
REMARK    1  A    between atoms: C_1  and  C_2
REMARK    2  A    between atoms: C_5  and  C_6
REMARK    3  A    between atoms: N_8  and  C_9
REMARK    4  A    between atoms: C_13  and  C_14
REMARK                            x       y       z     vdW  Elec       q    Type
REMARK                         _______ _______ _______ _____ _____    ______ ____
ROOT
ATOM      1  C   UNL     1       2.150   5.518  20.918  0.00  0.00    +0.000 C 
ATOM      2  C   UNL     1       1.904   6.839  20.230  0.00  0.00    +0.000 A 
ATOM      3  C   UNL     1       1.149   7.777  20.961  0.00  0.00    +0.000 A 
ATOM      4  C   UNL     1       0.883   9.046  20.454  0.00  0.00    +0.000 A 
ATOM      5  C   UNL     1       1.364   9.409  19.199  0.00  0.00    +0.000 A 
ATOM      6  C   UNL     1       2.085   8.471  18.443  0.00  0.00    +0.000 A 
ATOM      7  C   UNL     1       2.374   7.165  18.926  0.00  0.00    +0.000 A 
ENDROOT
BRANCH   7   8
ATOM      8  C   UNL     1       3.153   6.224  18.058  0.00  0.00    +0.000 A 
ATOM      9  C   UNL     1       2.738   4.907  17.814  0.00  0.00    +0.000 A 
ATOM     10  C   UNL     1       3.511   4.010  17.079  0.00  0.00    +0.000 A 
ATOM     11  C   UNL     1       4.686   4.445  16.469  0.00  0.00    +0.000 A 
ATOM     12  C   UNL     1       5.462   3.576  15.689  0.00  0.00    +0.000 A 
ATOM     13  C   UNL     1       6.595   4.062  15.055  0.00  0.00    +0.000 A 
ATOM     14  C   UNL     1       6.915   5.396  15.230  0.00  0.00    +0.000 A 
ATOM     15  N   UNL     1       6.204   6.251  15.997  0.00  0.00    +0.000 NA
ATOM     16  C   UNL     1       5.105   5.785  16.611  0.00  0.00    +0.000 A 
ATOM     17  C   UNL     1       4.348   6.627  17.421  0.00  0.00    +0.000 A 
ENDBRANCH   7   8
BRANCH   5  18
ATOM     18  C   UNL     1       1.041  10.776  18.708  0.00  0.00    +0.000 C 
ATOM     19  O   UNL     1      -0.129  11.076  18.482  0.00  0.00    +0.000 OA
ATOM     20  N   UNL     1       2.093  11.667  18.574  0.00  0.00    +0.000 N 
ATOM     21  H   UNL     1       3.010  11.412  18.915  0.00  0.00    +0.000 HD
BRANCH  20  22
ATOM     22  C   UNL     1       1.878  13.022  18.161  0.00  0.00    +0.000 C 
ATOM     23  C   UNL     1       1.784  14.139  19.163  0.00  0.00    +0.000 C 
ATOM     24  C   UNL     1       2.987  14.030  18.273  0.00  0.00    +0.000 C 
ENDBRANCH  20  22
ENDBRANCH   5  18
TORSDOF 3
ENDMDL
MODEL 9
REMARK VINA RESULT:      -7.6      2.903      3.808
REMARK  Name = 
REMARK  4 active torsions:
REMARK  status: ('A' for Active; 'I' for Inactive)
REMARK    1  A    between atoms: C_1  and  C_2
REMARK    2  A    between atoms: C_5  and  C_6
REMARK    3  A    between atoms: N_8  and  C_9
REMARK    4  A    between atoms: C_13  and  C_14
REMARK                            x       y       z     vdW  Elec       q    Type
REMARK                         _______ _______ _______ _____ _____    ______ ____
ROOT
ATOM      1  C   UNL     1       6.872   5.547  19.248  0.00  0.00    +0.000 C 
ATOM      2  C   UNL     1       6.443   5.213  17.840  0.00  0.00    +0.000 A 
ATOM      3  C   UNL     1       7.394   4.527  17.057  0.00  0.00    +0.000 A 
ATOM      4  C   UNL     1       7.108   4.130  15.755  0.00  0.00    +0.000 A 
ATOM      5  C   UNL     1       5.864   4.410  15.198  0.00  0.00    +0.000 A 
ATOM      6  C   UNL     1       4.920   5.126  15.952  0.00  0.00    +0.000 A 
ATOM      7  C   UNL     1       5.176   5.552  17.284  0.00  0.00    +0.000 A 
ENDROOT
BRANCH   7   8
ATOM      8  C   UNL     1       4.114   6.308  18.023  0.00  0.00    +0.000 A 
ATOM      9  C   UNL     1       3.590   5.866  19.247  0.00  0.00    +0.000 A 
ATOM     10  C   UNL     1       2.542   6.527  19.887  0.00  0.00    +0.000 A 
ATOM     11  C   UNL     1       2.056   7.723  19.365  0.00  0.00    +0.000 A 
ATOM     12  C   UNL     1       1.030   8.430  20.008  0.00  0.00    +0.000 A 
ATOM     13  C   UNL     1       0.612   9.645  19.486  0.00  0.00    +0.000 A 
ATOM     14  C   UNL     1       1.227  10.103  18.336  0.00  0.00    +0.000 A 
ATOM     15  N   UNL     1       2.197   9.432  17.677  0.00  0.00    +0.000 NA
ATOM     16  C   UNL     1       2.606   8.257  18.181  0.00  0.00    +0.000 A 
ATOM     17  C   UNL     1       3.596   7.525  17.529  0.00  0.00    +0.000 A 
ENDBRANCH   7   8
BRANCH   5  18
ATOM     18  C   UNL     1       5.620   3.966  13.798  0.00  0.00    +0.000 C 
ATOM     19  O   UNL     1       4.515   4.146  13.292  0.00  0.00    +0.000 OA
ATOM     20  N   UNL     1       6.687   3.405  13.116  0.00  0.00    +0.000 N 
ATOM     21  H   UNL     1       7.609   3.419  13.531  0.00  0.00    +0.000 HD
BRANCH  20  22
ATOM     22  C   UNL     1       6.568   2.998  11.747  0.00  0.00    +0.000 C 
ATOM     23  C   UNL     1       7.374   1.853  11.200  0.00  0.00    +0.000 C 
ATOM     24  C   UNL     1       5.896   1.698  11.403  0.00  0.00    +0.000 C 
ENDBRANCH  20  22
ENDBRANCH   5  18
TORSDOF 3
ENDMDL
