MODEL 1
REMARK VINA RESULT:      -8.4      0.000      0.000
REMARK  Name = 
REMARK  2 active torsions:
REMARK  status: ('A' for Active; 'I' for Inactive)
REMARK    1  A    between atoms: C_9  and  C_10
REMARK    2  A    between atoms: N_20  and  C_21
REMARK                            x       y       z     vdW  Elec       q    Type
REMARK                         _______ _______ _______ _____ _____    ______ ____
ROOT
ATOM      1  O   UNL     1       4.047   2.164  17.638  0.00  0.00    +0.000 OA
ATOM      2  C   UNL     1       4.092   3.254  18.212  0.00  0.00    +0.000 C 
ATOM      3  C   UNL     1       3.234   3.409  19.416  0.00  0.00    +0.000 A 
ATOM      4  C   UNL     1       2.893   2.257  20.154  0.00  0.00    +0.000 A 
ATOM      5  C   UNL     1       2.008   2.307  21.232  0.00  0.00    +0.000 A 
ATOM      6  C   UNL     1       1.413   3.515  21.603  0.00  0.00    +0.000 A 
ATOM      7  C   UNL     1       1.739   4.676  20.887  0.00  0.00    +0.000 A 
ATOM      8  N   UNL     1       1.271   5.955  21.053  0.00  0.00    +0.000 NA
ATOM      9  C   UNL     1       1.835   6.688  20.108  0.00  0.00    +0.000 A 
ATOM     10  N   UNL     1       2.741   5.910  19.411  0.00  0.00    +0.000 N 
ATOM     11  C   UNL     1       2.643   4.609  19.834  0.00  0.00    +0.000 A 
ATOM     12  C   UNL     1       3.703   6.372  18.442  0.00  0.00    +0.000 C 
ATOM     13  C   UNL     1       5.007   5.586  18.442  0.00  0.00    +0.000 C 
ATOM     14  N   UNL     1       4.918   4.295  17.754  0.00  0.00    +0.000 N 
ENDROOT
BRANCH  14  15
ATOM     15  C   UNL     1       5.748   4.009  16.552  0.00  0.00    +0.000 C 
ATOM     16  C   UNL     1       7.236   4.471  16.561  0.00  0.00    +0.000 C 
ATOM     17  N   UNL     1       7.566   5.329  15.393  0.00  0.00    +0.000 NA
ATOM     18  C   UNL     1       7.373   4.526  14.164  0.00  0.00    +0.000 C 
ATOM     19  C   UNL     1       5.938   3.974  14.061  0.00  0.00    +0.000 C 
ATOM     20  C   UNL     1       5.095   4.513  15.237  0.00  0.00    +0.000 C 
ATOM     21  C   UNL     1       5.187   6.046  15.145  0.00  0.00    +0.000 C 
ATOM     22  C   UNL     1       6.644   6.482  15.346  0.00  0.00    +0.000 C 
ENDBRANCH  14  15
BRANCH   9  23
ATOM     23  C   UNL     1       1.568   8.119  19.894  0.00  0.00    +0.000 A 
ATOM     24  C   UNL     1       1.110   8.899  20.966  0.00  0.00    +0.000 A 
ATOM     25  C   UNL     1       0.865  10.266  20.806  0.00  0.00    +0.000 A 
ATOM     26  C   UNL     1       1.075  10.874  19.572  0.00  0.00    +0.000 A 
ATOM     27  C   UNL     1       1.505  10.114  18.490  0.00  0.00    +0.000 A 
ATOM     28  C   UNL     1       1.728   8.743  18.645  0.00  0.00    +0.000 A 
ENDBRANCH   9  23
TORSDOF 2
ENDMDL
MODEL 2
REMARK VINA RESULT:      -8.3      1.933      6.774
REMARK  Name = 
REMARK  2 active torsions:
REMARK  status: ('A' for Active; 'I' for Inactive)
REMARK    1  A    between atoms: C_9  and  C_10
REMARK    2  A    between atoms: N_20  and  C_21
REMARK                            x       y       z     vdW  Elec       q    Type
REMARK                         _______ _______ _______ _____ _____    ______ ____
ROOT
ATOM      1  O   UNL     1       1.459   7.115  21.407  0.00  0.00    +0.000 OA
ATOM      2  C   UNL     1       1.719   6.784  20.249  0.00  0.00    +0.000 C 
ATOM      3  C   UNL     1       1.862   5.328  19.987  0.00  0.00    +0.000 A 
ATOM      4  C   UNL     1       1.177   4.423  20.824  0.00  0.00    +0.000 A 
ATOM      5  C   UNL     1       1.345   3.042  20.709  0.00  0.00    +0.000 A 
ATOM      6  C   UNL     1       2.222   2.512  19.760  0.00  0.00    +0.000 A 
ATOM      7  C   UNL     1       2.912   3.392  18.914  0.00  0.00    +0.000 A 
ATOM      8  N   UNL     1       3.829   3.109  17.933  0.00  0.00    +0.000 NA
ATOM      9  C   UNL     1       4.234   4.271  17.449  0.00  0.00    +0.000 A 
ATOM     10  N   UNL     1       3.502   5.286  18.037  0.00  0.00    +0.000 N 
ATOM     11  C   UNL     1       2.711   4.762  19.027  0.00  0.00    +0.000 A 
ATOM     12  C   UNL     1       3.491   6.674  17.646  0.00  0.00    +0.000 C 
ATOM     13  C   UNL     1       2.145   7.359  17.837  0.00  0.00    +0.000 C 
ATOM     14  N   UNL     1       1.867   7.737  19.225  0.00  0.00    +0.000 N 
ENDROOT
BRANCH  14  15
ATOM     15  C   UNL     1       1.676   9.163  19.608  0.00  0.00    +0.000 C 
ATOM     16  C   UNL     1       0.602   9.494  20.689  0.00  0.00    +0.000 C 
ATOM     17  N   UNL     1      -0.387  10.494  20.211  0.00  0.00    +0.000 NA
ATOM     18  C   UNL     1       0.336  11.754  19.922  0.00  0.00    +0.000 C 
ATOM     19  C   UNL     1       1.458  11.545  18.887  0.00  0.00    +0.000 C 
ATOM     20  C   UNL     1       1.428  10.086  18.385  0.00  0.00    +0.000 C 
ATOM     21  C   UNL     1       0.011   9.869  17.826  0.00  0.00    +0.000 C 
ATOM     22  C   UNL     1      -1.012  10.018  18.960  0.00  0.00    +0.000 C 
ENDBRANCH  14  15
BRANCH   9  23
ATOM     23  C   UNL     1       5.260   4.426  16.405  0.00  0.00    +0.000 A 
ATOM     24  C   UNL     1       4.976   4.005  15.098  0.00  0.00    +0.000 A 
ATOM     25  C   UNL     1       5.918   4.154  14.076  0.00  0.00    +0.000 A 
ATOM     26  C   UNL     1       7.156   4.730  14.345  0.00  0.00    +0.000 A 
ATOM     27  C   UNL     1       7.466   5.132  15.640  0.00  0.00    +0.000 A 
ATOM     28  C   UNL     1       6.532   4.961  16.666  0.00  0.00    +0.000 A 
ENDBRANCH   9  23
TORSDOF 2
ENDMDL
MODEL 3
REMARK VINA RESULT:      -7.2      9.129     11.713
REMARK  Name = 
REMARK  2 active torsions:
REMARK  status: ('A' for Active; 'I' for Inactive)
REMARK    1  A    between atoms: C_9  and  C_10
REMARK    2  A    between atoms: N_20  and  C_21
REMARK                            x       y       z     vdW  Elec       q    Type
REMARK                         _______ _______ _______ _____ _____    ______ ____
ROOT
ATOM      1  O   UNL     1       3.971  14.143  22.688  0.00  0.00    +0.000 OA
ATOM      2  C   UNL     1       5.059  14.486  22.222  0.00  0.00    +0.000 C 
ATOM      3  C   UNL     1       5.032  15.198  20.918  0.00  0.00    +0.000 A 
ATOM      4  C   UNL     1       3.876  15.926  20.572  0.00  0.00    +0.000 A 
ATOM      5  C   UNL     1       3.733  16.533  19.322  0.00  0.00    +0.000 A 
ATOM      6  C   UNL     1       4.739  16.416  18.360  0.00  0.00    +0.000 A 
ATOM      7  C   UNL     1       5.900  15.698  18.681  0.00  0.00    +0.000 A 
ATOM      8  N   UNL     1       6.998  15.436  17.902  0.00  0.00    +0.000 NA
ATOM      9  C   UNL     1       7.805  14.683  18.631  0.00  0.00    +0.000 A 
ATOM     10  N   UNL     1       7.281  14.556  19.904  0.00  0.00    +0.000 N 
ATOM     11  C   UNL     1       6.034  15.126  19.941  0.00  0.00    +0.000 A 
ATOM     12  C   UNL     1       7.942  13.990  21.053  0.00  0.00    +0.000 C 
ATOM     13  C   UNL     1       7.565  14.650  22.371  0.00  0.00    +0.000 C 
ATOM     14  N   UNL     1       6.265  14.223  22.895  0.00  0.00    +0.000 N 
ENDROOT
BRANCH  14  15
ATOM     15  C   UNL     1       6.159  13.525  24.206  0.00  0.00    +0.000 C 
ATOM     16  C   UNL     1       7.125  13.961  25.349  0.00  0.00    +0.000 C 
ATOM     17  N   UNL     1       7.901  12.818  25.896  0.00  0.00    +0.000 NA
ATOM     18  C   UNL     1       6.945  11.852  26.485  0.00  0.00    +0.000 C 
ATOM     19  C   UNL     1       5.906  11.374  25.453  0.00  0.00    +0.000 C 
ATOM     20  C   UNL     1       6.237  11.980  24.072  0.00  0.00    +0.000 C 
ATOM     21  C   UNL     1       7.679  11.540  23.762  0.00  0.00    +0.000 C 
ATOM     22  C   UNL     1       8.631  12.144  24.803  0.00  0.00    +0.000 C 
ENDBRANCH  14  15
BRANCH   9  23
ATOM     23  C   UNL     1       9.085  14.132  18.155  0.00  0.00    +0.000 A 
ATOM     24  C   UNL     1      10.153  15.003  17.899  0.00  0.00    +0.000 A 
ATOM     25  C   UNL     1      11.389  14.515  17.465  0.00  0.00    +0.000 A 
ATOM     26  C   UNL     1      11.576  13.148  17.284  0.00  0.00    +0.000 A 
ATOM     27  C   UNL     1      10.521  12.269  17.509  0.00  0.00    +0.000 A 
ATOM     28  C   UNL     1       9.279  12.761  17.921  0.00  0.00    +0.000 A 
ENDBRANCH   9  23
TORSDOF 2
ENDMDL
MODEL 4
REMARK VINA RESULT:      -6.9      8.978      9.633
REMARK  Name = 
REMARK  2 active torsions:
REMARK  status: ('A' for Active; 'I' for Inactive)
REMARK    1  A    between atoms: C_9  and  C_10
REMARK    2  A    between atoms: N_20  and  C_21
REMARK                            x       y       z     vdW  Elec       q    Type
REMARK                         _______ _______ _______ _____ _____    ______ ____
ROOT
ATOM      1  O   UNL     1       9.272  10.959  21.757  0.00  0.00    +0.000 OA
ATOM      2  C   UNL     1       8.816  12.098  21.867  0.00  0.00    +0.000 C 
ATOM      3  C   UNL     1       7.830  12.320  22.957  0.00  0.00    +0.000 A 
ATOM      4  C   UNL     1       7.885  11.488  24.094  0.00  0.00    +0.000 A 
ATOM      5  C   UNL     1       6.930  11.564  25.110  0.00  0.00    +0.000 A 
ATOM      6  C   UNL     1       5.869  12.467  25.017  0.00  0.00    +0.000 A 
ATOM      7  C   UNL     1       5.794  13.308  23.897  0.00  0.00    +0.000 A 
ATOM      8  N   UNL     1       4.845  14.247  23.581  0.00  0.00    +0.000 NA
ATOM      9  C   UNL     1       5.183  14.743  22.403  0.00  0.00    +0.000 A 
ATOM     10  N   UNL     1       6.398  14.207  22.017  0.00  0.00    +0.000 N 
ATOM     11  C   UNL     1       6.770  13.235  22.910  0.00  0.00    +0.000 A 
ATOM     12  C   UNL     1       7.209  14.631  20.903  0.00  0.00    +0.000 C 
ATOM     13  C   UNL     1       8.707  14.506  21.146  0.00  0.00    +0.000 C 
ATOM     14  N   UNL     1       9.214  13.139  21.009  0.00  0.00    +0.000 N 
ENDROOT
BRANCH  14  15
ATOM     15  C   UNL     1      10.227  12.797  19.972  0.00  0.00    +0.000 C 
ATOM     16  C   UNL     1      11.255  13.894  19.562  0.00  0.00    +0.000 C 
ATOM     17  N   UNL     1      11.254  14.146  18.097  0.00  0.00    +0.000 NA
ATOM     18  C   UNL     1      11.664  12.896  17.415  0.00  0.00    +0.000 C 
ATOM     19  C   UNL     1      10.738  11.718  17.777  0.00  0.00    +0.000 C 
ATOM     20  C   UNL     1       9.591  12.224  18.677  0.00  0.00    +0.000 C 
ATOM     21  C   UNL     1       8.900  13.343  17.878  0.00  0.00    +0.000 C 
ATOM     22  C   UNL     1       9.890  14.494  17.652  0.00  0.00    +0.000 C 
ENDBRANCH  14  15
BRANCH   9  23
ATOM     23  C   UNL     1       4.402  15.752  21.669  0.00  0.00    +0.000 A 
ATOM     24  C   UNL     1       3.498  15.333  20.683  0.00  0.00    +0.000 A 
ATOM     25  C   UNL     1       2.723  16.260  19.979  0.00  0.00    +0.000 A 
ATOM     26  C   UNL     1       2.840  17.619  20.252  0.00  0.00    +0.000 A 
ATOM     27  C   UNL     1       3.749  18.057  21.210  0.00  0.00    +0.000 A 
ATOM     28  C   UNL     1       4.539  17.131  21.897  0.00  0.00    +0.000 A 
ENDBRANCH   9  23
TORSDOF 2
ENDMDL
MODEL 5
REMARK VINA RESULT:      -6.9      5.664      9.869
REMARK  Name = 
REMARK  2 active torsions:
REMARK  status: ('A' for Active; 'I' for Inactive)
REMARK    1  A    between atoms: C_9  and  C_10
REMARK    2  A    between atoms: N_20  and  C_21
REMARK                            x       y       z     vdW  Elec       q    Type
REMARK                         _______ _______ _______ _____ _____    ______ ____
ROOT
ATOM      1  O   UNL     1       0.964  15.647  23.001  0.00  0.00    +0.000 OA
ATOM      2  C   UNL     1       0.795  14.868  22.061  0.00  0.00    +0.000 C 
ATOM      3  C   UNL     1      -0.225  13.804  22.251  0.00  0.00    +0.000 A 
ATOM      4  C   UNL     1      -1.288  14.042  23.147  0.00  0.00    +0.000 A 
ATOM      5  C   UNL     1      -2.224  13.054  23.458  0.00  0.00    +0.000 A 
ATOM      6  C   UNL     1      -2.121  11.780  22.897  0.00  0.00    +0.000 A 
ATOM      7  C   UNL     1      -1.074  11.520  22.001  0.00  0.00    +0.000 A 
ATOM      8  N   UNL     1      -0.763  10.353  21.349  0.00  0.00    +0.000 NA
ATOM      9  C   UNL     1       0.337  10.592  20.654  0.00  0.00    +0.000 A 
ATOM     10  N   UNL     1       0.666  11.930  20.771  0.00  0.00    +0.000 N 
ATOM     11  C   UNL     1      -0.169  12.525  21.683  0.00  0.00    +0.000 A 
ATOM     12  C   UNL     1       1.669  12.637  20.016  0.00  0.00    +0.000 C 
ATOM     13  C   UNL     1       1.316  14.089  19.726  0.00  0.00    +0.000 C 
ATOM     14  N   UNL     1       1.526  14.986  20.866  0.00  0.00    +0.000 N 
ENDROOT
BRANCH  14  15
ATOM     15  C   UNL     1       2.502  16.108  20.788  0.00  0.00    +0.000 C 
ATOM     16  C   UNL     1       2.859  16.673  19.380  0.00  0.00    +0.000 C 
ATOM     17  N   UNL     1       4.323  16.658  19.123  0.00  0.00    +0.000 NA
ATOM     18  C   UNL     1       4.973  17.542  20.118  0.00  0.00    +0.000 C 
ATOM     19  C   UNL     1       4.657  17.106  21.562  0.00  0.00    +0.000 C 
ATOM     20  C   UNL     1       3.827  15.805  21.536  0.00  0.00    +0.000 C 
ATOM     21  C   UNL     1       4.671  14.791  20.744  0.00  0.00    +0.000 C 
ATOM     22  C   UNL     1       4.847  15.290  19.303  0.00  0.00    +0.000 C 
ENDBRANCH  14  15
BRANCH   9  23
ATOM     23  C   UNL     1       1.044   9.587  19.843  0.00  0.00    +0.000 A 
ATOM     24  C   UNL     1       1.524   8.423  20.461  0.00  0.00    +0.000 A 
ATOM     25  C   UNL     1       2.182   7.437  19.721  0.00  0.00    +0.000 A 
ATOM     26  C   UNL     1       2.369   7.600  18.351  0.00  0.00    +0.000 A 
ATOM     27  C   UNL     1       1.922   8.758  17.724  0.00  0.00    +0.000 A 
ATOM     28  C   UNL     1       1.284   9.753  18.469  0.00  0.00    +0.000 A 
ENDBRANCH   9  23
TORSDOF 2
ENDMDL
MODEL 6
REMARK VINA RESULT:      -6.9      9.241     12.285
REMARK  Name = 
REMARK  2 active torsions:
REMARK  status: ('A' for Active; 'I' for Inactive)
REMARK    1  A    between atoms: C_9  and  C_10
REMARK    2  A    between atoms: N_20  and  C_21
REMARK                            x       y       z     vdW  Elec       q    Type
REMARK                         _______ _______ _______ _____ _____    ______ ____
ROOT
ATOM      1  O   UNL     1      -4.623  13.786  24.237  0.00  0.00    +0.000 OA
ATOM      2  C   UNL     1      -4.653  13.813  23.005  0.00  0.00    +0.000 C 
ATOM      3  C   UNL     1      -5.721  13.017  22.346  0.00  0.00    +0.000 A 
ATOM      4  C   UNL     1      -6.913  12.768  23.058  0.00  0.00    +0.000 A 
ATOM      5  C   UNL     1      -7.917  11.942  22.549  0.00  0.00    +0.000 A 
ATOM      6  C   UNL     1      -7.757  11.315  21.312  0.00  0.00    +0.000 A 
ATOM      7  C   UNL     1      -6.582  11.549  20.583  0.00  0.00    +0.000 A 
ATOM      8  N   UNL     1      -6.198  11.034  19.371  0.00  0.00    +0.000 NA
ATOM      9  C   UNL     1      -4.991  11.512  19.123  0.00  0.00    +0.000 A 
ATOM     10  N   UNL     1      -4.648  12.412  20.114  0.00  0.00    +0.000 N 
ATOM     11  C   UNL     1      -5.607  12.396  21.095  0.00  0.00    +0.000 A 
ATOM     12  C   UNL     1      -3.511  13.299  20.114  0.00  0.00    +0.000 C 
ATOM     13  C   UNL     1      -3.768  14.635  20.798  0.00  0.00    +0.000 C 
ATOM     14  N   UNL     1      -3.728  14.566  22.261  0.00  0.00    +0.000 N 
ENDROOT
BRANCH  14  15
ATOM     15  C   UNL     1      -2.721  15.341  23.037  0.00  0.00    +0.000 C 
ATOM     16  C   UNL     1      -1.875  16.410  22.279  0.00  0.00    +0.000 C 
ATOM     17  N   UNL     1      -0.414  16.192  22.447  0.00  0.00    +0.000 NA
ATOM     18  C   UNL     1      -0.091  16.329  23.886  0.00  0.00    +0.000 C 
ATOM     19  C   UNL     1      -0.902  15.343  24.750  0.00  0.00    +0.000 C 
ATOM     20  C   UNL     1      -1.747  14.432  23.834  0.00  0.00    +0.000 C 
ATOM     21  C   UNL     1      -0.744  13.756  22.883  0.00  0.00    +0.000 C 
ATOM     22  C   UNL     1      -0.062  14.824  22.017  0.00  0.00    +0.000 C 
ENDBRANCH  14  15
BRANCH   9  23
ATOM     23  C   UNL     1      -4.186  11.169  17.939  0.00  0.00    +0.000 A 
ATOM     24  C   UNL     1      -2.942  10.547  18.114  0.00  0.00    +0.000 A 
ATOM     25  C   UNL     1      -2.158  10.188  17.013  0.00  0.00    +0.000 A 
ATOM     26  C   UNL     1      -2.608  10.444  15.721  0.00  0.00    +0.000 A 
ATOM     27  C   UNL     1      -3.829  11.082  15.527  0.00  0.00    +0.000 A 
ATOM     28  C   UNL     1      -4.601  11.461  16.629  0.00  0.00    +0.000 A 
ENDBRANCH   9  23
TORSDOF 2
ENDMDL
MODEL 7
REMARK VINA RESULT:      -6.9      8.313     10.377
REMARK  Name = 
REMARK  2 active torsions:
REMARK  status: ('A' for Active; 'I' for Inactive)
REMARK    1  A    between atoms: C_9  and  C_10
REMARK    2  A    between atoms: N_20  and  C_21
REMARK                            x       y       z     vdW  Elec       q    Type
REMARK                         _______ _______ _______ _____ _____    ______ ____
ROOT
ATOM      1  O   UNL     1       1.645  15.355  22.733  0.00  0.00    +0.000 OA
ATOM      2  C   UNL     1       0.831  15.150  21.830  0.00  0.00    +0.000 C 
ATOM      3  C   UNL     1      -0.484  14.588  22.232  0.00  0.00    +0.000 A 
ATOM      4  C   UNL     1      -0.954  14.841  23.538  0.00  0.00    +0.000 A 
ATOM      5  C   UNL     1      -2.127  14.261  24.024  0.00  0.00    +0.000 A 
ATOM      6  C   UNL     1      -2.868  13.387  23.225  0.00  0.00    +0.000 A 
ATOM      7  C   UNL     1      -2.423  13.122  21.922  0.00  0.00    +0.000 A 
ATOM      8  N   UNL     1      -2.966  12.293  20.973  0.00  0.00    +0.000 NA
ATOM      9  C   UNL     1      -2.162  12.341  19.925  0.00  0.00    +0.000 A 
ATOM     10  N   UNL     1      -1.171  13.277  20.157  0.00  0.00    +0.000 N 
ATOM     11  C   UNL     1      -1.267  13.731  21.448  0.00  0.00    +0.000 A 
ATOM     12  C   UNL     1      -0.218  13.776  19.197  0.00  0.00    +0.000 C 
ATOM     13  C   UNL     1       0.164  15.234  19.406  0.00  0.00    +0.000 C 
ATOM     14  N   UNL     1       1.131  15.441  20.487  0.00  0.00    +0.000 N 
ENDROOT
BRANCH  14  15
ATOM     15  C   UNL     1       2.473  16.024  20.215  0.00  0.00    +0.000 C 
ATOM     16  C   UNL     1       2.587  17.120  19.112  0.00  0.00    +0.000 C 
ATOM     17  N   UNL     1       3.594  16.773  18.075  0.00  0.00    +0.000 NA
ATOM     18  C   UNL     1       4.918  16.685  18.732  0.00  0.00    +0.000 C 
ATOM     19  C   UNL     1       4.921  15.654  19.877  0.00  0.00    +0.000 C 
ATOM     20  C   UNL     1       3.552  14.944  19.933  0.00  0.00    +0.000 C 
ATOM     21  C   UNL     1       3.346  14.331  18.537  0.00  0.00    +0.000 C 
ATOM     22  C   UNL     1       3.274  15.454  17.493  0.00  0.00    +0.000 C 
ENDBRANCH  14  15
BRANCH   9  23
ATOM     23  C   UNL     1      -2.350  11.556  18.695  0.00  0.00    +0.000 A 
ATOM     24  C   UNL     1      -1.397  10.587  18.348  0.00  0.00    +0.000 A 
ATOM     25  C   UNL     1      -1.552   9.808  17.197  0.00  0.00    +0.000 A 
ATOM     26  C   UNL     1      -2.662   9.985  16.378  0.00  0.00    +0.000 A 
ATOM     27  C   UNL     1      -3.607  10.957  16.691  0.00  0.00    +0.000 A 
ATOM     28  C   UNL     1      -3.439  11.751  17.829  0.00  0.00    +0.000 A 
ENDBRANCH   9  23
TORSDOF 2
ENDMDL
MODEL 8
REMARK VINA RESULT:      -6.9      9.159     11.190
REMARK  Name = 
REMARK  2 active torsions:
REMARK  status: ('A' for Active; 'I' for Inactive)
REMARK    1  A    between atoms: C_9  and  C_10
REMARK    2  A    between atoms: N_20  and  C_21
REMARK                            x       y       z     vdW  Elec       q    Type
REMARK                         _______ _______ _______ _____ _____    ______ ____
ROOT
ATOM      1  O   UNL     1       7.087  14.718  17.393  0.00  0.00    +0.000 OA
ATOM      2  C   UNL     1       7.290  14.813  18.605  0.00  0.00    +0.000 C 
ATOM      3  C   UNL     1       8.507  14.141  19.132  0.00  0.00    +0.000 A 
ATOM      4  C   UNL     1       9.601  13.952  18.263  0.00  0.00    +0.000 A 
ATOM      5  C   UNL     1      10.736  13.237  18.652  0.00  0.00    +0.000 A 
ATOM      6  C   UNL     1      10.811  12.666  19.924  0.00  0.00    +0.000 A 
ATOM      7  C   UNL     1       9.736  12.843  20.807  0.00  0.00    +0.000 A 
ATOM      8  N   UNL     1       9.576  12.364  22.083  0.00  0.00    +0.000 NA
ATOM      9  C   UNL     1       8.379  12.756  22.486  0.00  0.00    +0.000 A 
ATOM     10  N   UNL     1       7.821  13.572  21.519  0.00  0.00    +0.000 N 
ATOM     11  C   UNL     1       8.627  13.581  20.410  0.00  0.00    +0.000 A 
ATOM     12  C   UNL     1       6.623  14.363  21.651  0.00  0.00    +0.000 C 
ATOM     13  C   UNL     1       6.661  15.677  20.883  0.00  0.00    +0.000 C 
ATOM     14  N   UNL     1       6.418  15.527  19.446  0.00  0.00    +0.000 N 
ENDROOT
BRANCH  14  15
ATOM     15  C   UNL     1       5.247  16.177  18.795  0.00  0.00    +0.000 C 
ATOM     16  C   UNL     1       4.394  17.168  19.642  0.00  0.00    +0.000 C 
ATOM     17  N   UNL     1       2.955  16.797  19.661  0.00  0.00    +0.000 NA
ATOM     18  C   UNL     1       2.443  16.867  18.273  0.00  0.00    +0.000 C 
ATOM     19  C   UNL     1       3.240  15.953  17.323  0.00  0.00    +0.000 C 
ATOM     20  C   UNL     1       4.284  15.155  18.134  0.00  0.00    +0.000 C 
ATOM     21  C   UNL     1       3.483  14.399  19.208  0.00  0.00    +0.000 C 
ATOM     22  C   UNL     1       2.804  15.409  20.143  0.00  0.00    +0.000 C 
ENDBRANCH  14  15
BRANCH   9  23
ATOM     23  C   UNL     1       7.785  12.413  23.788  0.00  0.00    +0.000 A 
ATOM     24  C   UNL     1       6.600  11.665  23.824  0.00  0.00    +0.000 A 
ATOM     25  C   UNL     1       6.016  11.303  25.042  0.00  0.00    +0.000 A 
ATOM     26  C   UNL     1       6.611  11.681  26.242  0.00  0.00    +0.000 A 
ATOM     27  C   UNL     1       7.774  12.444  26.227  0.00  0.00    +0.000 A 
ATOM     28  C   UNL     1       8.344  12.825  25.009  0.00  0.00    +0.000 A 
ENDBRANCH   9  23
TORSDOF 2
ENDMDL
MODEL 9
REMARK VINA RESULT:      -6.6      9.232     12.004
REMARK  Name = 
REMARK  2 active torsions:
REMARK  status: ('A' for Active; 'I' for Inactive)
REMARK    1  A    between atoms: C_9  and  C_10
REMARK    2  A    between atoms: N_20  and  C_21
REMARK                            x       y       z     vdW  Elec       q    Type
REMARK                         _______ _______ _______ _____ _____    ______ ____
ROOT
ATOM      1  O   UNL     1       4.003  14.755  23.008  0.00  0.00    +0.000 OA
ATOM      2  C   UNL     1       5.134  14.910  22.544  0.00  0.00    +0.000 C 
ATOM      3  C   UNL     1       5.219  15.412  21.147  0.00  0.00    +0.000 A 
ATOM      4  C   UNL     1       4.157  16.192  20.646  0.00  0.00    +0.000 A 
ATOM      5  C   UNL     1       4.115  16.610  19.314  0.00  0.00    +0.000 A 
ATOM      6  C   UNL     1       5.128  16.246  18.426  0.00  0.00    +0.000 A 
ATOM      7  C   UNL     1       6.197  15.472  18.902  0.00  0.00    +0.000 A 
ATOM      8  N   UNL     1       7.282  14.983  18.219  0.00  0.00    +0.000 NA
ATOM      9  C   UNL     1       7.984  14.274  19.087  0.00  0.00    +0.000 A 
ATOM     10  N   UNL     1       7.414  14.398  20.340  0.00  0.00    +0.000 N 
ATOM     11  C   UNL     1       6.234  15.090  20.237  0.00  0.00    +0.000 A 
ATOM     12  C   UNL     1       7.979  13.951  21.589  0.00  0.00    +0.000 C 
ATOM     13  C   UNL     1       7.638  14.841  22.776  0.00  0.00    +0.000 C 
ATOM     14  N   UNL     1       6.286  14.633  23.301  0.00  0.00    +0.000 N 
ENDROOT
BRANCH  14  15
ATOM     15  C   UNL     1       6.070  14.159  24.695  0.00  0.00    +0.000 C 
ATOM     16  C   UNL     1       7.099  14.589  25.784  0.00  0.00    +0.000 C 
ATOM     17  N   UNL     1       7.676  13.424  26.504  0.00  0.00    +0.000 NA
ATOM     18  C   UNL     1       6.574  12.726  27.206  0.00  0.00    +0.000 C 
ATOM     19  C   UNL     1       5.466  12.284  26.232  0.00  0.00    +0.000 C 
ATOM     20  C   UNL     1       5.888  12.620  24.786  0.00  0.00    +0.000 C 
ATOM     21  C   UNL     1       7.234  11.907  24.571  0.00  0.00    +0.000 C 
ATOM     22  C   UNL     1       8.279  12.487  25.535  0.00  0.00    +0.000 C 
ENDBRANCH  14  15
BRANCH   9  23
ATOM     23  C   UNL     1       9.210  13.529  18.756  0.00  0.00    +0.000 A 
ATOM     24  C   UNL     1       9.102  12.249  18.192  0.00  0.00    +0.000 A 
ATOM     25  C   UNL     1      10.243  11.520  17.845  0.00  0.00    +0.000 A 
ATOM     26  C   UNL     1      11.509  12.060  18.055  0.00  0.00    +0.000 A 
ATOM     27  C   UNL     1      11.637  13.318  18.635  0.00  0.00    +0.000 A 
ATOM     28  C   UNL     1      10.496  14.037  19.002  0.00  0.00    +0.000 A 
ENDBRANCH   9  23
TORSDOF 2
ENDMDL
