MODEL 1
REMARK VINA RESULT:      -7.5      0.000      0.000
REMARK  Name = 
REMARK  9 active torsions:
REMARK  status: ('A' for Active; 'I' for Inactive)
REMARK    1  A    between atoms: C_1  and  O_2
REMARK    2  A    between atoms: O_2  and  C_3
REMARK    3  A    between atoms: C_3  and  C_4
REMARK    4  A    between atoms: C_4  and  N_5
REMARK    5  A    between atoms: C_6  and  S_7
REMARK    6  A    between atoms: S_7  and  C_8
REMARK    7  A    between atoms: C_8  and  C_9
REMARK    8  A    between atoms: C_12  and  C_13
REMARK    9  A    between atoms: N_24  and  C_25
REMARK                            x       y       z     vdW  Elec       q    Type
REMARK                         _______ _______ _______ _____ _____    ______ ____
ROOT
ATOM      1  N   UNL     1       3.777   4.382  18.791  0.00  0.00    +0.000 N 
ATOM      2  C   UNL     1       4.136   4.988  17.599  0.00  0.00    +0.000 A 
ATOM      3  N   UNL     1       3.704   6.231  17.528  0.00  0.00    +0.000 NA
ATOM      4  C   UNL     1       3.012   6.421  18.684  0.00  0.00    +0.000 A 
ATOM      5  C   UNL     1       3.030   5.313  19.485  0.00  0.00    +0.000 A 
ATOM      6  C   UNL     1       2.345   5.276  20.735  0.00  0.00    +0.000 A 
ATOM      7  O   UNL     1       2.289   4.321  21.500  0.00  0.00    +0.000 OA
ATOM      8  N   UNL     1       1.698   6.461  21.026  0.00  0.00    +0.000 N 
ATOM      9  C   UNL     1       1.643   7.597  20.247  0.00  0.00    +0.000 A 
ATOM     10  O   UNL     1       0.998   8.565  20.653  0.00  0.00    +0.000 OA
ATOM     11  N   UNL     1       2.330   7.569  19.039  0.00  0.00    +0.000 N 
ATOM     12  C   UNL     1       2.320   8.724  18.163  0.00  0.00    +0.000 C 
ATOM     13  H   UNL     1       1.189   6.494  21.895  0.00  0.00    +0.000 HD
ENDROOT
BRANCH   1  14
ATOM     14  C   UNL     1       4.008   3.008  19.202  0.00  0.00    +0.000 C 
BRANCH  14  15
ATOM     15  C   UNL     1       3.035   1.968  18.645  0.00  0.00    +0.000 C 
BRANCH  15  17
ATOM     16  C   UNL     1       0.738   2.455  18.703  0.00  0.00    +0.000 C 
ATOM     17  O   UNL     1       1.840   1.909  19.423  0.00  0.00    +0.000 OA
ENDBRANCH  15  17
ENDBRANCH  14  15
ENDBRANCH   1  14
BRANCH   2  18
ATOM     18  S   UNL     1       4.968   4.169  16.308  0.00  0.00    +0.000 S 
BRANCH  18  19
ATOM     19  C   UNL     1       6.658   4.059  16.973  0.00  0.00    +0.000 C 
BRANCH  19  20
ATOM     20  C   UNL     1       7.203   5.403  17.411  0.00  0.00    +0.000 A 
ATOM     21  C   UNL     1       7.140   6.511  16.552  0.00  0.00    +0.000 A 
ATOM     22  C   UNL     1       7.609   7.767  16.957  0.00  0.00    +0.000 A 
ATOM     23  C   UNL     1       8.160   7.946  18.230  0.00  0.00    +0.000 A 
ATOM     24  C   UNL     1       8.662   9.291  18.673  0.00  0.00    +0.000 C 
ATOM     25  C   UNL     1       8.236   6.844  19.089  0.00  0.00    +0.000 A 
ATOM     26  C   UNL     1       7.767   5.586  18.683  0.00  0.00    +0.000 A 
ENDBRANCH  19  20
ENDBRANCH  18  19
ENDBRANCH   2  18
TORSDOF 6
ENDMDL
MODEL 2
REMARK VINA RESULT:      -7.3      3.314      6.529
REMARK  Name = 
REMARK  9 active torsions:
REMARK  status: ('A' for Active; 'I' for Inactive)
REMARK    1  A    between atoms: C_1  and  O_2
REMARK    2  A    between atoms: O_2  and  C_3
REMARK    3  A    between atoms: C_3  and  C_4
REMARK    4  A    between atoms: C_4  and  N_5
REMARK    5  A    between atoms: C_6  and  S_7
REMARK    6  A    between atoms: S_7  and  C_8
REMARK    7  A    between atoms: C_8  and  C_9
REMARK    8  A    between atoms: C_12  and  C_13
REMARK    9  A    between atoms: N_24  and  C_25
REMARK                            x       y       z     vdW  Elec       q    Type
REMARK                         _______ _______ _______ _____ _____    ______ ____
ROOT
ATOM      1  N   UNL     1       2.779   4.759  20.393  0.00  0.00    +0.000 N 
ATOM      2  C   UNL     1       2.339   6.031  20.069  0.00  0.00    +0.000 A 
ATOM      3  N   UNL     1       3.040   6.559  19.085  0.00  0.00    +0.000 NA
ATOM      4  C   UNL     1       3.983   5.622  18.793  0.00  0.00    +0.000 A 
ATOM      5  C   UNL     1       3.860   4.506  19.572  0.00  0.00    +0.000 A 
ATOM      6  C   UNL     1       4.760   3.406  19.459  0.00  0.00    +0.000 A 
ATOM      7  O   UNL     1       4.737   2.381  20.131  0.00  0.00    +0.000 OA
ATOM      8  N   UNL     1       5.725   3.600  18.490  0.00  0.00    +0.000 N 
ATOM      9  C   UNL     1       5.895   4.711  17.690  0.00  0.00    +0.000 A 
ATOM     10  O   UNL     1       6.828   4.727  16.888  0.00  0.00    +0.000 OA
ATOM     11  N   UNL     1       4.985   5.750  17.851  0.00  0.00    +0.000 N 
ATOM     12  C   UNL     1       5.097   6.952  17.048  0.00  0.00    +0.000 C 
ATOM     13  H   UNL     1       6.396   2.859  18.368  0.00  0.00    +0.000 HD
ENDROOT
BRANCH   1  14
ATOM     14  C   UNL     1       2.307   3.894  21.461  0.00  0.00    +0.000 C 
BRANCH  14  15
ATOM     15  C   UNL     1       1.400   2.739  21.039  0.00  0.00    +0.000 C 
BRANCH  15  17
ATOM     16  C   UNL     1       0.924   2.256  18.790  0.00  0.00    +0.000 C 
ATOM     17  O   UNL     1       0.611   3.090  19.902  0.00  0.00    +0.000 OA
ENDBRANCH  15  17
ENDBRANCH  14  15
ENDBRANCH   1  14
BRANCH   2  18
ATOM     18  S   UNL     1       1.081   6.870  20.929  0.00  0.00    +0.000 S 
BRANCH  18  19
ATOM     19  C   UNL     1       1.389   8.595  20.436  0.00  0.00    +0.000 C 
BRANCH  19  20
ATOM     20  C   UNL     1       0.463   9.575  21.128  0.00  0.00    +0.000 A 
ATOM     21  C   UNL     1       0.028   9.338  22.441  0.00  0.00    +0.000 A 
ATOM     22  C   UNL     1      -0.800  10.253  23.104  0.00  0.00    +0.000 A 
ATOM     23  C   UNL     1      -1.219  11.426  22.469  0.00  0.00    +0.000 A 
ATOM     24  C   UNL     1      -2.103  12.414  23.174  0.00  0.00    +0.000 C 
ATOM     25  C   UNL     1      -0.798  11.665  21.156  0.00  0.00    +0.000 A 
ATOM     26  C   UNL     1       0.031  10.748  20.492  0.00  0.00    +0.000 A 
ENDBRANCH  19  20
ENDBRANCH  18  19
ENDBRANCH   2  18
TORSDOF 6
ENDMDL
MODEL 3
REMARK VINA RESULT:      -7.2      3.013      6.415
REMARK  Name = 
REMARK  9 active torsions:
REMARK  status: ('A' for Active; 'I' for Inactive)
REMARK    1  A    between atoms: C_1  and  O_2
REMARK    2  A    between atoms: O_2  and  C_3
REMARK    3  A    between atoms: C_3  and  C_4
REMARK    4  A    between atoms: C_4  and  N_5
REMARK    5  A    between atoms: C_6  and  S_7
REMARK    6  A    between atoms: S_7  and  C_8
REMARK    7  A    between atoms: C_8  and  C_9
REMARK    8  A    between atoms: C_12  and  C_13
REMARK    9  A    between atoms: N_24  and  C_25
REMARK                            x       y       z     vdW  Elec       q    Type
REMARK                         _______ _______ _______ _____ _____    ______ ____
ROOT
ATOM      1  N   UNL     1       2.868   5.614  18.033  0.00  0.00    +0.000 N 
ATOM      2  C   UNL     1       3.030   6.988  18.040  0.00  0.00    +0.000 A 
ATOM      3  N   UNL     1       4.264   7.340  17.735  0.00  0.00    +0.000 NA
ATOM      4  C   UNL     1       4.925   6.163  17.568  0.00  0.00    +0.000 A 
ATOM      5  C   UNL     1       4.108   5.082  17.743  0.00  0.00    +0.000 A 
ATOM      6  C   UNL     1       4.595   3.746  17.643  0.00  0.00    +0.000 A 
ATOM      7  O   UNL     1       3.940   2.723  17.809  0.00  0.00    +0.000 OA
ATOM      8  N   UNL     1       5.942   3.687  17.345  0.00  0.00    +0.000 N 
ATOM      9  C   UNL     1       6.807   4.747  17.171  0.00  0.00    +0.000 A 
ATOM     10  O   UNL     1       7.992   4.514  16.930  0.00  0.00    +0.000 OA
ATOM     11  N   UNL     1       6.271   6.026  17.284  0.00  0.00    +0.000 N 
ATOM     12  C   UNL     1       7.115   7.192  17.115  0.00  0.00    +0.000 C 
ATOM     13  H   UNL     1       6.347   2.768  17.269  0.00  0.00    +0.000 HD
ENDROOT
BRANCH   1  14
ATOM     14  C   UNL     1       1.682   4.851  18.384  0.00  0.00    +0.000 C 
BRANCH  14  15
ATOM     15  C   UNL     1       1.548   4.457  19.854  0.00  0.00    +0.000 C 
BRANCH  15  17
ATOM     16  C   UNL     1       0.731   2.573  18.715  0.00  0.00    +0.000 C 
ATOM     17  O   UNL     1       1.021   3.137  19.990  0.00  0.00    +0.000 OA
ENDBRANCH  15  17
ENDBRANCH  14  15
ENDBRANCH   1  14
BRANCH   2  18
ATOM     18  S   UNL     1       1.782   8.110  18.500  0.00  0.00    +0.000 S 
BRANCH  18  19
ATOM     19  C   UNL     1       1.837   7.995  20.315  0.00  0.00    +0.000 C 
BRANCH  19  20
ATOM     20  C   UNL     1       0.902   8.977  20.993  0.00  0.00    +0.000 A 
ATOM     21  C   UNL     1       0.664   8.896  22.373  0.00  0.00    +0.000 A 
ATOM     22  C   UNL     1      -0.171   9.819  23.017  0.00  0.00    +0.000 A 
ATOM     23  C   UNL     1      -0.795  10.841  22.295  0.00  0.00    +0.000 A 
ATOM     24  C   UNL     1      -1.688  11.837  22.978  0.00  0.00    +0.000 C 
ATOM     25  C   UNL     1      -0.571  10.922  20.916  0.00  0.00    +0.000 A 
ATOM     26  C   UNL     1       0.265   9.998  20.271  0.00  0.00    +0.000 A 
ENDBRANCH  19  20
ENDBRANCH  18  19
ENDBRANCH   2  18
TORSDOF 6
ENDMDL
MODEL 4
REMARK VINA RESULT:      -7.0      3.227      6.538
REMARK  Name = 
REMARK  9 active torsions:
REMARK  status: ('A' for Active; 'I' for Inactive)
REMARK    1  A    between atoms: C_1  and  O_2
REMARK    2  A    between atoms: O_2  and  C_3
REMARK    3  A    between atoms: C_3  and  C_4
REMARK    4  A    between atoms: C_4  and  N_5
REMARK    5  A    between atoms: C_6  and  S_7
REMARK    6  A    between atoms: S_7  and  C_8
REMARK    7  A    between atoms: C_8  and  C_9
REMARK    8  A    between atoms: C_12  and  C_13
REMARK    9  A    between atoms: N_24  and  C_25
REMARK                            x       y       z     vdW  Elec       q    Type
REMARK                         _______ _______ _______ _____ _____    ______ ____
ROOT
ATOM      1  N   UNL     1       2.832   5.451  19.313  0.00  0.00    +0.000 N 
ATOM      2  C   UNL     1       2.738   6.756  18.861  0.00  0.00    +0.000 A 
ATOM      3  N   UNL     1       3.435   6.946  17.758  0.00  0.00    +0.000 NA
ATOM      4  C   UNL     1       4.029   5.746  17.516  0.00  0.00    +0.000 A 
ATOM      5  C   UNL     1       3.687   4.804  18.445  0.00  0.00    +0.000 A 
ATOM      6  C   UNL     1       4.214   3.480  18.403  0.00  0.00    +0.000 A 
ATOM      7  O   UNL     1       3.982   2.584  19.207  0.00  0.00    +0.000 OA
ATOM      8  N   UNL     1       5.070   3.277  17.339  0.00  0.00    +0.000 N 
ATOM      9  C   UNL     1       5.452   4.197  16.385  0.00  0.00    +0.000 A 
ATOM     10  O   UNL     1       6.247   3.851  15.511  0.00  0.00    +0.000 OA
ATOM     11  N   UNL     1       4.904   5.471  16.482  0.00  0.00    +0.000 N 
ATOM     12  C   UNL     1       5.256   6.495  15.518  0.00  0.00    +0.000 C 
ATOM     13  H   UNL     1       5.482   2.360  17.260  0.00  0.00    +0.000 HD
ENDROOT
BRANCH   1  14
ATOM     14  C   UNL     1       2.266   4.882  20.524  0.00  0.00    +0.000 C 
BRANCH  14  15
ATOM     15  C   UNL     1       0.913   4.188  20.372  0.00  0.00    +0.000 C 
BRANCH  15  17
ATOM     16  C   UNL     1       1.754   2.568  21.849  0.00  0.00    +0.000 C 
ATOM     17  O   UNL     1       1.012   2.792  20.654  0.00  0.00    +0.000 OA
ENDBRANCH  15  17
ENDBRANCH  14  15
ENDBRANCH   1  14
BRANCH   2  18
ATOM     18  S   UNL     1       1.887   8.017  19.705  0.00  0.00    +0.000 S 
BRANCH  18  19
ATOM     19  C   UNL     1       1.616   9.230  18.376  0.00  0.00    +0.000 C 
BRANCH  19  20
ATOM     20  C   UNL     1       0.297   9.964  18.513  0.00  0.00    +0.000 A 
ATOM     21  C   UNL     1      -0.745   9.732  17.602  0.00  0.00    +0.000 A 
ATOM     22  C   UNL     1      -1.980  10.378  17.738  0.00  0.00    +0.000 A 
ATOM     23  C   UNL     1      -2.202  11.279  18.785  0.00  0.00    +0.000 A 
ATOM     24  C   UNL     1      -3.525  11.973  18.940  0.00  0.00    +0.000 C 
ATOM     25  C   UNL     1      -1.165  11.524  19.692  0.00  0.00    +0.000 A 
ATOM     26  C   UNL     1       0.073  10.876  19.555  0.00  0.00    +0.000 A 
ENDBRANCH  19  20
ENDBRANCH  18  19
ENDBRANCH   2  18
TORSDOF 6
ENDMDL
MODEL 5
REMARK VINA RESULT:      -7.0      3.218      6.548
REMARK  Name = 
REMARK  9 active torsions:
REMARK  status: ('A' for Active; 'I' for Inactive)
REMARK    1  A    between atoms: C_1  and  O_2
REMARK    2  A    between atoms: O_2  and  C_3
REMARK    3  A    between atoms: C_3  and  C_4
REMARK    4  A    between atoms: C_4  and  N_5
REMARK    5  A    between atoms: C_6  and  S_7
REMARK    6  A    between atoms: S_7  and  C_8
REMARK    7  A    between atoms: C_8  and  C_9
REMARK    8  A    between atoms: C_12  and  C_13
REMARK    9  A    between atoms: N_24  and  C_25
REMARK                            x       y       z     vdW  Elec       q    Type
REMARK                         _______ _______ _______ _____ _____    ______ ____
ROOT
ATOM      1  N   UNL     1       2.857   5.338  19.270  0.00  0.00    +0.000 N 
ATOM      2  C   UNL     1       2.805   6.662  18.868  0.00  0.00    +0.000 A 
ATOM      3  N   UNL     1       3.498   6.869  17.766  0.00  0.00    +0.000 NA
ATOM      4  C   UNL     1       4.046   5.659  17.472  0.00  0.00    +0.000 A 
ATOM      5  C   UNL     1       3.680   4.694  18.369  0.00  0.00    +0.000 A 
ATOM      6  C   UNL     1       4.160   3.355  18.272  0.00  0.00    +0.000 A 
ATOM      7  O   UNL     1       3.904   2.438  19.044  0.00  0.00    +0.000 OA
ATOM      8  N   UNL     1       4.997   3.162  17.191  0.00  0.00    +0.000 N 
ATOM      9  C   UNL     1       5.402   4.104  16.268  0.00  0.00    +0.000 A 
ATOM     10  O   UNL     1       6.175   3.764  15.372  0.00  0.00    +0.000 OA
ATOM     11  N   UNL     1       4.901   5.392  16.418  0.00  0.00    +0.000 N 
ATOM     12  C   UNL     1       5.279   6.439  15.490  0.00  0.00    +0.000 C 
ATOM     13  H   UNL     1       5.375   2.236  17.074  0.00  0.00    +0.000 HD
ENDROOT
BRANCH   1  14
ATOM     14  C   UNL     1       2.283   4.744  20.466  0.00  0.00    +0.000 C 
BRANCH  14  15
ATOM     15  C   UNL     1       0.954   4.013  20.280  0.00  0.00    +0.000 C 
BRANCH  15  17
ATOM     16  C   UNL     1       2.071   2.652  21.835  0.00  0.00    +0.000 C 
ATOM     17  O   UNL     1       0.959   2.752  20.949  0.00  0.00    +0.000 OA
ENDBRANCH  15  17
ENDBRANCH  14  15
ENDBRANCH   1  14
BRANCH   2  18
ATOM     18  S   UNL     1       2.008   7.919  19.768  0.00  0.00    +0.000 S 
BRANCH  18  19
ATOM     19  C   UNL     1       1.524   9.068  18.443  0.00  0.00    +0.000 C 
BRANCH  19  20
ATOM     20  C   UNL     1       0.345   9.940  18.826  0.00  0.00    +0.000 A 
ATOM     21  C   UNL     1       0.314  10.587  20.070  0.00  0.00    +0.000 A 
ATOM     22  C   UNL     1      -0.754  11.423  20.423  0.00  0.00    +0.000 A 
ATOM     23  C   UNL     1      -1.820  11.629  19.541  0.00  0.00    +0.000 A 
ATOM     24  C   UNL     1      -2.966  12.527  19.910  0.00  0.00    +0.000 C 
ATOM     25  C   UNL     1      -1.801  10.979  18.302  0.00  0.00    +0.000 A 
ATOM     26  C   UNL     1      -0.732  10.141  17.949  0.00  0.00    +0.000 A 
ENDBRANCH  19  20
ENDBRANCH  18  19
ENDBRANCH   2  18
TORSDOF 6
ENDMDL
MODEL 6
REMARK VINA RESULT:      -6.9      3.257      6.462
REMARK  Name = 
REMARK  9 active torsions:
REMARK  status: ('A' for Active; 'I' for Inactive)
REMARK    1  A    between atoms: C_1  and  O_2
REMARK    2  A    between atoms: O_2  and  C_3
REMARK    3  A    between atoms: C_3  and  C_4
REMARK    4  A    between atoms: C_4  and  N_5
REMARK    5  A    between atoms: C_6  and  S_7
REMARK    6  A    between atoms: S_7  and  C_8
REMARK    7  A    between atoms: C_8  and  C_9
REMARK    8  A    between atoms: C_12  and  C_13
REMARK    9  A    between atoms: N_24  and  C_25
REMARK                            x       y       z     vdW  Elec       q    Type
REMARK                         _______ _______ _______ _____ _____    ______ ____
ROOT
ATOM      1  N   UNL     1       3.038   5.242  19.967  0.00  0.00    +0.000 N 
ATOM      2  C   UNL     1       2.781   6.537  19.553  0.00  0.00    +0.000 A 
ATOM      3  N   UNL     1       3.632   6.937  18.629  0.00  0.00    +0.000 NA
ATOM      4  C   UNL     1       4.486   5.889  18.472  0.00  0.00    +0.000 A 
ATOM      5  C   UNL     1       4.158   4.831  19.274  0.00  0.00    +0.000 A 
ATOM      6  C   UNL     1       4.933   3.635  19.295  0.00  0.00    +0.000 A 
ATOM      7  O   UNL     1       4.726   2.652  19.999  0.00  0.00    +0.000 OA
ATOM      8  N   UNL     1       6.005   3.674  18.426  0.00  0.00    +0.000 N 
ATOM      9  C   UNL     1       6.380   4.719  17.608  0.00  0.00    +0.000 A 
ATOM     10  O   UNL     1       7.385   4.594  16.907  0.00  0.00    +0.000 OA
ATOM     11  N   UNL     1       5.585   5.860  17.634  0.00  0.00    +0.000 N 
ATOM     12  C   UNL     1       5.913   7.001  16.804  0.00  0.00    +0.000 C 
ATOM     13  H   UNL     1       6.596   2.858  18.402  0.00  0.00    +0.000 HD
ENDROOT
BRANCH   1  14
ATOM     14  C   UNL     1       2.366   4.487  21.011  0.00  0.00    +0.000 C 
BRANCH  14  15
ATOM     15  C   UNL     1       1.101   3.738  20.592  0.00  0.00    +0.000 C 
BRANCH  15  17
ATOM     16  C   UNL     1       1.098   2.344  18.702  0.00  0.00    +0.000 C 
ATOM     17  O   UNL     1       1.412   2.439  20.089  0.00  0.00    +0.000 OA
ENDBRANCH  15  17
ENDBRANCH  14  15
ENDBRANCH   1  14
BRANCH   2  18
ATOM     18  S   UNL     1       1.549   7.552  20.246  0.00  0.00    +0.000 S 
BRANCH  18  19
ATOM     19  C   UNL     1       1.500   8.931  19.060  0.00  0.00    +0.000 C 
BRANCH  19  20
ATOM     20  C   UNL     1       0.364   9.897  19.332  0.00  0.00    +0.000 A 
ATOM     21  C   UNL     1       0.177  10.433  20.616  0.00  0.00    +0.000 A 
ATOM     22  C   UNL     1      -0.848  11.352  20.872  0.00  0.00    +0.000 A 
ATOM     23  C   UNL     1      -1.716  11.755  19.853  0.00  0.00    +0.000 A 
ATOM     24  C   UNL     1      -2.815  12.743  20.118  0.00  0.00    +0.000 C 
ATOM     25  C   UNL     1      -1.543  11.217  18.572  0.00  0.00    +0.000 A 
ATOM     26  C   UNL     1      -0.516  10.296  18.316  0.00  0.00    +0.000 A 
ENDBRANCH  19  20
ENDBRANCH  18  19
ENDBRANCH   2  18
TORSDOF 6
ENDMDL
MODEL 7
REMARK VINA RESULT:      -6.9      3.406      6.835
REMARK  Name = 
REMARK  9 active torsions:
REMARK  status: ('A' for Active; 'I' for Inactive)
REMARK    1  A    between atoms: C_1  and  O_2
REMARK    2  A    between atoms: O_2  and  C_3
REMARK    3  A    between atoms: C_3  and  C_4
REMARK    4  A    between atoms: C_4  and  N_5
REMARK    5  A    between atoms: C_6  and  S_7
REMARK    6  A    between atoms: S_7  and  C_8
REMARK    7  A    between atoms: C_8  and  C_9
REMARK    8  A    between atoms: C_12  and  C_13
REMARK    9  A    between atoms: N_24  and  C_25
REMARK                            x       y       z     vdW  Elec       q    Type
REMARK                         _______ _______ _______ _____ _____    ______ ____
ROOT
ATOM      1  N   UNL     1       4.265   6.432  18.106  0.00  0.00    +0.000 N 
ATOM      2  C   UNL     1       3.021   6.939  18.443  0.00  0.00    +0.000 A 
ATOM      3  N   UNL     1       2.385   6.159  19.294  0.00  0.00    +0.000 NA
ATOM      4  C   UNL     1       3.219   5.100  19.479  0.00  0.00    +0.000 A 
ATOM      5  C   UNL     1       4.380   5.226  18.768  0.00  0.00    +0.000 A 
ATOM      6  C   UNL     1       5.390   4.220  18.790  0.00  0.00    +0.000 A 
ATOM      7  O   UNL     1       6.445   4.241  18.167  0.00  0.00    +0.000 OA
ATOM      8  N   UNL     1       5.062   3.150  19.599  0.00  0.00    +0.000 N 
ATOM      9  C   UNL     1       3.903   2.973  20.324  0.00  0.00    +0.000 A 
ATOM     10  O   UNL     1       3.763   1.941  20.980  0.00  0.00    +0.000 OA
ATOM     11  N   UNL     1       2.956   3.990  20.260  0.00  0.00    +0.000 N 
ATOM     12  C   UNL     1       1.710   3.879  20.992  0.00  0.00    +0.000 C 
ATOM     13  H   UNL     1       5.735   2.401  19.649  0.00  0.00    +0.000 HD
ENDROOT
BRANCH   1  14
ATOM     14  C   UNL     1       5.220   6.967  17.151  0.00  0.00    +0.000 C 
BRANCH  14  15
ATOM     15  C   UNL     1       5.137   6.407  15.732  0.00  0.00    +0.000 C 
BRANCH  15  17
ATOM     16  C   UNL     1       6.269   4.653  14.655  0.00  0.00    +0.000 C 
ATOM     17  O   UNL     1       6.405   5.921  15.292  0.00  0.00    +0.000 OA
ENDBRANCH  15  17
ENDBRANCH  14  15
ENDBRANCH   1  14
BRANCH   2  18
ATOM     18  S   UNL     1       2.340   8.380  17.745  0.00  0.00    +0.000 S 
BRANCH  18  19
ATOM     19  C   UNL     1       1.595   9.175  19.203  0.00  0.00    +0.000 C 
BRANCH  19  20
ATOM     20  C   UNL     1       0.263   9.831  18.895  0.00  0.00    +0.000 A 
ATOM     21  C   UNL     1      -0.416   9.536  17.703  0.00  0.00    +0.000 A 
ATOM     22  C   UNL     1      -1.663  10.109  17.422  0.00  0.00    +0.000 A 
ATOM     23  C   UNL     1      -2.259  10.997  18.323  0.00  0.00    +0.000 A 
ATOM     24  C   UNL     1      -3.598  11.612  18.031  0.00  0.00    +0.000 C 
ATOM     25  C   UNL     1      -1.583  11.304  19.509  0.00  0.00    +0.000 A 
ATOM     26  C   UNL     1      -0.334  10.730  19.790  0.00  0.00    +0.000 A 
ENDBRANCH  19  20
ENDBRANCH  18  19
ENDBRANCH   2  18
TORSDOF 6
ENDMDL
MODEL 8
REMARK VINA RESULT:      -6.9      3.139      6.368
REMARK  Name = 
REMARK  9 active torsions:
REMARK  status: ('A' for Active; 'I' for Inactive)
REMARK    1  A    between atoms: C_1  and  O_2
REMARK    2  A    between atoms: O_2  and  C_3
REMARK    3  A    between atoms: C_3  and  C_4
REMARK    4  A    between atoms: C_4  and  N_5
REMARK    5  A    between atoms: C_6  and  S_7
REMARK    6  A    between atoms: S_7  and  C_8
REMARK    7  A    between atoms: C_8  and  C_9
REMARK    8  A    between atoms: C_12  and  C_13
REMARK    9  A    between atoms: N_24  and  C_25
REMARK                            x       y       z     vdW  Elec       q    Type
REMARK                         _______ _______ _______ _____ _____    ______ ____
ROOT
ATOM      1  N   UNL     1       2.986   5.680  18.339  0.00  0.00    +0.000 N 
ATOM      2  C   UNL     1       3.129   7.007  17.970  0.00  0.00    +0.000 A 
ATOM      3  N   UNL     1       4.380   7.306  17.680  0.00  0.00    +0.000 NA
ATOM      4  C   UNL     1       5.070   6.155  17.909  0.00  0.00    +0.000 A 
ATOM      5  C   UNL     1       4.254   5.136  18.316  0.00  0.00    +0.000 A 
ATOM      6  C   UNL     1       4.766   3.846  18.639  0.00  0.00    +0.000 A 
ATOM      7  O   UNL     1       4.113   2.887  19.034  0.00  0.00    +0.000 OA
ATOM      8  N   UNL     1       6.136   3.758  18.482  0.00  0.00    +0.000 N 
ATOM      9  C   UNL     1       6.998   4.758  18.086  0.00  0.00    +0.000 A 
ATOM     10  O   UNL     1       8.203   4.512  18.019  0.00  0.00    +0.000 OA
ATOM     11  N   UNL     1       6.437   5.995  17.787  0.00  0.00    +0.000 N 
ATOM     12  C   UNL     1       7.277   7.098  17.364  0.00  0.00    +0.000 C 
ATOM     13  H   UNL     1       6.558   2.870  18.703  0.00  0.00    +0.000 HD
ENDROOT
BRANCH   1  14
ATOM     14  C   UNL     1       1.784   5.003  18.794  0.00  0.00    +0.000 C 
BRANCH  14  15
ATOM     15  C   UNL     1       1.584   4.932  20.307  0.00  0.00    +0.000 C 
BRANCH  15  17
ATOM     16  C   UNL     1       1.792   2.990  21.610  0.00  0.00    +0.000 C 
ATOM     17  O   UNL     1       0.969   3.702  20.691  0.00  0.00    +0.000 OA
ENDBRANCH  15  17
ENDBRANCH  14  15
ENDBRANCH   1  14
BRANCH   2  18
ATOM     18  S   UNL     1       1.830   8.164  17.988  0.00  0.00    +0.000 S 
BRANCH  18  19
ATOM     19  C   UNL     1       1.716   8.559  19.761  0.00  0.00    +0.000 C 
BRANCH  19  20
ATOM     20  C   UNL     1       0.710   9.654  20.054  0.00  0.00    +0.000 A 
ATOM     21  C   UNL     1      -0.150  10.118  19.046  0.00  0.00    +0.000 A 
ATOM     22  C   UNL     1      -1.107  11.105  19.312  0.00  0.00    +0.000 A 
ATOM     23  C   UNL     1      -1.226  11.658  20.591  0.00  0.00    +0.000 A 
ATOM     24  C   UNL     1      -2.252  12.714  20.885  0.00  0.00    +0.000 C 
ATOM     25  C   UNL     1      -0.365  11.208  21.599  0.00  0.00    +0.000 A 
ATOM     26  C   UNL     1       0.594  10.219  21.332  0.00  0.00    +0.000 A 
ENDBRANCH  19  20
ENDBRANCH  18  19
ENDBRANCH   2  18
TORSDOF 6
ENDMDL
MODEL 9
REMARK VINA RESULT:      -6.8      3.260      6.547
REMARK  Name = 
REMARK  9 active torsions:
REMARK  status: ('A' for Active; 'I' for Inactive)
REMARK    1  A    between atoms: C_1  and  O_2
REMARK    2  A    between atoms: O_2  and  C_3
REMARK    3  A    between atoms: C_3  and  C_4
REMARK    4  A    between atoms: C_4  and  N_5
REMARK    5  A    between atoms: C_6  and  S_7
REMARK    6  A    between atoms: S_7  and  C_8
REMARK    7  A    between atoms: C_8  and  C_9
REMARK    8  A    between atoms: C_12  and  C_13
REMARK    9  A    between atoms: N_24  and  C_25
REMARK                            x       y       z     vdW  Elec       q    Type
REMARK                         _______ _______ _______ _____ _____    ______ ____
ROOT
ATOM      1  N   UNL     1       2.919   5.396  18.125  0.00  0.00    +0.000 N 
ATOM      2  C   UNL     1       3.147   6.724  18.444  0.00  0.00    +0.000 A 
ATOM      3  N   UNL     1       4.364   7.108  18.113  0.00  0.00    +0.000 NA
ATOM      4  C   UNL     1       4.951   5.990  17.606  0.00  0.00    +0.000 A 
ATOM      5  C   UNL     1       4.102   4.919  17.597  0.00  0.00    +0.000 A 
ATOM      6  C   UNL     1       4.514   3.636  17.133  0.00  0.00    +0.000 A 
ATOM      7  O   UNL     1       3.828   2.620  17.113  0.00  0.00    +0.000 OA
ATOM      8  N   UNL     1       5.825   3.617  16.700  0.00  0.00    +0.000 N 
ATOM      9  C   UNL     1       6.720   4.666  16.700  0.00  0.00    +0.000 A 
ATOM     10  O   UNL     1       7.866   4.469  16.295  0.00  0.00    +0.000 OA
ATOM     11  N   UNL     1       6.258   5.892  17.166  0.00  0.00    +0.000 N 
ATOM     12  C   UNL     1       7.138   7.043  17.199  0.00  0.00    +0.000 C 
ATOM     13  H   UNL     1       6.177   2.734  16.367  0.00  0.00    +0.000 HD
ENDROOT
BRANCH   1  14
ATOM     14  C   UNL     1       1.734   4.601  18.398  0.00  0.00    +0.000 C 
BRANCH  14  15
ATOM     15  C   UNL     1       1.554   4.139  19.844  0.00  0.00    +0.000 C 
BRANCH  15  17
ATOM     16  C   UNL     1       2.379   2.761  21.557  0.00  0.00    +0.000 C 
ATOM     17  O   UNL     1       2.510   3.136  20.189  0.00  0.00    +0.000 OA
ENDBRANCH  15  17
ENDBRANCH  14  15
ENDBRANCH   1  14
BRANCH   2  18
ATOM     18  S   UNL     1       2.000   7.732  19.278  0.00  0.00    +0.000 S 
BRANCH  18  19
ATOM     19  C   UNL     1       1.617   8.978  18.009  0.00  0.00    +0.000 C 
BRANCH  19  20
ATOM     20  C   UNL     1       0.459   9.874  18.399  0.00  0.00    +0.000 A 
ATOM     21  C   UNL     1      -0.751   9.823  17.691  0.00  0.00    +0.000 A 
ATOM     22  C   UNL     1      -1.840  10.622  18.063  0.00  0.00    +0.000 A 
ATOM     23  C   UNL     1      -1.744  11.497  19.150  0.00  0.00    +0.000 A 
ATOM     24  C   UNL     1      -2.909  12.353  19.558  0.00  0.00    +0.000 C 
ATOM     25  C   UNL     1      -0.537  11.561  19.855  0.00  0.00    +0.000 A 
ATOM     26  C   UNL     1       0.554  10.762  19.482  0.00  0.00    +0.000 A 
ENDBRANCH  19  20
ENDBRANCH  18  19
ENDBRANCH   2  18
TORSDOF 6
ENDMDL
