MODEL 1
REMARK VINA RESULT:      -7.5      0.000      0.000
REMARK  Name = 
REMARK  2 active torsions:
REMARK  status: ('A' for Active; 'I' for Inactive)
REMARK    1  A    between atoms: N_6  and  C_7
REMARK    2  A    between atoms: C_7  and  C_8
REMARK                            x       y       z     vdW  Elec       q    Type
REMARK                         _______ _______ _______ _____ _____    ______ ____
ROOT
ATOM      1  O   UNL     1       2.936   6.430  18.417  0.00  0.00    +0.000 OA
ATOM      2  C   UNL     1       3.367   5.574  17.663  0.00  0.00    +0.000 A 
ATOM      3  C   UNL     1       4.723   5.555  17.119  0.00  0.00    +0.000 A 
ATOM      4  C   UNL     1       4.815   4.359  16.538  0.00  0.00    +0.000 A 
ATOM      5  O   UNL     1       3.665   3.583  16.579  0.00  0.00    +0.000 OA
ATOM      6  N   UNL     1       2.721   4.464  17.168  0.00  0.00    +0.000 N 
ATOM      7  C   UNL     1       5.976   3.847  15.748  0.00  0.00    +0.000 C 
ATOM      8  C   UNL     1       6.666   4.963  14.946  0.00  0.00    +0.000 C 
ATOM      9  N   UNL     1       7.556   5.866  15.683  0.00  0.00    +0.000 NA
ATOM     10  C   UNL     1       7.167   6.194  17.056  0.00  0.00    +0.000 C 
ATOM     11  C   UNL     1       5.715   6.646  17.272  0.00  0.00    +0.000 C 
ATOM     12  H   UNL     1       7.671   6.725  15.143  0.00  0.00    +0.000 HD
ENDROOT
BRANCH   6  13
ATOM     13  C   UNL     1       1.591   3.821  17.805  0.00  0.00    +0.000 C 
BRANCH  13  14
ATOM     14  C   UNL     1       1.925   3.371  19.206  0.00  0.00    +0.000 A 
ATOM     15  C   UNL     1       3.147   2.746  19.491  0.00  0.00    +0.000 A 
ATOM     16  C   UNL     1       3.446   2.335  20.792  0.00  0.00    +0.000 A 
ATOM     17  C   UNL     1       2.524   2.536  21.819  0.00  0.00    +0.000 A 
ATOM     18  C   UNL     1       1.299   3.140  21.545  0.00  0.00    +0.000 A 
ATOM     19  C   UNL     1       0.997   3.550  20.245  0.00  0.00    +0.000 A 
ENDBRANCH  13  14
ENDBRANCH   6  13
TORSDOF 2
ENDMDL
MODEL 2
REMARK VINA RESULT:      -7.3      0.847      1.388
REMARK  Name = 
REMARK  2 active torsions:
REMARK  status: ('A' for Active; 'I' for Inactive)
REMARK    1  A    between atoms: N_6  and  C_7
REMARK    2  A    between atoms: C_7  and  C_8
REMARK                            x       y       z     vdW  Elec       q    Type
REMARK                         _______ _______ _______ _____ _____    ______ ____
ROOT
ATOM      1  O   UNL     1       2.385   5.650  17.867  0.00  0.00    +0.000 OA
ATOM      2  C   UNL     1       3.279   4.946  17.429  0.00  0.00    +0.000 A 
ATOM      3  C   UNL     1       4.653   5.393  17.207  0.00  0.00    +0.000 A 
ATOM      4  C   UNL     1       5.313   4.267  16.935  0.00  0.00    +0.000 A 
ATOM      5  O   UNL     1       4.541   3.114  16.895  0.00  0.00    +0.000 OA
ATOM      6  N   UNL     1       3.225   3.621  17.061  0.00  0.00    +0.000 N 
ATOM      7  C   UNL     1       6.751   4.158  16.544  0.00  0.00    +0.000 C 
ATOM      8  C   UNL     1       7.208   5.350  15.684  0.00  0.00    +0.000 C 
ATOM      9  N   UNL     1       7.485   6.611  16.380  0.00  0.00    +0.000 NA
ATOM     10  C   UNL     1       6.636   6.924  17.532  0.00  0.00    +0.000 C 
ATOM     11  C   UNL     1       5.119   6.795  17.328  0.00  0.00    +0.000 C 
ATOM     12  H   UNL     1       7.442   7.374  15.704  0.00  0.00    +0.000 HD
ENDROOT
BRANCH   6  13
ATOM     13  C   UNL     1       2.256   2.669  17.565  0.00  0.00    +0.000 C 
BRANCH  13  14
ATOM     14  C   UNL     1       2.197   2.683  19.073  0.00  0.00    +0.000 A 
ATOM     15  C   UNL     1       1.004   2.984  19.745  0.00  0.00    +0.000 A 
ATOM     16  C   UNL     1       0.961   2.992  21.141  0.00  0.00    +0.000 A 
ATOM     17  C   UNL     1       2.111   2.709  21.879  0.00  0.00    +0.000 A 
ATOM     18  C   UNL     1       3.306   2.426  21.222  0.00  0.00    +0.000 A 
ATOM     19  C   UNL     1       3.352   2.419  19.827  0.00  0.00    +0.000 A 
ENDBRANCH  13  14
ENDBRANCH   6  13
TORSDOF 2
ENDMDL
MODEL 3
REMARK VINA RESULT:      -7.2      2.526      3.885
REMARK  Name = 
REMARK  2 active torsions:
REMARK  status: ('A' for Active; 'I' for Inactive)
REMARK    1  A    between atoms: N_6  and  C_7
REMARK    2  A    between atoms: C_7  and  C_8
REMARK                            x       y       z     vdW  Elec       q    Type
REMARK                         _______ _______ _______ _____ _____    ______ ____
ROOT
ATOM      1  O   UNL     1       2.550   3.806  17.533  0.00  0.00    +0.000 OA
ATOM      2  C   UNL     1       3.489   4.316  18.120  0.00  0.00    +0.000 A 
ATOM      3  C   UNL     1       4.827   4.485  17.555  0.00  0.00    +0.000 A 
ATOM      4  C   UNL     1       5.450   5.261  18.442  0.00  0.00    +0.000 A 
ATOM      5  O   UNL     1       4.712   5.598  19.567  0.00  0.00    +0.000 OA
ATOM      6  N   UNL     1       3.523   4.842  19.391  0.00  0.00    +0.000 N 
ATOM      7  C   UNL     1       6.885   5.678  18.396  0.00  0.00    +0.000 C 
ATOM      8  C   UNL     1       7.789   4.577  17.816  0.00  0.00    +0.000 C 
ATOM      9  N   UNL     1       7.785   4.406  16.359  0.00  0.00    +0.000 NA
ATOM     10  C   UNL     1       6.509   4.632  15.676  0.00  0.00    +0.000 C 
ATOM     11  C   UNL     1       5.278   3.923  16.259  0.00  0.00    +0.000 C 
ATOM     12  H   UNL     1       8.133   3.472  16.138  0.00  0.00    +0.000 HD
ENDROOT
BRANCH   6  13
ATOM     13  C   UNL     1       2.364   5.341  20.103  0.00  0.00    +0.000 C 
BRANCH  13  14
ATOM     14  C   UNL     1       2.025   6.752  19.692  0.00  0.00    +0.000 A 
ATOM     15  C   UNL     1       2.222   7.188  18.374  0.00  0.00    +0.000 A 
ATOM     16  C   UNL     1       1.902   8.496  18.005  0.00  0.00    +0.000 A 
ATOM     17  C   UNL     1       1.392   9.385  18.950  0.00  0.00    +0.000 A 
ATOM     18  C   UNL     1       1.208   8.970  20.267  0.00  0.00    +0.000 A 
ATOM     19  C   UNL     1       1.528   7.663  20.638  0.00  0.00    +0.000 A 
ENDBRANCH  13  14
ENDBRANCH   6  13
TORSDOF 2
ENDMDL
MODEL 4
REMARK VINA RESULT:      -7.2      1.998      6.179
REMARK  Name = 
REMARK  2 active torsions:
REMARK  status: ('A' for Active; 'I' for Inactive)
REMARK    1  A    between atoms: N_6  and  C_7
REMARK    2  A    between atoms: C_7  and  C_8
REMARK                            x       y       z     vdW  Elec       q    Type
REMARK                         _______ _______ _______ _____ _____    ______ ____
ROOT
ATOM      1  O   UNL     1       4.058   4.236  16.377  0.00  0.00    +0.000 OA
ATOM      2  C   UNL     1       4.111   4.069  17.584  0.00  0.00    +0.000 A 
ATOM      3  C   UNL     1       3.012   3.552  18.398  0.00  0.00    +0.000 A 
ATOM      4  C   UNL     1       3.573   3.339  19.588  0.00  0.00    +0.000 A 
ATOM      5  O   UNL     1       4.910   3.697  19.694  0.00  0.00    +0.000 OA
ATOM      6  N   UNL     1       5.165   4.304  18.437  0.00  0.00    +0.000 N 
ATOM      7  C   UNL     1       2.870   2.886  20.828  0.00  0.00    +0.000 C 
ATOM      8  C   UNL     1       1.444   3.456  20.924  0.00  0.00    +0.000 C 
ATOM      9  N   UNL     1       0.412   2.821  20.098  0.00  0.00    +0.000 NA
ATOM     10  C   UNL     1       0.833   2.333  18.783  0.00  0.00    +0.000 C 
ATOM     11  C   UNL     1       1.634   3.310  17.908  0.00  0.00    +0.000 C 
ATOM     12  H   UNL     1      -0.367   3.472  19.991  0.00  0.00    +0.000 HD
ENDROOT
BRANCH   6  13
ATOM     13  C   UNL     1       6.556   4.327  18.034  0.00  0.00    +0.000 C 
BRANCH  13  14
ATOM     14  C   UNL     1       7.109   5.731  18.029  0.00  0.00    +0.000 A 
ATOM     15  C   UNL     1       6.760   6.641  17.021  0.00  0.00    +0.000 A 
ATOM     16  C   UNL     1       7.278   7.938  17.028  0.00  0.00    +0.000 A 
ATOM     17  C   UNL     1       8.155   8.336  18.037  0.00  0.00    +0.000 A 
ATOM     18  C   UNL     1       8.522   7.436  19.034  0.00  0.00    +0.000 A 
ATOM     19  C   UNL     1       8.008   6.138  19.028  0.00  0.00    +0.000 A 
ENDBRANCH  13  14
ENDBRANCH   6  13
TORSDOF 2
ENDMDL
MODEL 5
REMARK VINA RESULT:      -7.2      2.067      6.425
REMARK  Name = 
REMARK  2 active torsions:
REMARK  status: ('A' for Active; 'I' for Inactive)
REMARK    1  A    between atoms: N_6  and  C_7
REMARK    2  A    between atoms: C_7  and  C_8
REMARK                            x       y       z     vdW  Elec       q    Type
REMARK                         _______ _______ _______ _____ _____    ______ ____
ROOT
ATOM      1  O   UNL     1       6.620   4.173  18.484  0.00  0.00    +0.000 OA
ATOM      2  C   UNL     1       5.518   4.160  17.962  0.00  0.00    +0.000 A 
ATOM      3  C   UNL     1       4.297   3.693  18.615  0.00  0.00    +0.000 A 
ATOM      4  C   UNL     1       3.329   4.056  17.772  0.00  0.00    +0.000 A 
ATOM      5  O   UNL     1       3.751   4.668  16.601  0.00  0.00    +0.000 OA
ATOM      6  N   UNL     1       5.164   4.570  16.697  0.00  0.00    +0.000 N 
ATOM      7  C   UNL     1       1.873   3.746  17.913  0.00  0.00    +0.000 C 
ATOM      8  C   UNL     1       1.636   2.365  18.550  0.00  0.00    +0.000 C 
ATOM      9  N   UNL     1       1.806   2.259  20.003  0.00  0.00    +0.000 NA
ATOM     10  C   UNL     1       2.860   3.082  20.601  0.00  0.00    +0.000 C 
ATOM     11  C   UNL     1       4.243   3.022  19.935  0.00  0.00    +0.000 C 
ATOM     12  H   UNL     1       1.955   1.278  20.244  0.00  0.00    +0.000 HD
ENDROOT
BRANCH   6  13
ATOM     13  C   UNL     1       5.904   5.536  15.911  0.00  0.00    +0.000 C 
BRANCH  13  14
ATOM     14  C   UNL     1       6.289   4.977  14.563  0.00  0.00    +0.000 A 
ATOM     15  C   UNL     1       5.527   3.968  13.956  0.00  0.00    +0.000 A 
ATOM     16  C   UNL     1       5.892   3.460  12.707  0.00  0.00    +0.000 A 
ATOM     17  C   UNL     1       7.026   3.948  12.057  0.00  0.00    +0.000 A 
ATOM     18  C   UNL     1       7.800   4.938  12.658  0.00  0.00    +0.000 A 
ATOM     19  C   UNL     1       7.438   5.446  13.907  0.00  0.00    +0.000 A 
ENDBRANCH  13  14
ENDBRANCH   6  13
TORSDOF 2
ENDMDL
MODEL 6
REMARK VINA RESULT:      -7.2      2.070      6.379
REMARK  Name = 
REMARK  2 active torsions:
REMARK  status: ('A' for Active; 'I' for Inactive)
REMARK    1  A    between atoms: N_6  and  C_7
REMARK    2  A    between atoms: C_7  and  C_8
REMARK                            x       y       z     vdW  Elec       q    Type
REMARK                         _______ _______ _______ _____ _____    ______ ____
ROOT
ATOM      1  O   UNL     1       6.628   4.112  18.484  0.00  0.00    +0.000 OA
ATOM      2  C   UNL     1       5.530   4.118  17.955  0.00  0.00    +0.000 A 
ATOM      3  C   UNL     1       4.298   3.662  18.596  0.00  0.00    +0.000 A 
ATOM      4  C   UNL     1       3.340   4.043  17.751  0.00  0.00    +0.000 A 
ATOM      5  O   UNL     1       3.778   4.659  16.587  0.00  0.00    +0.000 OA
ATOM      6  N   UNL     1       5.189   4.542  16.691  0.00  0.00    +0.000 N 
ATOM      7  C   UNL     1       1.880   3.751  17.880  0.00  0.00    +0.000 C 
ATOM      8  C   UNL     1       1.620   2.369  18.505  0.00  0.00    +0.000 C 
ATOM      9  N   UNL     1       1.780   2.250  19.958  0.00  0.00    +0.000 NA
ATOM     10  C   UNL     1       2.841   3.054  20.569  0.00  0.00    +0.000 C 
ATOM     11  C   UNL     1       4.227   2.982  19.912  0.00  0.00    +0.000 C 
ATOM     12  H   UNL     1       1.915   1.266  20.192  0.00  0.00    +0.000 HD
ENDROOT
BRANCH   6  13
ATOM     13  C   UNL     1       5.947   5.504  15.917  0.00  0.00    +0.000 C 
BRANCH  13  14
ATOM     14  C   UNL     1       6.322   4.954  14.563  0.00  0.00    +0.000 A 
ATOM     15  C   UNL     1       7.455   5.423  13.882  0.00  0.00    +0.000 A 
ATOM     16  C   UNL     1       7.793   4.905  12.630  0.00  0.00    +0.000 A 
ATOM     17  C   UNL     1       6.998   3.921  12.041  0.00  0.00    +0.000 A 
ATOM     18  C   UNL     1       5.861   3.460  12.700  0.00  0.00    +0.000 A 
ATOM     19  C   UNL     1       5.520   3.977  13.951  0.00  0.00    +0.000 A 
ENDBRANCH  13  14
ENDBRANCH   6  13
TORSDOF 2
ENDMDL
MODEL 7
REMARK VINA RESULT:      -7.1      1.764      5.837
REMARK  Name = 
REMARK  2 active torsions:
REMARK  status: ('A' for Active; 'I' for Inactive)
REMARK    1  A    between atoms: N_6  and  C_7
REMARK    2  A    between atoms: C_7  and  C_8
REMARK                            x       y       z     vdW  Elec       q    Type
REMARK                         _______ _______ _______ _____ _____    ______ ____
ROOT
ATOM      1  O   UNL     1       4.458   2.519  17.073  0.00  0.00    +0.000 OA
ATOM      2  C   UNL     1       3.949   3.507  17.574  0.00  0.00    +0.000 A 
ATOM      3  C   UNL     1       3.130   3.494  18.784  0.00  0.00    +0.000 A 
ATOM      4  C   UNL     1       2.973   4.786  19.075  0.00  0.00    +0.000 A 
ATOM      5  O   UNL     1       3.545   5.676  18.177  0.00  0.00    +0.000 OA
ATOM      6  N   UNL     1       4.020   4.816  17.153  0.00  0.00    +0.000 N 
ATOM      7  C   UNL     1       2.140   5.348  20.182  0.00  0.00    +0.000 C 
ATOM      8  C   UNL     1       0.871   4.513  20.431  0.00  0.00    +0.000 C 
ATOM      9  N   UNL     1       1.030   3.260  21.176  0.00  0.00    +0.000 NA
ATOM     10  C   UNL     1       2.268   2.513  20.947  0.00  0.00    +0.000 C 
ATOM     11  C   UNL     1       2.668   2.272  19.484  0.00  0.00    +0.000 C 
ATOM     12  H   UNL     1       0.225   2.661  20.983  0.00  0.00    +0.000 HD
ENDROOT
BRANCH   6  13
ATOM     13  C   UNL     1       5.088   5.358  16.338  0.00  0.00    +0.000 C 
BRANCH  13  14
ATOM     14  C   UNL     1       6.199   5.927  17.186  0.00  0.00    +0.000 A 
ATOM     15  C   UNL     1       6.809   5.158  18.187  0.00  0.00    +0.000 A 
ATOM     16  C   UNL     1       7.838   5.696  18.964  0.00  0.00    +0.000 A 
ATOM     17  C   UNL     1       8.260   7.009  18.755  0.00  0.00    +0.000 A 
ATOM     18  C   UNL     1       7.650   7.788  17.775  0.00  0.00    +0.000 A 
ATOM     19  C   UNL     1       6.621   7.253  16.998  0.00  0.00    +0.000 A 
ENDBRANCH  13  14
ENDBRANCH   6  13
TORSDOF 2
ENDMDL
MODEL 8
REMARK VINA RESULT:      -7.1      2.437      3.891
REMARK  Name = 
REMARK  2 active torsions:
REMARK  status: ('A' for Active; 'I' for Inactive)
REMARK    1  A    between atoms: N_6  and  C_7
REMARK    2  A    between atoms: C_7  and  C_8
REMARK                            x       y       z     vdW  Elec       q    Type
REMARK                         _______ _______ _______ _____ _____    ______ ____
ROOT
ATOM      1  O   UNL     1       2.663   3.518  17.383  0.00  0.00    +0.000 OA
ATOM      2  C   UNL     1       3.554   4.079  17.997  0.00  0.00    +0.000 A 
ATOM      3  C   UNL     1       4.902   4.306  17.479  0.00  0.00    +0.000 A 
ATOM      4  C   UNL     1       5.454   5.121  18.378  0.00  0.00    +0.000 A 
ATOM      5  O   UNL     1       4.659   5.435  19.471  0.00  0.00    +0.000 OA
ATOM      6  N   UNL     1       3.515   4.621  19.261  0.00  0.00    +0.000 N 
ATOM      7  C   UNL     1       6.868   5.607  18.380  0.00  0.00    +0.000 C 
ATOM      8  C   UNL     1       7.845   4.544  17.848  0.00  0.00    +0.000 C 
ATOM      9  N   UNL     1       7.904   4.356  16.394  0.00  0.00    +0.000 NA
ATOM     10  C   UNL     1       6.645   4.512  15.662  0.00  0.00    +0.000 C 
ATOM     11  C   UNL     1       5.429   3.751  16.209  0.00  0.00    +0.000 C 
ATOM     12  H   UNL     1       8.304   3.438  16.199  0.00  0.00    +0.000 HD
ENDROOT
BRANCH   6  13
ATOM     13  C   UNL     1       2.308   5.071  19.923  0.00  0.00    +0.000 C 
BRANCH  13  14
ATOM     14  C   UNL     1       2.022   6.523  19.630  0.00  0.00    +0.000 A 
ATOM     15  C   UNL     1       1.561   7.385  20.634  0.00  0.00    +0.000 A 
ATOM     16  C   UNL     1       1.301   8.728  20.350  0.00  0.00    +0.000 A 
ATOM     17  C   UNL     1       1.492   9.220  19.059  0.00  0.00    +0.000 A 
ATOM     18  C   UNL     1       1.934   8.369  18.049  0.00  0.00    +0.000 A 
ATOM     19  C   UNL     1       2.192   7.027  18.330  0.00  0.00    +0.000 A 
ENDBRANCH  13  14
ENDBRANCH   6  13
TORSDOF 2
ENDMDL
MODEL 9
REMARK VINA RESULT:      -7.0      3.201      5.952
REMARK  Name = 
REMARK  2 active torsions:
REMARK  status: ('A' for Active; 'I' for Inactive)
REMARK    1  A    between atoms: N_6  and  C_7
REMARK    2  A    between atoms: C_7  and  C_8
REMARK                            x       y       z     vdW  Elec       q    Type
REMARK                         _______ _______ _______ _____ _____    ______ ____
ROOT
ATOM      1  O   UNL     1       2.941   5.260  20.112  0.00  0.00    +0.000 OA
ATOM      2  C   UNL     1       2.784   6.137  19.279  0.00  0.00    +0.000 A 
ATOM      3  C   UNL     1       2.134   7.420  19.540  0.00  0.00    +0.000 A 
ATOM      4  C   UNL     1       2.373   8.126  18.435  0.00  0.00    +0.000 A 
ATOM      5  O   UNL     1       3.064   7.458  17.434  0.00  0.00    +0.000 OA
ATOM      6  N   UNL     1       3.166   6.143  17.957  0.00  0.00    +0.000 N 
ATOM      7  C   UNL     1       1.856   9.496  18.133  0.00  0.00    +0.000 C 
ATOM      8  C   UNL     1       0.443   9.718  18.699  0.00  0.00    +0.000 C 
ATOM      9  N   UNL     1       0.332   9.986  20.137  0.00  0.00    +0.000 NA
ATOM     10  C   UNL     1       1.283   9.291  21.008  0.00  0.00    +0.000 C 
ATOM     11  C   UNL     1       1.434   7.778  20.797  0.00  0.00    +0.000 C 
ATOM     12  H   UNL     1      -0.623   9.779  20.435  0.00  0.00    +0.000 HD
ENDROOT
BRANCH   6  13
ATOM     13  C   UNL     1       4.243   5.343  17.412  0.00  0.00    +0.000 C 
BRANCH  13  14
ATOM     14  C   UNL     1       5.593   5.875  17.827  0.00  0.00    +0.000 A 
ATOM     15  C   UNL     1       6.189   6.944  17.143  0.00  0.00    +0.000 A 
ATOM     16  C   UNL     1       7.439   7.429  17.537  0.00  0.00    +0.000 A 
ATOM     17  C   UNL     1       8.109   6.844  18.612  0.00  0.00    +0.000 A 
ATOM     18  C   UNL     1       7.535   5.769  19.288  0.00  0.00    +0.000 A 
ATOM     19  C   UNL     1       6.287   5.283  18.895  0.00  0.00    +0.000 A 
ENDBRANCH  13  14
ENDBRANCH   6  13
TORSDOF 2
ENDMDL
