MODEL 1
REMARK VINA RESULT:      -7.2      0.000      0.000
REMARK  Name = 
REMARK  8 active torsions:
REMARK  status: ('A' for Active; 'I' for Inactive)
REMARK    1  A    between atoms: C_2  and  C_4
REMARK    2  A    between atoms: N_7  and  C_8
REMARK    3  A    between atoms: C_8  and  C_9
REMARK    4  A    between atoms: C_9  and  C_10
REMARK    5  A    between atoms: C_10  and  C_11
REMARK    6  A    between atoms: C_11  and  N_12
REMARK    7  A    between atoms: C_15  and  C_16
REMARK    8  A    between atoms: N_17  and  O_18
REMARK                            x       y       z     vdW  Elec       q    Type
REMARK                         _______ _______ _______ _____ _____    ______ ____
ROOT
ATOM      1  C   UNL     1       1.365   3.956  19.827  0.00  0.00    +0.000 C 
ENDROOT
BRANCH   1   2
ATOM      2  C   UNL     1       2.060   4.980  20.740  0.00  0.00    +0.000 C 
BRANCH   2   6
ATOM      3  C   UNL     1       1.866   8.744  18.829  0.00  0.00    +0.000 A 
ATOM      4  C   UNL     1       2.518   7.681  18.208  0.00  0.00    +0.000 A 
ATOM      5  C   UNL     1       2.612   6.470  18.876  0.00  0.00    +0.000 A 
ATOM      6  N   UNL     1       2.064   6.310  20.104  0.00  0.00    +0.000 N 
ATOM      7  C   UNL     1       1.521   7.361  20.751  0.00  0.00    +0.000 A 
ATOM      8  C   UNL     1       1.395   8.581  20.141  0.00  0.00    +0.000 A 
BRANCH   3  10
ATOM      9  N   UNL     1       0.188  10.325  18.062  0.00  0.00    +0.000 N 
ATOM     10  C   UNL     1       1.495   9.980  18.105  0.00  0.00    +0.000 C 
ATOM     11  O   UNL     1       2.388  10.709  17.681  0.00  0.00    +0.000 OA
ATOM     12  H   UNL     1      -0.091  11.193  17.609  0.00  0.00    +0.000 HD
ATOM     13  H   UNL     1      -0.629   9.755  18.252  0.00  0.00    +0.000 HD
ENDBRANCH   3  10
ENDBRANCH   2   6
ENDBRANCH   1   2
BRANCH   1  14
ATOM     14  C   UNL     1       2.197   2.688  19.568  0.00  0.00    +0.000 C 
BRANCH  14  15
ATOM     15  C   UNL     1       3.660   2.825  20.002  0.00  0.00    +0.000 C 
BRANCH  15  16
ATOM     16  N   UNL     1       4.445   3.476  18.928  0.00  0.00    +0.000 N 
ATOM     17  C   UNL     1       4.091   3.308  17.635  0.00  0.00    +0.000 A 
ATOM     18  C   UNL     1       4.806   3.921  16.623  0.00  0.00    +0.000 A 
ATOM     19  C   UNL     1       5.901   4.728  16.938  0.00  0.00    +0.000 A 
ATOM     20  C   UNL     1       6.243   4.918  18.272  0.00  0.00    +0.000 A 
ATOM     21 CL   UNL     1       7.549   5.912  18.793  0.00  0.00    +0.000 Cl
ATOM     22  C   UNL     1       5.493   4.279  19.255  0.00  0.00    +0.000 A 
BRANCH  19  23
ATOM     23  C   UNL     1       6.677   5.336  15.836  0.00  0.00    +0.000 C 
ATOM     24  N   UNL     1       7.042   4.630  14.815  0.00  0.00    +0.000 NA
BRANCH  24  25
ATOM     25  O   UNL     1       7.771   5.450  13.948  0.00  0.00    +0.000 OA
ATOM     26  H   UNL     1       7.083   6.011  13.539  0.00  0.00    +0.000 HD
ENDBRANCH  24  25
ENDBRANCH  19  23
ENDBRANCH  15  16
ENDBRANCH  14  15
ENDBRANCH   1  14
TORSDOF 8
ENDMDL
MODEL 2
REMARK VINA RESULT:      -6.7      2.447      6.856
REMARK  Name = 
REMARK  8 active torsions:
REMARK  status: ('A' for Active; 'I' for Inactive)
REMARK    1  A    between atoms: C_2  and  C_4
REMARK    2  A    between atoms: N_7  and  C_8
REMARK    3  A    between atoms: C_8  and  C_9
REMARK    4  A    between atoms: C_9  and  C_10
REMARK    5  A    between atoms: C_10  and  C_11
REMARK    6  A    between atoms: C_11  and  N_12
REMARK    7  A    between atoms: C_15  and  C_16
REMARK    8  A    between atoms: N_17  and  O_18
REMARK                            x       y       z     vdW  Elec       q    Type
REMARK                         _______ _______ _______ _____ _____    ______ ____
ROOT
ATOM      1  C   UNL     1       1.610   4.395  19.183  0.00  0.00    +0.000 C 
ENDROOT
BRANCH   1   2
ATOM      2  C   UNL     1       2.682   3.293  19.188  0.00  0.00    +0.000 C 
BRANCH   2   6
ATOM      3  C   UNL     1       5.930   4.685  16.870  0.00  0.00    +0.000 A 
ATOM      4  C   UNL     1       4.765   4.246  16.244  0.00  0.00    +0.000 A 
ATOM      5  C   UNL     1       3.733   3.747  17.022  0.00  0.00    +0.000 A 
ATOM      6  N   UNL     1       3.839   3.703  18.371  0.00  0.00    +0.000 N 
ATOM      7  C   UNL     1       4.998   4.032  18.975  0.00  0.00    +0.000 A 
ATOM      8  C   UNL     1       6.052   4.537  18.260  0.00  0.00    +0.000 A 
BRANCH   3  10
ATOM      9  N   UNL     1       7.250   5.126  14.879  0.00  0.00    +0.000 N 
ATOM     10  C   UNL     1       6.970   5.460  16.158  0.00  0.00    +0.000 C 
ATOM     11  O   UNL     1       7.450   6.449  16.706  0.00  0.00    +0.000 OA
ATOM     12  H   UNL     1       7.929   5.670  14.351  0.00  0.00    +0.000 HD
ATOM     13  H   UNL     1       7.026   4.272  14.378  0.00  0.00    +0.000 HD
ENDBRANCH   3  10
ENDBRANCH   2   6
ENDBRANCH   1   2
BRANCH   1  14
ATOM     14  C   UNL     1       1.822   5.475  20.258  0.00  0.00    +0.000 C 
BRANCH  14  15
ATOM     15  C   UNL     1       2.793   6.578  19.824  0.00  0.00    +0.000 C 
BRANCH  15  16
ATOM     16  N   UNL     1       2.043   7.820  19.528  0.00  0.00    +0.000 N 
ATOM     17  C   UNL     1       2.047   8.330  18.277  0.00  0.00    +0.000 A 
ATOM     18  C   UNL     1       1.340   9.482  17.982  0.00  0.00    +0.000 A 
ATOM     19  C   UNL     1       0.609  10.121  18.985  0.00  0.00    +0.000 A 
ATOM     20  C   UNL     1       0.587   9.577  20.264  0.00  0.00    +0.000 A 
ATOM     21 CL   UNL     1      -0.299  10.250  21.577  0.00  0.00    +0.000 Cl
ATOM     22  C   UNL     1       1.316   8.416  20.511  0.00  0.00    +0.000 A 
BRANCH  19  23
ATOM     23  C   UNL     1      -0.102  11.376  18.657  0.00  0.00    +0.000 C 
ATOM     24  N   UNL     1      -1.262  11.350  18.084  0.00  0.00    +0.000 NA
BRANCH  24  25
ATOM     25  O   UNL     1      -1.684  12.667  17.878  0.00  0.00    +0.000 OA
ATOM     26  H   UNL     1      -2.442  12.757  18.488  0.00  0.00    +0.000 HD
ENDBRANCH  24  25
ENDBRANCH  19  23
ENDBRANCH  15  16
ENDBRANCH  14  15
ENDBRANCH   1  14
TORSDOF 8
ENDMDL
MODEL 3
REMARK VINA RESULT:      -6.7      1.782      2.030
REMARK  Name = 
REMARK  8 active torsions:
REMARK  status: ('A' for Active; 'I' for Inactive)
REMARK    1  A    between atoms: C_2  and  C_4
REMARK    2  A    between atoms: N_7  and  C_8
REMARK    3  A    between atoms: C_8  and  C_9
REMARK    4  A    between atoms: C_9  and  C_10
REMARK    5  A    between atoms: C_10  and  C_11
REMARK    6  A    between atoms: C_11  and  N_12
REMARK    7  A    between atoms: C_15  and  C_16
REMARK    8  A    between atoms: N_17  and  O_18
REMARK                            x       y       z     vdW  Elec       q    Type
REMARK                         _______ _______ _______ _____ _____    ______ ____
ROOT
ATOM      1  C   UNL     1       1.798   3.868  19.593  0.00  0.00    +0.000 C 
ENDROOT
BRANCH   1   2
ATOM      2  C   UNL     1       1.888   4.964  20.669  0.00  0.00    +0.000 C 
BRANCH   2   6
ATOM      3  C   UNL     1       1.853   8.745  18.783  0.00  0.00    +0.000 A 
ATOM      4  C   UNL     1       2.404   7.645  18.128  0.00  0.00    +0.000 A 
ATOM      5  C   UNL     1       2.449   6.427  18.786  0.00  0.00    +0.000 A 
ATOM      6  N   UNL     1       1.950   6.295  20.038  0.00  0.00    +0.000 N 
ATOM      7  C   UNL     1       1.508   7.374  20.714  0.00  0.00    +0.000 A 
ATOM      8  C   UNL     1       1.434   8.603  20.115  0.00  0.00    +0.000 A 
BRANCH   3  10
ATOM      9  N   UNL     1       0.252  10.445  18.115  0.00  0.00    +0.000 N 
ATOM     10  C   UNL     1       1.530  10.007  18.082  0.00  0.00    +0.000 C 
ATOM     11  O   UNL     1       2.447  10.671  17.605  0.00  0.00    +0.000 OA
ATOM     12  H   UNL     1       0.010  11.333  17.679  0.00  0.00    +0.000 HD
ATOM     13  H   UNL     1      -0.593   9.935  18.352  0.00  0.00    +0.000 HD
ENDBRANCH   3  10
ENDBRANCH   2   6
ENDBRANCH   1   2
BRANCH   1  14
ATOM     14  C   UNL     1       2.738   2.675  19.840  0.00  0.00    +0.000 C 
BRANCH  14  15
ATOM     15  C   UNL     1       3.644   2.362  18.646  0.00  0.00    +0.000 C 
BRANCH  15  16
ATOM     16  N   UNL     1       4.469   3.547  18.316  0.00  0.00    +0.000 N 
ATOM     17  C   UNL     1       5.203   4.149  19.277  0.00  0.00    +0.000 A 
ATOM     18  C   UNL     1       5.989   5.248  18.981  0.00  0.00    +0.000 A 
ATOM     19  C   UNL     1       6.031   5.737  17.674  0.00  0.00    +0.000 A 
ATOM     20  C   UNL     1       5.294   5.097  16.684  0.00  0.00    +0.000 A 
ATOM     21 CL   UNL     1       5.286   5.582  15.033  0.00  0.00    +0.000 Cl
ATOM     22  C   UNL     1       4.518   3.995  17.032  0.00  0.00    +0.000 A 
BRANCH  19  23
ATOM     23  C   UNL     1       6.842   6.941  17.391  0.00  0.00    +0.000 C 
ATOM     24  N   UNL     1       7.781   7.313  18.201  0.00  0.00    +0.000 NA
BRANCH  24  25
ATOM     25  O   UNL     1       8.363   8.480  17.698  0.00  0.00    +0.000 OA
ATOM     26  H   UNL     1       7.610   9.100  17.644  0.00  0.00    +0.000 HD
ENDBRANCH  24  25
ENDBRANCH  19  23
ENDBRANCH  15  16
ENDBRANCH  14  15
ENDBRANCH   1  14
TORSDOF 8
ENDMDL
MODEL 4
REMARK VINA RESULT:      -6.7      1.541      2.235
REMARK  Name = 
REMARK  8 active torsions:
REMARK  status: ('A' for Active; 'I' for Inactive)
REMARK    1  A    between atoms: C_2  and  C_4
REMARK    2  A    between atoms: N_7  and  C_8
REMARK    3  A    between atoms: C_8  and  C_9
REMARK    4  A    between atoms: C_9  and  C_10
REMARK    5  A    between atoms: C_10  and  C_11
REMARK    6  A    between atoms: C_11  and  N_12
REMARK    7  A    between atoms: C_15  and  C_16
REMARK    8  A    between atoms: N_17  and  O_18
REMARK                            x       y       z     vdW  Elec       q    Type
REMARK                         _______ _______ _______ _____ _____    ______ ____
ROOT
ATOM      1  C   UNL     1       2.374   6.451  19.737  0.00  0.00    +0.000 C 
ENDROOT
BRANCH   1   2
ATOM      2  C   UNL     1       1.492   7.335  20.635  0.00  0.00    +0.000 C 
BRANCH   2   6
ATOM      3  C   UNL     1       1.294  11.232  19.014  0.00  0.00    +0.000 A 
ATOM      4  C   UNL     1       0.810  10.986  20.297  0.00  0.00    +0.000 A 
ATOM      5  C   UNL     1       0.840   9.691  20.788  0.00  0.00    +0.000 A 
ATOM      6  N   UNL     1       1.349   8.679  20.046  0.00  0.00    +0.000 N 
ATOM      7  C   UNL     1       1.726   8.891  18.770  0.00  0.00    +0.000 A 
ATOM      8  C   UNL     1       1.725  10.150  18.231  0.00  0.00    +0.000 A 
BRANCH   3  10
ATOM      9  N   UNL     1       2.412  12.755  17.486  0.00  0.00    +0.000 N 
ATOM     10  C   UNL     1       1.539  12.600  18.506  0.00  0.00    +0.000 C 
ATOM     11  O   UNL     1       0.854  13.524  18.940  0.00  0.00    +0.000 OA
ATOM     12  H   UNL     1       2.567  13.679  17.088  0.00  0.00    +0.000 HD
ATOM     13  H   UNL     1       3.117  12.109  17.145  0.00  0.00    +0.000 HD
ENDBRANCH   3  10
ENDBRANCH   2   6
ENDBRANCH   1   2
BRANCH   1  14
ATOM     14  C   UNL     1       1.977   4.965  19.743  0.00  0.00    +0.000 C 
BRANCH  14  15
ATOM     15  C   UNL     1       3.163   4.022  19.964  0.00  0.00    +0.000 C 
BRANCH  15  16
ATOM     16  N   UNL     1       4.128   4.158  18.848  0.00  0.00    +0.000 N 
ATOM     17  C   UNL     1       3.739   3.891  17.582  0.00  0.00    +0.000 A 
ATOM     18  C   UNL     1       4.625   4.027  16.529  0.00  0.00    +0.000 A 
ATOM     19  C   UNL     1       5.933   4.450  16.773  0.00  0.00    +0.000 A 
ATOM     20  C   UNL     1       6.319   4.748  18.075  0.00  0.00    +0.000 A 
ATOM     21 CL   UNL     1       7.889   5.308  18.504  0.00  0.00    +0.000 Cl
ATOM     22  C   UNL     1       5.391   4.596  19.102  0.00  0.00    +0.000 A 
BRANCH  19  23
ATOM     23  C   UNL     1       6.874   4.543  15.637  0.00  0.00    +0.000 C 
ATOM     24  N   UNL     1       7.290   5.694  15.214  0.00  0.00    +0.000 NA
BRANCH  24  25
ATOM     25  O   UNL     1       8.147   5.483  14.129  0.00  0.00    +0.000 OA
ATOM     26  H   UNL     1       8.401   4.545  14.225  0.00  0.00    +0.000 HD
ENDBRANCH  24  25
ENDBRANCH  19  23
ENDBRANCH  15  16
ENDBRANCH  14  15
ENDBRANCH   1  14
TORSDOF 8
ENDMDL
MODEL 5
REMARK VINA RESULT:      -6.6      1.425      5.947
REMARK  Name = 
REMARK  8 active torsions:
REMARK  status: ('A' for Active; 'I' for Inactive)
REMARK    1  A    between atoms: C_2  and  C_4
REMARK    2  A    between atoms: N_7  and  C_8
REMARK    3  A    between atoms: C_8  and  C_9
REMARK    4  A    between atoms: C_9  and  C_10
REMARK    5  A    between atoms: C_10  and  C_11
REMARK    6  A    between atoms: C_11  and  N_12
REMARK    7  A    between atoms: C_15  and  C_16
REMARK    8  A    between atoms: N_17  and  O_18
REMARK                            x       y       z     vdW  Elec       q    Type
REMARK                         _______ _______ _______ _____ _____    ______ ____
ROOT
ATOM      1  C   UNL     1       2.392   2.793  20.294  0.00  0.00    +0.000 C 
ENDROOT
BRANCH   1   2
ATOM      2  C   UNL     1       2.827   2.294  18.906  0.00  0.00    +0.000 C 
BRANCH   2   6
ATOM      3  C   UNL     1       5.769   4.767  17.150  0.00  0.00    +0.000 A 
ATOM      4  C   UNL     1       5.825   4.479  18.512  0.00  0.00    +0.000 A 
ATOM      5  C   UNL     1       4.821   3.707  19.075  0.00  0.00    +0.000 A 
ATOM      6  N   UNL     1       3.811   3.220  18.316  0.00  0.00    +0.000 N 
ATOM      7  C   UNL     1       3.698   3.577  17.021  0.00  0.00    +0.000 A 
ATOM      8  C   UNL     1       4.661   4.333  16.407  0.00  0.00    +0.000 A 
BRANCH   3  10
ATOM      9  N   UNL     1       7.424   6.524  16.869  0.00  0.00    +0.000 N 
ATOM     10  C   UNL     1       6.911   5.358  16.416  0.00  0.00    +0.000 C 
ATOM     11  O   UNL     1       7.428   4.713  15.507  0.00  0.00    +0.000 OA
ATOM     12  H   UNL     1       8.237   6.931  16.410  0.00  0.00    +0.000 HD
ATOM     13  H   UNL     1       7.013   7.199  17.506  0.00  0.00    +0.000 HD
ENDBRANCH   3  10
ENDBRANCH   2   6
ENDBRANCH   1   2
BRANCH   1  14
ATOM     14  C   UNL     1       1.439   3.999  20.252  0.00  0.00    +0.000 C 
BRANCH  14  15
ATOM     15  C   UNL     1       1.886   5.155  21.152  0.00  0.00    +0.000 C 
BRANCH  15  16
ATOM     16  N   UNL     1       1.867   6.424  20.387  0.00  0.00    +0.000 N 
ATOM     17  C   UNL     1       1.218   7.501  20.881  0.00  0.00    +0.000 A 
ATOM     18  C   UNL     1       1.204   8.696  20.185  0.00  0.00    +0.000 A 
ATOM     19  C   UNL     1       1.873   8.794  18.963  0.00  0.00    +0.000 A 
ATOM     20  C   UNL     1       2.561   7.690  18.474  0.00  0.00    +0.000 A 
ATOM     21 CL   UNL     1       3.449   7.691  17.000  0.00  0.00    +0.000 Cl
ATOM     22  C   UNL     1       2.546   6.509  19.211  0.00  0.00    +0.000 A 
BRANCH  19  23
ATOM     23  C   UNL     1       1.805  10.068  18.215  0.00  0.00    +0.000 C 
ATOM     24  N   UNL     1       1.420  11.158  18.798  0.00  0.00    +0.000 NA
BRANCH  24  25
ATOM     25  O   UNL     1       1.435  12.192  17.856  0.00  0.00    +0.000 OA
ATOM     26  H   UNL     1       1.724  11.744  17.037  0.00  0.00    +0.000 HD
ENDBRANCH  24  25
ENDBRANCH  19  23
ENDBRANCH  15  16
ENDBRANCH  14  15
ENDBRANCH   1  14
TORSDOF 8
ENDMDL
MODEL 6
REMARK VINA RESULT:      -6.6      3.395      7.223
REMARK  Name = 
REMARK  8 active torsions:
REMARK  status: ('A' for Active; 'I' for Inactive)
REMARK    1  A    between atoms: C_2  and  C_4
REMARK    2  A    between atoms: N_7  and  C_8
REMARK    3  A    between atoms: C_8  and  C_9
REMARK    4  A    between atoms: C_9  and  C_10
REMARK    5  A    between atoms: C_10  and  C_11
REMARK    6  A    between atoms: C_11  and  N_12
REMARK    7  A    between atoms: C_15  and  C_16
REMARK    8  A    between atoms: N_17  and  O_18
REMARK                            x       y       z     vdW  Elec       q    Type
REMARK                         _______ _______ _______ _____ _____    ______ ____
ROOT
ATOM      1  C   UNL     1       6.338   5.574  18.282  0.00  0.00    +0.000 C 
ENDROOT
BRANCH   1   2
ATOM      2  C   UNL     1       7.437   4.920  17.428  0.00  0.00    +0.000 C 
BRANCH   2   6
ATOM      3  C   UNL     1       6.109   3.843  13.564  0.00  0.00    +0.000 A 
ATOM      4  C   UNL     1       7.041   4.867  13.719  0.00  0.00    +0.000 A 
ATOM      5  C   UNL     1       7.424   5.236  14.999  0.00  0.00    +0.000 A 
ATOM      6  N   UNL     1       6.919   4.603  16.084  0.00  0.00    +0.000 N 
ATOM      7  C   UNL     1       5.945   3.681  15.945  0.00  0.00    +0.000 A 
ATOM      8  C   UNL     1       5.530   3.271  14.706  0.00  0.00    +0.000 A 
BRANCH   3  10
ATOM      9  N   UNL     1       6.755   2.360  11.751  0.00  0.00    +0.000 N 
ATOM     10  C   UNL     1       5.834   3.212  12.254  0.00  0.00    +0.000 C 
ATOM     11  O   UNL     1       4.735   3.385  11.733  0.00  0.00    +0.000 OA
ATOM     12  H   UNL     1       6.573   1.878  10.873  0.00  0.00    +0.000 HD
ATOM     13  H   UNL     1       7.729   2.244  12.013  0.00  0.00    +0.000 HD
ENDBRANCH   3  10
ENDBRANCH   2   6
ENDBRANCH   1   2
BRANCH   1  14
ATOM     14  C   UNL     1       5.736   6.843  17.656  0.00  0.00    +0.000 C 
BRANCH  14  15
ATOM     15  C   UNL     1       4.310   6.643  17.133  0.00  0.00    +0.000 C 
BRANCH  15  16
ATOM     16  N   UNL     1       3.528   5.837  18.098  0.00  0.00    +0.000 N 
ATOM     17  C   UNL     1       3.155   6.373  19.281  0.00  0.00    +0.000 A 
ATOM     18  C   UNL     1       2.413   5.637  20.187  0.00  0.00    +0.000 A 
ATOM     19  C   UNL     1       2.039   4.328  19.875  0.00  0.00    +0.000 A 
ATOM     20  C   UNL     1       2.404   3.791  18.645  0.00  0.00    +0.000 A 
ATOM     21 CL   UNL     1       1.978   2.206  18.129  0.00  0.00    +0.000 Cl
ATOM     22  C   UNL     1       3.151   4.572  17.767  0.00  0.00    +0.000 A 
BRANCH  19  23
ATOM     23  C   UNL     1       1.286   3.545  20.878  0.00  0.00    +0.000 C 
ATOM     24  N   UNL     1       1.903   2.907  21.820  0.00  0.00    +0.000 NA
BRANCH  24  25
ATOM     25  O   UNL     1       0.951   2.246  22.603  0.00  0.00    +0.000 OA
ATOM     26  H   UNL     1       0.988   2.727  23.453  0.00  0.00    +0.000 HD
ENDBRANCH  24  25
ENDBRANCH  19  23
ENDBRANCH  15  16
ENDBRANCH  14  15
ENDBRANCH   1  14
TORSDOF 8
ENDMDL
MODEL 7
REMARK VINA RESULT:      -6.6      4.513      9.100
REMARK  Name = 
REMARK  8 active torsions:
REMARK  status: ('A' for Active; 'I' for Inactive)
REMARK    1  A    between atoms: C_2  and  C_4
REMARK    2  A    between atoms: N_7  and  C_8
REMARK    3  A    between atoms: C_8  and  C_9
REMARK    4  A    between atoms: C_9  and  C_10
REMARK    5  A    between atoms: C_10  and  C_11
REMARK    6  A    between atoms: C_11  and  N_12
REMARK    7  A    between atoms: C_15  and  C_16
REMARK    8  A    between atoms: N_17  and  O_18
REMARK                            x       y       z     vdW  Elec       q    Type
REMARK                         _______ _______ _______ _____ _____    ______ ____
ROOT
ATOM      1  C   UNL     1       2.129   8.241  18.587  0.00  0.00    +0.000 C 
ENDROOT
BRANCH   1   2
ATOM      2  C   UNL     1       3.178   7.715  17.594  0.00  0.00    +0.000 C 
BRANCH   2   6
ATOM      3  C   UNL     1       3.776   3.592  18.297  0.00  0.00    +0.000 A 
ATOM      4  C   UNL     1       4.776   4.346  17.686  0.00  0.00    +0.000 A 
ATOM      5  C   UNL     1       4.537   5.685  17.420  0.00  0.00    +0.000 A 
ATOM      6  N   UNL     1       3.362   6.263  17.765  0.00  0.00    +0.000 N 
ATOM      7  C   UNL     1       2.356   5.518  18.264  0.00  0.00    +0.000 A 
ATOM      8  C   UNL     1       2.533   4.191  18.553  0.00  0.00    +0.000 A 
BRANCH   3  10
ATOM      9  N   UNL     1       4.914   2.118  19.858  0.00  0.00    +0.000 N 
ATOM     10  C   UNL     1       4.025   2.241  18.847  0.00  0.00    +0.000 C 
ATOM     11  O   UNL     1       3.330   1.306  18.456  0.00  0.00    +0.000 OA
ATOM     12  H   UNL     1       5.072   1.207  20.284  0.00  0.00    +0.000 HD
ATOM     13  H   UNL     1       5.626   2.773  20.165  0.00  0.00    +0.000 HD
ENDBRANCH   3  10
ENDBRANCH   2   6
ENDBRANCH   1   2
BRANCH   1  14
ATOM     14  C   UNL     1       1.301   9.422  18.053  0.00  0.00    +0.000 C 
BRANCH  14  15
ATOM     15  C   UNL     1       0.531  10.166  19.148  0.00  0.00    +0.000 C 
BRANCH  15  16
ATOM     16  N   UNL     1      -0.807  10.555  18.646  0.00  0.00    +0.000 N 
ATOM     17  C   UNL     1      -1.544  11.466  19.320  0.00  0.00    +0.000 A 
ATOM     18  C   UNL     1      -2.789  11.849  18.856  0.00  0.00    +0.000 A 
ATOM     19  C   UNL     1      -3.289  11.295  17.676  0.00  0.00    +0.000 A 
ATOM     20  C   UNL     1      -2.515  10.378  16.973  0.00  0.00    +0.000 A 
ATOM     21 CL   UNL     1      -3.002   9.649  15.493  0.00  0.00    +0.000 Cl
ATOM     22  C   UNL     1      -1.267  10.024  17.481  0.00  0.00    +0.000 A 
BRANCH  19  23
ATOM     23  C   UNL     1      -4.641  11.686  17.224  0.00  0.00    +0.000 C 
ATOM     24  N   UNL     1      -5.694  11.299  17.871  0.00  0.00    +0.000 NA
BRANCH  24  25
ATOM     25  O   UNL     1      -6.824  11.795  17.214  0.00  0.00    +0.000 OA
ATOM     26  H   UNL     1      -6.448  12.414  16.558  0.00  0.00    +0.000 HD
ENDBRANCH  24  25
ENDBRANCH  19  23
ENDBRANCH  15  16
ENDBRANCH  14  15
ENDBRANCH   1  14
TORSDOF 8
ENDMDL
MODEL 8
REMARK VINA RESULT:      -6.5      3.043      7.774
REMARK  Name = 
REMARK  8 active torsions:
REMARK  status: ('A' for Active; 'I' for Inactive)
REMARK    1  A    between atoms: C_2  and  C_4
REMARK    2  A    between atoms: N_7  and  C_8
REMARK    3  A    between atoms: C_8  and  C_9
REMARK    4  A    between atoms: C_9  and  C_10
REMARK    5  A    between atoms: C_10  and  C_11
REMARK    6  A    between atoms: C_11  and  N_12
REMARK    7  A    between atoms: C_15  and  C_16
REMARK    8  A    between atoms: N_17  and  O_18
REMARK                            x       y       z     vdW  Elec       q    Type
REMARK                         _______ _______ _______ _____ _____    ______ ____
ROOT
ATOM      1  C   UNL     1       2.058   4.480  19.606  0.00  0.00    +0.000 C 
ENDROOT
BRANCH   1   2
ATOM      2  C   UNL     1       3.459   3.868  19.770  0.00  0.00    +0.000 C 
BRANCH   2   6
ATOM      3  C   UNL     1       5.910   4.574  16.402  0.00  0.00    +0.000 A 
ATOM      4  C   UNL     1       6.445   4.671  17.684  0.00  0.00    +0.000 A 
ATOM      5  C   UNL     1       5.610   4.484  18.775  0.00  0.00    +0.000 A 
ATOM      6  N   UNL     1       4.299   4.192  18.603  0.00  0.00    +0.000 N 
ATOM      7  C   UNL     1       3.755   4.196  17.370  0.00  0.00    +0.000 A 
ATOM      8  C   UNL     1       4.529   4.369  16.254  0.00  0.00    +0.000 A 
BRANCH   3  10
ATOM      9  N   UNL     1       6.388   3.658  14.203  0.00  0.00    +0.000 N 
ATOM     10  C   UNL     1       6.757   4.504  15.191  0.00  0.00    +0.000 C 
ATOM     11  O   UNL     1       7.687   5.298  15.072  0.00  0.00    +0.000 OA
ATOM     12  H   UNL     1       6.928   3.621  13.341  0.00  0.00    +0.000 HD
ATOM     13  H   UNL     1       5.740   2.878  14.239  0.00  0.00    +0.000 HD
ENDBRANCH   3  10
ENDBRANCH   2   6
ENDBRANCH   1   2
BRANCH   1  14
ATOM     14  C   UNL     1       1.825   5.740  20.456  0.00  0.00    +0.000 C 
BRANCH  14  15
ATOM     15  C   UNL     1       2.298   7.027  19.774  0.00  0.00    +0.000 C 
BRANCH  15  16
ATOM     16  N   UNL     1       1.522   8.181  20.283  0.00  0.00    +0.000 N 
ATOM     17  C   UNL     1       1.193   8.251  21.592  0.00  0.00    +0.000 A 
ATOM     18  C   UNL     1       0.481   9.329  22.084  0.00  0.00    +0.000 A 
ATOM     19  C   UNL     1       0.102  10.360  21.223  0.00  0.00    +0.000 A 
ATOM     20  C   UNL     1       0.467  10.296  19.883  0.00  0.00    +0.000 A 
ATOM     21 CL   UNL     1       0.089  11.516  18.728  0.00  0.00    +0.000 Cl
ATOM     22  C   UNL     1       1.184   9.190  19.435  0.00  0.00    +0.000 A 
BRANCH  19  23
ATOM     23  C   UNL     1      -0.698  11.480  21.763  0.00  0.00    +0.000 C 
ATOM     24  N   UNL     1      -0.603  11.823  23.008  0.00  0.00    +0.000 NA
BRANCH  24  25
ATOM     25  O   UNL     1      -1.479  12.888  23.242  0.00  0.00    +0.000 OA
ATOM     26  H   UNL     1      -1.353  13.075  24.193  0.00  0.00    +0.000 HD
ENDBRANCH  24  25
ENDBRANCH  19  23
ENDBRANCH  15  16
ENDBRANCH  14  15
ENDBRANCH   1  14
TORSDOF 8
ENDMDL
MODEL 9
REMARK VINA RESULT:      -6.5      2.830      7.521
REMARK  Name = 
REMARK  8 active torsions:
REMARK  status: ('A' for Active; 'I' for Inactive)
REMARK    1  A    between atoms: C_2  and  C_4
REMARK    2  A    between atoms: N_7  and  C_8
REMARK    3  A    between atoms: C_8  and  C_9
REMARK    4  A    between atoms: C_9  and  C_10
REMARK    5  A    between atoms: C_10  and  C_11
REMARK    6  A    between atoms: C_11  and  N_12
REMARK    7  A    between atoms: C_15  and  C_16
REMARK    8  A    between atoms: N_17  and  O_18
REMARK                            x       y       z     vdW  Elec       q    Type
REMARK                         _______ _______ _______ _____ _____    ______ ____
ROOT
ATOM      1  C   UNL     1       3.653   4.535  19.574  0.00  0.00    +0.000 C 
ENDROOT
BRANCH   1   2
ATOM      2  C   UNL     1       4.940   5.365  19.431  0.00  0.00    +0.000 C 
BRANCH   2   6
ATOM      3  C   UNL     1       6.639   4.736  15.614  0.00  0.00    +0.000 A 
ATOM      4  C   UNL     1       5.626   3.896  16.072  0.00  0.00    +0.000 A 
ATOM      5  C   UNL     1       5.119   4.091  17.347  0.00  0.00    +0.000 A 
ATOM      6  N   UNL     1       5.582   5.092  18.133  0.00  0.00    +0.000 N 
ATOM      7  C   UNL     1       6.628   5.843  17.736  0.00  0.00    +0.000 A 
ATOM      8  C   UNL     1       7.168   5.701  16.485  0.00  0.00    +0.000 A 
BRANCH   3  10
ATOM      9  N   UNL     1       6.385   4.005  13.311  0.00  0.00    +0.000 N 
ATOM     10  C   UNL     1       7.061   4.772  14.196  0.00  0.00    +0.000 C 
ATOM     11  O   UNL     1       7.919   5.582  13.854  0.00  0.00    +0.000 OA
ATOM     12  H   UNL     1       6.625   4.043  12.323  0.00  0.00    +0.000 HD
ATOM     13  H   UNL     1       5.768   3.219  13.488  0.00  0.00    +0.000 HD
ENDBRANCH   3  10
ENDBRANCH   2   6
ENDBRANCH   1   2
BRANCH   1  14
ATOM     14  C   UNL     1       2.371   5.308  19.219  0.00  0.00    +0.000 C 
BRANCH  14  15
ATOM     15  C   UNL     1       2.645   6.674  18.581  0.00  0.00    +0.000 C 
BRANCH  15  16
ATOM     16  N   UNL     1       1.964   7.736  19.356  0.00  0.00    +0.000 N 
ATOM     17  C   UNL     1       1.747   7.574  20.680  0.00  0.00    +0.000 A 
ATOM     18  C   UNL     1       1.126   8.564  21.419  0.00  0.00    +0.000 A 
ATOM     19  C   UNL     1       0.724   9.747  20.795  0.00  0.00    +0.000 A 
ATOM     20  C   UNL     1       0.974   9.918  19.438  0.00  0.00    +0.000 A 
ATOM     21 CL   UNL     1       0.558  11.338  18.560  0.00  0.00    +0.000 Cl
ATOM     22  C   UNL     1       1.603   8.892  18.737  0.00  0.00    +0.000 A 
BRANCH  19  23
ATOM     23  C   UNL     1       0.021  10.771  21.596  0.00  0.00    +0.000 C 
ATOM     24  N   UNL     1      -0.050  10.671  22.885  0.00  0.00    +0.000 NA
BRANCH  24  25
ATOM     25  O   UNL     1      -0.781  11.757  23.374  0.00  0.00    +0.000 OA
ATOM     26  H   UNL     1      -1.103  11.439  24.240  0.00  0.00    +0.000 HD
ENDBRANCH  24  25
ENDBRANCH  19  23
ENDBRANCH  15  16
ENDBRANCH  14  15
ENDBRANCH   1  14
TORSDOF 8
ENDMDL
