MODEL 1
REMARK VINA RESULT:      -8.5      0.000      0.000
REMARK  Name = 
REMARK  6 active torsions:
REMARK  status: ('A' for Active; 'I' for Inactive)
REMARK    1  A    between atoms: N_2  and  C_4
REMARK    2  A    between atoms: C_6  and  C_7
REMARK    3  A    between atoms: C_9  and  C_10
REMARK    4  A    between atoms: C_15  and  C_16
REMARK    5  A    between atoms: C_23  and  O_24
REMARK    6  A    between atoms: C_25  and  O_26
REMARK                            x       y       z     vdW  Elec       q    Type
REMARK                         _______ _______ _______ _____ _____    ______ ____
ROOT
ATOM      1  C   UNL     1       5.652   4.185  16.580  0.00  0.00    +0.000 A 
ATOM      2  C   UNL     1       4.459   3.865  17.186  0.00  0.00    +0.000 A 
ATOM      3  C   UNL     1       4.692   4.028  18.581  0.00  0.00    +0.000 A 
ATOM      4  N   UNL     1       5.972   4.356  18.796  0.00  0.00    +0.000 NA
ATOM      5  O   UNL     1       6.555   4.490  17.555  0.00  0.00    +0.000 OA
ENDROOT
BRANCH   1   8
ATOM      6  C   UNL     1       5.956   3.619  12.864  0.00  0.00    +0.000 A 
ATOM      7  C   UNL     1       5.489   3.529  14.186  0.00  0.00    +0.000 A 
ATOM      8  C   UNL     1       6.129   4.258  15.202  0.00  0.00    +0.000 A 
ATOM      9  C   UNL     1       7.233   5.064  14.863  0.00  0.00    +0.000 A 
ATOM     10  C   UNL     1       7.672   5.141  13.540  0.00  0.00    +0.000 A 
ATOM     11  C   UNL     1       7.034   4.423  12.532  0.00  0.00    +0.000 A 
BRANCH   6  13
ATOM     12  O   UNL     1       5.855   1.844  11.426  0.00  0.00    +0.000 OA
ATOM     13  N   UNL     1       5.270   2.851  11.846  0.00  0.00    +0.000 N 
ATOM     14  O   UNL     1       4.203   3.302  11.413  0.00  0.00    +0.000 OA
ENDBRANCH   6  13
BRANCH  10  15
ATOM     15  O   UNL     1       8.731   5.928  13.183  0.00  0.00    +0.000 OA
ATOM     16  H   UNL     1       8.439   6.558  12.499  0.00  0.00    +0.000 HD
ENDBRANCH  10  15
BRANCH  11  17
ATOM     17  O   UNL     1       7.481   4.559  11.249  0.00  0.00    +0.000 OA
ATOM     18  H   UNL     1       8.100   5.318  11.260  0.00  0.00    +0.000 HD
ENDBRANCH  11  17
ENDBRANCH   1   8
BRANCH   3  19
ATOM     19  C   UNL     1       3.760   3.799  19.679  0.00  0.00    +0.000 A 
ATOM     20  C   UNL     1       3.867   2.598  20.388  0.00  0.00    +0.000 A 
ATOM     21  N   UNL     1       3.113   2.256  21.459  0.00  0.00    +0.000 NA
ATOM     22  C   UNL     1       2.210   3.158  21.873  0.00  0.00    +0.000 A 
ATOM     23  C   UNL     1       2.010   4.372  21.241  0.00  0.00    +0.000 A 
ATOM     24  C   UNL     1       2.777   4.707  20.104  0.00  0.00    +0.000 A 
BRANCH  24  25
ATOM     25  C   UNL     1       2.437   6.022  19.443  0.00  0.00    +0.000 C 
ATOM     26  F   UNL     1       3.467   6.857  19.159  0.00  0.00    +0.000 F 
ATOM     27  F   UNL     1       1.830   5.812  18.234  0.00  0.00    +0.000 F 
ATOM     28  F   UNL     1       1.537   6.744  20.168  0.00  0.00    +0.000 F 
ENDBRANCH  24  25
ENDBRANCH   3  19
TORSDOF 6
ENDMDL
MODEL 2
REMARK VINA RESULT:      -8.1      6.244      9.320
REMARK  Name = 
REMARK  6 active torsions:
REMARK  status: ('A' for Active; 'I' for Inactive)
REMARK    1  A    between atoms: N_2  and  C_4
REMARK    2  A    between atoms: C_6  and  C_7
REMARK    3  A    between atoms: C_9  and  C_10
REMARK    4  A    between atoms: C_15  and  C_16
REMARK    5  A    between atoms: C_23  and  O_24
REMARK    6  A    between atoms: C_25  and  O_26
REMARK                            x       y       z     vdW  Elec       q    Type
REMARK                         _______ _______ _______ _____ _____    ______ ____
ROOT
ATOM      1  C   UNL     1       1.429   8.844  19.059  0.00  0.00    +0.000 A 
ATOM      2  C   UNL     1       2.082   8.282  17.987  0.00  0.00    +0.000 A 
ATOM      3  C   UNL     1       2.718   7.118  18.504  0.00  0.00    +0.000 A 
ATOM      4  N   UNL     1       2.513   7.033  19.825  0.00  0.00    +0.000 NA
ATOM      5  O   UNL     1       1.684   8.081  20.159  0.00  0.00    +0.000 OA
ENDROOT
BRANCH   1   8
ATOM      6  C   UNL     1      -0.320  11.761  20.690  0.00  0.00    +0.000 A 
ATOM      7  C   UNL     1       0.495  10.629  20.519  0.00  0.00    +0.000 A 
ATOM      8  C   UNL     1       0.578  10.014  19.259  0.00  0.00    +0.000 A 
ATOM      9  C   UNL     1      -0.169  10.554  18.193  0.00  0.00    +0.000 A 
ATOM     10  C   UNL     1      -0.966  11.682  18.389  0.00  0.00    +0.000 A 
ATOM     11  C   UNL     1      -1.044  12.296  19.637  0.00  0.00    +0.000 A 
BRANCH   6  13
ATOM     12  O   UNL     1      -0.181  13.586  22.061  0.00  0.00    +0.000 OA
ATOM     13  N   UNL     1      -0.380  12.365  22.004  0.00  0.00    +0.000 N 
ATOM     14  O   UNL     1      -0.536  11.611  22.973  0.00  0.00    +0.000 OA
ENDBRANCH   6  13
BRANCH  10  15
ATOM     15  O   UNL     1      -1.688  12.234  17.367  0.00  0.00    +0.000 OA
ATOM     16  H   UNL     1      -2.345  12.848  17.741  0.00  0.00    +0.000 HD
ENDBRANCH  10  15
BRANCH  11  17
ATOM     17  O   UNL     1      -1.811  13.417  19.767  0.00  0.00    +0.000 OA
ATOM     18  H   UNL     1      -1.211  14.173  19.602  0.00  0.00    +0.000 HD
ENDBRANCH  11  17
ENDBRANCH   1   8
BRANCH   3  19
ATOM     19  C   UNL     1       3.560   6.164  17.793  0.00  0.00    +0.000 A 
ATOM     20  C   UNL     1       4.803   6.607  17.331  0.00  0.00    +0.000 A 
ATOM     21  N   UNL     1       5.719   5.837  16.698  0.00  0.00    +0.000 NA
ATOM     22  C   UNL     1       5.401   4.544  16.523  0.00  0.00    +0.000 A 
ATOM     23  C   UNL     1       4.196   4.001  16.928  0.00  0.00    +0.000 A 
ATOM     24  C   UNL     1       3.233   4.819  17.558  0.00  0.00    +0.000 A 
BRANCH  24  25
ATOM     25  C   UNL     1       1.921   4.151  17.899  0.00  0.00    +0.000 C 
ATOM     26  F   UNL     1       1.516   4.207  19.192  0.00  0.00    +0.000 F 
ATOM     27  F   UNL     1       0.892   4.722  17.199  0.00  0.00    +0.000 F 
ATOM     28  F   UNL     1       1.906   2.837  17.540  0.00  0.00    +0.000 F 
ENDBRANCH  24  25
ENDBRANCH   3  19
TORSDOF 6
ENDMDL
MODEL 3
REMARK VINA RESULT:      -8.0      4.667      6.440
REMARK  Name = 
REMARK  6 active torsions:
REMARK  status: ('A' for Active; 'I' for Inactive)
REMARK    1  A    between atoms: N_2  and  C_4
REMARK    2  A    between atoms: C_6  and  C_7
REMARK    3  A    between atoms: C_9  and  C_10
REMARK    4  A    between atoms: C_15  and  C_16
REMARK    5  A    between atoms: C_23  and  O_24
REMARK    6  A    between atoms: C_25  and  O_26
REMARK                            x       y       z     vdW  Elec       q    Type
REMARK                         _______ _______ _______ _____ _____    ______ ____
ROOT
ATOM      1  C   UNL     1       2.614   7.790  18.035  0.00  0.00    +0.000 A 
ATOM      2  C   UNL     1       1.780   8.108  19.081  0.00  0.00    +0.000 A 
ATOM      3  C   UNL     1       1.358   9.445  18.831  0.00  0.00    +0.000 A 
ATOM      4  N   UNL     1       1.965   9.919  17.735  0.00  0.00    +0.000 NA
ATOM      5  O   UNL     1       2.712   8.881  17.223  0.00  0.00    +0.000 OA
ENDROOT
BRANCH   1   8
ATOM      6  C   UNL     1       5.328   5.595  16.605  0.00  0.00    +0.000 A 
ATOM      7  C   UNL     1       4.605   6.743  16.972  0.00  0.00    +0.000 A 
ATOM      8  C   UNL     1       3.374   6.609  17.636  0.00  0.00    +0.000 A 
ATOM      9  C   UNL     1       2.895   5.314  17.915  0.00  0.00    +0.000 A 
ATOM     10  C   UNL     1       3.636   4.191  17.546  0.00  0.00    +0.000 A 
ATOM     11  C   UNL     1       4.859   4.324  16.893  0.00  0.00    +0.000 A 
BRANCH   6  13
ATOM     12  O   UNL     1       7.471   6.388  16.538  0.00  0.00    +0.000 OA
ATOM     13  N   UNL     1       6.591   5.775  15.921  0.00  0.00    +0.000 N 
ATOM     14  O   UNL     1       6.665   5.383  14.749  0.00  0.00    +0.000 OA
ENDBRANCH   6  13
BRANCH  10  15
ATOM     15  O   UNL     1       3.199   2.924  17.820  0.00  0.00    +0.000 OA
ATOM     16  H   UNL     1       2.992   2.861  18.770  0.00  0.00    +0.000 HD
ENDBRANCH  10  15
BRANCH  11  17
ATOM     17  O   UNL     1       5.560   3.195  16.583  0.00  0.00    +0.000 OA
ATOM     18  H   UNL     1       5.304   2.528  17.253  0.00  0.00    +0.000 HD
ENDBRANCH  11  17
ENDBRANCH   1   8
BRANCH   3  19
ATOM     19  C   UNL     1       0.478  10.276  19.644  0.00  0.00    +0.000 A 
ATOM     20  C   UNL     1       0.939  10.683  20.900  0.00  0.00    +0.000 A 
ATOM     21  N   UNL     1       0.267  11.492  21.752  0.00  0.00    +0.000 NA
ATOM     22  C   UNL     1      -0.926  11.946  21.337  0.00  0.00    +0.000 A 
ATOM     23  C   UNL     1      -1.485  11.598  20.121  0.00  0.00    +0.000 A 
ATOM     24  C   UNL     1      -0.793  10.727  19.252  0.00  0.00    +0.000 A 
BRANCH  24  25
ATOM     25  C   UNL     1      -1.515  10.352  17.979  0.00  0.00    +0.000 C 
ATOM     26  F   UNL     1      -0.918   9.440  17.174  0.00  0.00    +0.000 F 
ATOM     27  F   UNL     1      -2.737   9.803  18.262  0.00  0.00    +0.000 F 
ATOM     28  F   UNL     1      -1.788  11.439  17.205  0.00  0.00    +0.000 F 
ENDBRANCH  24  25
ENDBRANCH   3  19
TORSDOF 6
ENDMDL
MODEL 4
REMARK VINA RESULT:      -8.0      6.103      9.445
REMARK  Name = 
REMARK  6 active torsions:
REMARK  status: ('A' for Active; 'I' for Inactive)
REMARK    1  A    between atoms: N_2  and  C_4
REMARK    2  A    between atoms: C_6  and  C_7
REMARK    3  A    between atoms: C_9  and  C_10
REMARK    4  A    between atoms: C_15  and  C_16
REMARK    5  A    between atoms: C_23  and  O_24
REMARK    6  A    between atoms: C_25  and  O_26
REMARK                            x       y       z     vdW  Elec       q    Type
REMARK                         _______ _______ _______ _____ _____    ______ ____
ROOT
ATOM      1  C   UNL     1       1.572   8.593  19.469  0.00  0.00    +0.000 A 
ATOM      2  C   UNL     1       2.304   7.429  19.506  0.00  0.00    +0.000 A 
ATOM      3  C   UNL     1       2.840   7.281  18.195  0.00  0.00    +0.000 A 
ATOM      4  N   UNL     1       2.392   8.265  17.404  0.00  0.00    +0.000 NA
ATOM      5  O   UNL     1       1.639   9.096  18.204  0.00  0.00    +0.000 OA
ENDROOT
BRANCH   1   8
ATOM      6  C   UNL     1      -0.765  11.153  20.954  0.00  0.00    +0.000 A 
ATOM      7  C   UNL     1      -0.004  10.439  20.014  0.00  0.00    +0.000 A 
ATOM      8  C   UNL     1       0.784   9.354  20.434  0.00  0.00    +0.000 A 
ATOM      9  C   UNL     1       0.791   9.014  21.801  0.00  0.00    +0.000 A 
ATOM     10  C   UNL     1       0.021   9.736  22.713  0.00  0.00    +0.000 A 
ATOM     11  C   UNL     1      -0.765  10.807  22.296  0.00  0.00    +0.000 A 
BRANCH   6  13
ATOM     12  O   UNL     1      -1.352  13.362  21.016  0.00  0.00    +0.000 OA
ATOM     13  N   UNL     1      -1.563  12.265  20.483  0.00  0.00    +0.000 N 
ATOM     14  O   UNL     1      -2.448  12.021  19.653  0.00  0.00    +0.000 OA
ENDBRANCH   6  13
BRANCH  10  15
ATOM     15  O   UNL     1      -0.001   9.415  24.042  0.00  0.00    +0.000 OA
ATOM     16  H   UNL     1       0.843   9.686  24.446  0.00  0.00    +0.000 HD
ENDBRANCH  10  15
BRANCH  11  17
ATOM     17  O   UNL     1      -1.526  11.460  23.223  0.00  0.00    +0.000 OA
ATOM     18  H   UNL     1      -0.893  11.901  23.826  0.00  0.00    +0.000 HD
ENDBRANCH  11  17
ENDBRANCH   1   8
BRANCH   3  19
ATOM     19  C   UNL     1       3.678   6.203  17.684  0.00  0.00    +0.000 A 
ATOM     20  C   UNL     1       4.971   6.525  17.260  0.00  0.00    +0.000 A 
ATOM     21  N   UNL     1       5.886   5.638  16.806  0.00  0.00    +0.000 NA
ATOM     22  C   UNL     1       5.515   4.347  16.784  0.00  0.00    +0.000 A 
ATOM     23  C   UNL     1       4.258   3.917  17.169  0.00  0.00    +0.000 A 
ATOM     24  C   UNL     1       3.298   4.853  17.609  0.00  0.00    +0.000 A 
BRANCH  24  25
ATOM     25  C   UNL     1       1.934   4.295  17.940  0.00  0.00    +0.000 C 
ATOM     26  F   UNL     1       1.502   4.430  19.217  0.00  0.00    +0.000 F 
ATOM     27  F   UNL     1       0.966   4.908  17.190  0.00  0.00    +0.000 F 
ATOM     28  F   UNL     1       1.833   2.972  17.630  0.00  0.00    +0.000 F 
ENDBRANCH  24  25
ENDBRANCH   3  19
TORSDOF 6
ENDMDL
MODEL 5
REMARK VINA RESULT:      -8.0      5.018      6.847
REMARK  Name = 
REMARK  6 active torsions:
REMARK  status: ('A' for Active; 'I' for Inactive)
REMARK    1  A    between atoms: N_2  and  C_4
REMARK    2  A    between atoms: C_6  and  C_7
REMARK    3  A    between atoms: C_9  and  C_10
REMARK    4  A    between atoms: C_15  and  C_16
REMARK    5  A    between atoms: C_23  and  O_24
REMARK    6  A    between atoms: C_25  and  O_26
REMARK                            x       y       z     vdW  Elec       q    Type
REMARK                         _______ _______ _______ _____ _____    ______ ____
ROOT
ATOM      1  C   UNL     1       2.485   7.927  18.332  0.00  0.00    +0.000 A 
ATOM      2  C   UNL     1       2.108   9.140  17.805  0.00  0.00    +0.000 A 
ATOM      3  C   UNL     1       1.376   9.787  18.841  0.00  0.00    +0.000 A 
ATOM      4  N   UNL     1       1.264   8.973  19.899  0.00  0.00    +0.000 NA
ATOM      5  O   UNL     1       1.982   7.838  19.596  0.00  0.00    +0.000 OA
ENDROOT
BRANCH   1   8
ATOM      6  C   UNL     1       3.532   4.384  17.571  0.00  0.00    +0.000 A 
ATOM      7  C   UNL     1       2.783   5.473  18.048  0.00  0.00    +0.000 A 
ATOM      8  C   UNL     1       3.255   6.782  17.853  0.00  0.00    +0.000 A 
ATOM      9  C   UNL     1       4.480   6.966  17.182  0.00  0.00    +0.000 A 
ATOM     10  C   UNL     1       5.200   5.868  16.713  0.00  0.00    +0.000 A 
ATOM     11  C   UNL     1       4.730   4.570  16.900  0.00  0.00    +0.000 A 
BRANCH   6  13
ATOM     12  O   UNL     1       1.851   2.843  17.425  0.00  0.00    +0.000 OA
ATOM     13  N   UNL     1       3.014   3.051  17.793  0.00  0.00    +0.000 N 
ATOM     14  O   UNL     1       3.734   2.253  18.406  0.00  0.00    +0.000 OA
ENDBRANCH   6  13
BRANCH  10  15
ATOM     15  O   UNL     1       6.384   6.021  16.044  0.00  0.00    +0.000 OA
ATOM     16  H   UNL     1       6.219   6.516  15.221  0.00  0.00    +0.000 HD
ENDBRANCH  10  15
BRANCH  11  17
ATOM     17  O   UNL     1       5.457   3.532  16.392  0.00  0.00    +0.000 OA
ATOM     18  H   UNL     1       5.656   2.947  17.152  0.00  0.00    +0.000 HD
ENDBRANCH  11  17
ENDBRANCH   1   8
BRANCH   3  19
ATOM     19  C   UNL     1       0.734  11.095  18.805  0.00  0.00    +0.000 A 
ATOM     20  C   UNL     1       1.478  12.201  19.226  0.00  0.00    +0.000 A 
ATOM     21  N   UNL     1       1.046  13.484  19.209  0.00  0.00    +0.000 NA
ATOM     22  C   UNL     1      -0.190  13.697  18.730  0.00  0.00    +0.000 A 
ATOM     23  C   UNL     1      -1.019  12.677  18.299  0.00  0.00    +0.000 A 
ATOM     24  C   UNL     1      -0.573  11.339  18.351  0.00  0.00    +0.000 A 
BRANCH  24  25
ATOM     25  C   UNL     1      -1.575  10.292  17.925  0.00  0.00    +0.000 C 
ATOM     26  F   UNL     1      -1.189   9.422  16.959  0.00  0.00    +0.000 F 
ATOM     27  F   UNL     1      -1.917   9.492  18.982  0.00  0.00    +0.000 F 
ATOM     28  F   UNL     1      -2.748  10.845  17.507  0.00  0.00    +0.000 F 
ENDBRANCH  24  25
ENDBRANCH   3  19
TORSDOF 6
ENDMDL
MODEL 6
REMARK VINA RESULT:      -8.0      4.999      6.999
REMARK  Name = 
REMARK  6 active torsions:
REMARK  status: ('A' for Active; 'I' for Inactive)
REMARK    1  A    between atoms: N_2  and  C_4
REMARK    2  A    between atoms: C_6  and  C_7
REMARK    3  A    between atoms: C_9  and  C_10
REMARK    4  A    between atoms: C_15  and  C_16
REMARK    5  A    between atoms: C_23  and  O_24
REMARK    6  A    between atoms: C_25  and  O_26
REMARK                            x       y       z     vdW  Elec       q    Type
REMARK                         _______ _______ _______ _____ _____    ______ ____
ROOT
ATOM      1  C   UNL     1       2.394   7.942  18.370  0.00  0.00    +0.000 A 
ATOM      2  C   UNL     1       2.034   9.153  17.827  0.00  0.00    +0.000 A 
ATOM      3  C   UNL     1       1.336   9.835  18.864  0.00  0.00    +0.000 A 
ATOM      4  N   UNL     1       1.226   9.044  19.939  0.00  0.00    +0.000 NA
ATOM      5  O   UNL     1       1.914   7.888  19.645  0.00  0.00    +0.000 OA
ENDROOT
BRANCH   1   8
ATOM      6  C   UNL     1       5.049   5.786  16.781  0.00  0.00    +0.000 A 
ATOM      7  C   UNL     1       4.349   6.923  17.217  0.00  0.00    +0.000 A 
ATOM      8  C   UNL     1       3.130   6.772  17.899  0.00  0.00    +0.000 A 
ATOM      9  C   UNL     1       2.639   5.471  18.126  0.00  0.00    +0.000 A 
ATOM     10  C   UNL     1       3.358   4.359  17.688  0.00  0.00    +0.000 A 
ATOM     11  C   UNL     1       4.569   4.508  17.016  0.00  0.00    +0.000 A 
BRANCH   6  13
ATOM     12  O   UNL     1       6.364   5.537  14.927  0.00  0.00    +0.000 OA
ATOM     13  N   UNL     1       6.300   5.983  16.079  0.00  0.00    +0.000 N 
ATOM     14  O   UNL     1       7.232   6.499  16.709  0.00  0.00    +0.000 OA
ENDBRANCH   6  13
BRANCH  10  15
ATOM     15  O   UNL     1       2.911   3.085  17.909  0.00  0.00    +0.000 OA
ATOM     16  H   UNL     1       2.444   2.772  17.113  0.00  0.00    +0.000 HD
ENDBRANCH  10  15
BRANCH  11  17
ATOM     17  O   UNL     1       5.250   3.386  16.638  0.00  0.00    +0.000 OA
ATOM     18  H   UNL     1       6.021   3.701  16.124  0.00  0.00    +0.000 HD
ENDBRANCH  11  17
ENDBRANCH   1   8
BRANCH   3  19
ATOM     19  C   UNL     1       0.722  11.156  18.815  0.00  0.00    +0.000 A 
ATOM     20  C   UNL     1       1.492  12.252  19.217  0.00  0.00    +0.000 A 
ATOM     21  N   UNL     1       1.088  13.543  19.186  0.00  0.00    +0.000 NA
ATOM     22  C   UNL     1      -0.146  13.776  18.711  0.00  0.00    +0.000 A 
ATOM     23  C   UNL     1      -0.999  12.770  18.298  0.00  0.00    +0.000 A 
ATOM     24  C   UNL     1      -0.582  11.423  18.365  0.00  0.00    +0.000 A 
BRANCH  24  25
ATOM     25  C   UNL     1      -1.609  10.392  17.958  0.00  0.00    +0.000 C 
ATOM     26  F   UNL     1      -1.268   9.539  16.962  0.00  0.00    +0.000 F 
ATOM     27  F   UNL     1      -1.916   9.574  19.012  0.00  0.00    +0.000 F 
ATOM     28  F   UNL     1      -2.793  10.962  17.597  0.00  0.00    +0.000 F 
ENDBRANCH  24  25
ENDBRANCH   3  19
TORSDOF 6
ENDMDL
MODEL 7
REMARK VINA RESULT:      -7.9      4.853      7.574
REMARK  Name = 
REMARK  6 active torsions:
REMARK  status: ('A' for Active; 'I' for Inactive)
REMARK    1  A    between atoms: N_2  and  C_4
REMARK    2  A    between atoms: C_6  and  C_7
REMARK    3  A    between atoms: C_9  and  C_10
REMARK    4  A    between atoms: C_15  and  C_16
REMARK    5  A    between atoms: C_23  and  O_24
REMARK    6  A    between atoms: C_25  and  O_26
REMARK                            x       y       z     vdW  Elec       q    Type
REMARK                         _______ _______ _______ _____ _____    ______ ____
ROOT
ATOM      1  C   UNL     1       2.456   7.454  18.907  0.00  0.00    +0.000 A 
ATOM      2  C   UNL     1       1.671   8.319  19.633  0.00  0.00    +0.000 A 
ATOM      3  C   UNL     1       1.432   9.424  18.766  0.00  0.00    +0.000 A 
ATOM      4  N   UNL     1       2.098   9.256  17.616  0.00  0.00    +0.000 NA
ATOM      5  O   UNL     1       2.700   8.019  17.691  0.00  0.00    +0.000 OA
ENDROOT
BRANCH   1   8
ATOM      6  C   UNL     1       2.958   3.922  20.132  0.00  0.00    +0.000 A 
ATOM      7  C   UNL     1       2.374   5.182  19.918  0.00  0.00    +0.000 A 
ATOM      8  C   UNL     1       3.052   6.143  19.149  0.00  0.00    +0.000 A 
ATOM      9  C   UNL     1       4.311   5.812  18.611  0.00  0.00    +0.000 A 
ATOM     10  C   UNL     1       4.865   4.551  18.833  0.00  0.00    +0.000 A 
ATOM     11  C   UNL     1       4.191   3.596  19.591  0.00  0.00    +0.000 A 
BRANCH   6  13
ATOM     12  O   UNL     1       1.146   2.571  20.476  0.00  0.00    +0.000 OA
ATOM     13  N   UNL     1       2.229   2.960  20.931  0.00  0.00    +0.000 N 
ATOM     14  O   UNL     1       2.697   2.669  22.040  0.00  0.00    +0.000 OA
ENDBRANCH   6  13
BRANCH  10  15
ATOM     15  O   UNL     1       6.079   4.200  18.309  0.00  0.00    +0.000 OA
ATOM     16  H   UNL     1       6.782   4.634  18.825  0.00  0.00    +0.000 HD
ENDBRANCH  10  15
BRANCH  11  17
ATOM     17  O   UNL     1       4.761   2.366  19.750  0.00  0.00    +0.000 OA
ATOM     18  H   UNL     1       4.068   1.799  20.145  0.00  0.00    +0.000 HD
ENDBRANCH  11  17
ENDBRANCH   1   8
BRANCH   3  19
ATOM     19  C   UNL     1       0.670  10.635  19.045  0.00  0.00    +0.000 A 
ATOM     20  C   UNL     1       1.228  11.572  19.919  0.00  0.00    +0.000 A 
ATOM     21  N   UNL     1       0.674  12.764  20.243  0.00  0.00    +0.000 NA
ATOM     22  C   UNL     1      -0.497  13.063  19.656  0.00  0.00    +0.000 A 
ATOM     23  C   UNL     1      -1.145  12.206  18.786  0.00  0.00    +0.000 A 
ATOM     24  C   UNL     1      -0.576  10.951  18.479  0.00  0.00    +0.000 A 
BRANCH  24  25
ATOM     25  C   UNL     1      -1.393  10.059  17.575  0.00  0.00    +0.000 C 
ATOM     26  F   UNL     1      -0.749   9.029  16.975  0.00  0.00    +0.000 F 
ATOM     27  F   UNL     1      -2.407   9.461  18.274  0.00  0.00    +0.000 F 
ATOM     28  F   UNL     1      -2.014  10.761  16.586  0.00  0.00    +0.000 F 
ENDBRANCH  24  25
ENDBRANCH   3  19
TORSDOF 6
ENDMDL
MODEL 8
REMARK VINA RESULT:      -7.9      5.755      9.116
REMARK  Name = 
REMARK  6 active torsions:
REMARK  status: ('A' for Active; 'I' for Inactive)
REMARK    1  A    between atoms: N_2  and  C_4
REMARK    2  A    between atoms: C_6  and  C_7
REMARK    3  A    between atoms: C_9  and  C_10
REMARK    4  A    between atoms: C_15  and  C_16
REMARK    5  A    between atoms: C_23  and  O_24
REMARK    6  A    between atoms: C_25  and  O_26
REMARK                            x       y       z     vdW  Elec       q    Type
REMARK                         _______ _______ _______ _____ _____    ______ ____
ROOT
ATOM      1  C   UNL     1       1.908   8.297  19.150  0.00  0.00    +0.000 A 
ATOM      2  C   UNL     1       2.561   7.970  17.984  0.00  0.00    +0.000 A 
ATOM      3  C   UNL     1       3.236   6.748  18.263  0.00  0.00    +0.000 A 
ATOM      4  N   UNL     1       3.053   6.406  19.545  0.00  0.00    +0.000 NA
ATOM      5  O   UNL     1       2.200   7.345  20.081  0.00  0.00    +0.000 OA
ENDROOT
BRANCH   1   8
ATOM      6  C   UNL     1      -0.200  10.551  21.318  0.00  0.00    +0.000 A 
ATOM      7  C   UNL     1       0.638   9.495  20.922  0.00  0.00    +0.000 A 
ATOM      8  C   UNL     1       1.029   9.382  19.578  0.00  0.00    +0.000 A 
ATOM      9  C   UNL     1       0.563  10.339  18.655  0.00  0.00    +0.000 A 
ATOM     10  C   UNL     1      -0.263  11.382  19.076  0.00  0.00    +0.000 A 
ATOM     11  C   UNL     1      -0.646  11.498  20.410  0.00  0.00    +0.000 A 
BRANCH   6  13
ATOM     12  O   UNL     1       0.175  10.087  23.525  0.00  0.00    +0.000 OA
ATOM     13  N   UNL     1      -0.582  10.633  22.712  0.00  0.00    +0.000 N 
ATOM     14  O   UNL     1      -1.670  11.159  22.975  0.00  0.00    +0.000 OA
ENDBRANCH   6  13
BRANCH  10  15
ATOM     15  O   UNL     1      -0.716  12.332  18.203  0.00  0.00    +0.000 OA
ATOM     16  H   UNL     1      -1.428  11.948  17.661  0.00  0.00    +0.000 HD
ENDBRANCH  10  15
BRANCH  11  17
ATOM     17  O   UNL     1      -1.428  12.555  20.776  0.00  0.00    +0.000 OA
ATOM     18  H   UNL     1      -0.824  13.322  20.848  0.00  0.00    +0.000 HD
ENDBRANCH  11  17
ENDBRANCH   1   8
BRANCH   3  19
ATOM     19  C   UNL     1       4.094   5.973  17.375  0.00  0.00    +0.000 A 
ATOM     20  C   UNL     1       5.194   6.617  16.802  0.00  0.00    +0.000 A 
ATOM     21  N   UNL     1       6.111   6.029  15.998  0.00  0.00    +0.000 NA
ATOM     22  C   UNL     1       5.946   4.719  15.755  0.00  0.00    +0.000 A 
ATOM     23  C   UNL     1       4.888   3.984  16.258  0.00  0.00    +0.000 A 
ATOM     24  C   UNL     1       3.918   4.613  17.069  0.00  0.00    +0.000 A 
BRANCH  24  25
ATOM     25  C   UNL     1       2.764   3.745  17.512  0.00  0.00    +0.000 C 
ATOM     26  F   UNL     1       1.514   4.236  17.330  0.00  0.00    +0.000 F 
ATOM     27  F   UNL     1       2.763   2.558  16.830  0.00  0.00    +0.000 F 
ATOM     28  F   UNL     1       2.861   3.395  18.826  0.00  0.00    +0.000 F 
ENDBRANCH  24  25
ENDBRANCH   3  19
TORSDOF 6
ENDMDL
MODEL 9
REMARK VINA RESULT:      -7.9      6.279      8.782
REMARK  Name = 
REMARK  6 active torsions:
REMARK  status: ('A' for Active; 'I' for Inactive)
REMARK    1  A    between atoms: N_2  and  C_4
REMARK    2  A    between atoms: C_6  and  C_7
REMARK    3  A    between atoms: C_9  and  C_10
REMARK    4  A    between atoms: C_15  and  C_16
REMARK    5  A    between atoms: C_23  and  O_24
REMARK    6  A    between atoms: C_25  and  O_26
REMARK                            x       y       z     vdW  Elec       q    Type
REMARK                         _______ _______ _______ _____ _____    ______ ____
ROOT
ATOM      1  C   UNL     1       1.464   8.880  18.820  0.00  0.00    +0.000 A 
ATOM      2  C   UNL     1       2.154   8.256  17.806  0.00  0.00    +0.000 A 
ATOM      3  C   UNL     1       2.755   7.115  18.410  0.00  0.00    +0.000 A 
ATOM      4  N   UNL     1       2.494   7.101  19.723  0.00  0.00    +0.000 NA
ATOM      5  O   UNL     1       1.665   8.173  19.968  0.00  0.00    +0.000 OA
ENDROOT
BRANCH   1   8
ATOM      6  C   UNL     1      -1.370  11.312  18.294  0.00  0.00    +0.000 A 
ATOM      7  C   UNL     1      -0.565  10.167  18.175  0.00  0.00    +0.000 A 
ATOM      8  C   UNL     1       0.620  10.067  18.922  0.00  0.00    +0.000 A 
ATOM      9  C   UNL     1       0.971  11.131  19.777  0.00  0.00    +0.000 A 
ATOM     10  C   UNL     1       0.150  12.254  19.882  0.00  0.00    +0.000 A 
ATOM     11  C   UNL     1      -1.028  12.350  19.145  0.00  0.00    +0.000 A 
BRANCH   6  13
ATOM     12  O   UNL     1      -3.641  11.520  18.131  0.00  0.00    +0.000 OA
ATOM     13  N   UNL     1      -2.583  11.378  17.506  0.00  0.00    +0.000 N 
ATOM     14  O   UNL     1      -2.480  11.201  16.285  0.00  0.00    +0.000 OA
ENDBRANCH   6  13
BRANCH  10  15
ATOM     15  O   UNL     1       0.461  13.292  20.716  0.00  0.00    +0.000 OA
ATOM     16  H   UNL     1       0.349  14.130  20.231  0.00  0.00    +0.000 HD
ENDBRANCH  10  15
BRANCH  11  17
ATOM     17  O   UNL     1      -1.813  13.455  19.309  0.00  0.00    +0.000 OA
ATOM     18  H   UNL     1      -1.903  13.578  20.276  0.00  0.00    +0.000 HD
ENDBRANCH  11  17
ENDBRANCH   1   8
BRANCH   3  19
ATOM     19  C   UNL     1       3.614   6.117  17.785  0.00  0.00    +0.000 A 
ATOM     20  C   UNL     1       4.884   6.520  17.362  0.00  0.00    +0.000 A 
ATOM     21  N   UNL     1       5.816   5.708  16.810  0.00  0.00    +0.000 NA
ATOM     22  C   UNL     1       5.486   4.413  16.681  0.00  0.00    +0.000 A 
ATOM     23  C   UNL     1       4.255   3.906  17.054  0.00  0.00    +0.000 A 
ATOM     24  C   UNL     1       3.277   4.766  17.598  0.00  0.00    +0.000 A 
BRANCH  24  25
ATOM     25  C   UNL     1       1.941   4.133  17.909  0.00  0.00    +0.000 C 
ATOM     26  F   UNL     1       1.514   4.187  19.194  0.00  0.00    +0.000 F 
ATOM     27  F   UNL     1       0.941   4.741  17.197  0.00  0.00    +0.000 F 
ATOM     28  F   UNL     1       1.894   2.824  17.535  0.00  0.00    +0.000 F 
ENDBRANCH  24  25
ENDBRANCH   3  19
TORSDOF 6
ENDMDL
