MODEL 1
REMARK VINA RESULT:      -7.9      0.000      0.000
REMARK  Name = 
REMARK  7 active torsions:
REMARK  status: ('A' for Active; 'I' for Inactive)
REMARK    1  A    between atoms: C_1  and  C_2
REMARK    2  A    between atoms: C_2  and  N_3
REMARK    3  A    between atoms: C_2  and  C_20
REMARK    4  A    between atoms: N_6  and  C_7
REMARK    5  A    between atoms: C_7  and  C_8
REMARK    6  A    between atoms: C_8  and  C_9
REMARK    7  A    between atoms: N_24  and  C_25
REMARK                            x       y       z     vdW  Elec       q    Type
REMARK                         _______ _______ _______ _____ _____    ______ ____
ROOT
ATOM      1  N   UNL     1       1.135   9.936  20.042  0.00  0.00    +0.000 N 
ATOM      2  C   UNL     1       1.299   9.154  18.933  0.00  0.00    +0.000 C 
ATOM      3  O   UNL     1       0.888   9.453  17.819  0.00  0.00    +0.000 OA
ATOM      4  N   UNL     1       2.007   8.015  19.210  0.00  0.00    +0.000 N 
ATOM      5  H   UNL     1       1.141   9.474  20.943  0.00  0.00    +0.000 HD
ATOM      6  H   UNL     1       2.556   8.053  20.055  0.00  0.00    +0.000 HD
ENDROOT
BRANCH   1   8
ATOM      7  C   UNL     1       1.358  12.356  19.751  0.00  0.00    +0.000 C 
ATOM      8  C   UNL     1       0.401  11.190  19.976  0.00  0.00    +0.000 C 
BRANCH   8   9
ATOM      9  C   UNL     1      -0.356  11.338  21.257  0.00  0.00    +0.000 A 
ATOM     10  N   UNL     1      -0.022  10.836  22.432  0.00  0.00    +0.000 NA
ATOM     11  N   UNL     1      -1.003  11.168  23.336  0.00  0.00    +0.000 NA
ATOM     12  C   UNL     1      -1.918  11.856  22.695  0.00  0.00    +0.000 A 
ATOM     13  N   UNL     1      -1.553  11.995  21.392  0.00  0.00    +0.000 N 
ATOM     14  C   UNL     1      -2.294  12.688  20.373  0.00  0.00    +0.000 C 
ENDBRANCH   8   9
ENDBRANCH   1   8
BRANCH   4  15
ATOM     15  C   UNL     1       2.451   7.150  18.120  0.00  0.00    +0.000 C 
BRANCH  15  16
ATOM     16  C   UNL     1       2.633   5.652  18.481  0.00  0.00    +0.000 C 
ATOM     17  C   UNL     1       2.189   5.347  19.938  0.00  0.00    +0.000 C 
ATOM     18  C   UNL     1       1.967   3.838  19.968  0.00  0.00    +0.000 C 
ATOM     19  C   UNL     1       1.515   3.467  18.559  0.00  0.00    +0.000 C 
ATOM     20  C   UNL     1       1.626   4.744  17.726  0.00  0.00    +0.000 C 
BRANCH  16  21
ATOM     21  C   UNL     1       4.116   5.271  18.217  0.00  0.00    +0.000 A 
ATOM     22  C   UNL     1       4.521   4.687  17.000  0.00  0.00    +0.000 A 
ATOM     23  C   UNL     1       5.861   4.361  16.756  0.00  0.00    +0.000 A 
ATOM     24  C   UNL     1       6.814   4.590  17.735  0.00  0.00    +0.000 A 
ATOM     25  F   UNL     1       8.096   4.283  17.500  0.00  0.00    +0.000 F 
ATOM     26  C   UNL     1       6.448   5.122  18.962  0.00  0.00    +0.000 A 
ATOM     27  C   UNL     1       5.108   5.446  19.204  0.00  0.00    +0.000 A 
ENDBRANCH  16  21
ENDBRANCH  15  16
ENDBRANCH   4  15
TORSDOF 5
ENDMDL
MODEL 2
REMARK VINA RESULT:      -7.7      0.399      1.041
REMARK  Name = 
REMARK  7 active torsions:
REMARK  status: ('A' for Active; 'I' for Inactive)
REMARK    1  A    between atoms: C_1  and  C_2
REMARK    2  A    between atoms: C_2  and  N_3
REMARK    3  A    between atoms: C_2  and  C_20
REMARK    4  A    between atoms: N_6  and  C_7
REMARK    5  A    between atoms: C_7  and  C_8
REMARK    6  A    between atoms: C_8  and  C_9
REMARK    7  A    between atoms: N_24  and  C_25
REMARK                            x       y       z     vdW  Elec       q    Type
REMARK                         _______ _______ _______ _____ _____    ______ ____
ROOT
ATOM      1  N   UNL     1       1.306  10.307  19.602  0.00  0.00    +0.000 N 
ATOM      2  C   UNL     1       1.274   9.331  18.646  0.00  0.00    +0.000 C 
ATOM      3  O   UNL     1       0.547   9.362  17.662  0.00  0.00    +0.000 OA
ATOM      4  N   UNL     1       2.175   8.332  18.904  0.00  0.00    +0.000 N 
ATOM      5  H   UNL     1       1.612  10.041  20.530  0.00  0.00    +0.000 HD
ATOM      6  H   UNL     1       2.918   8.586  19.537  0.00  0.00    +0.000 HD
ENDROOT
BRANCH   1   8
ATOM      7  C   UNL     1       1.206  12.712  19.158  0.00  0.00    +0.000 C 
ATOM      8  C   UNL     1       0.421  11.459  19.531  0.00  0.00    +0.000 C 
BRANCH   8   9
ATOM      9  C   UNL     1      -0.243  11.601  20.863  0.00  0.00    +0.000 A 
ATOM     10  N   UNL     1       0.284  11.316  22.040  0.00  0.00    +0.000 NA
ATOM     11  N   UNL     1      -0.669  11.549  23.004  0.00  0.00    +0.000 NA
ATOM     12  C   UNL     1      -1.757  11.960  22.398  0.00  0.00    +0.000 A 
ATOM     13  N   UNL     1      -1.536  12.017  21.057  0.00  0.00    +0.000 N 
ATOM     14  C   UNL     1      -2.487  12.423  20.058  0.00  0.00    +0.000 C 
ENDBRANCH   8   9
ENDBRANCH   1   8
BRANCH   4  15
ATOM     15  C   UNL     1       2.426   7.301  17.901  0.00  0.00    +0.000 C 
BRANCH  15  16
ATOM     16  C   UNL     1       2.602   5.859  18.446  0.00  0.00    +0.000 C 
ATOM     17  C   UNL     1       2.190   5.749  19.940  0.00  0.00    +0.000 C 
ATOM     18  C   UNL     1       1.953   4.260  20.169  0.00  0.00    +0.000 C 
ATOM     19  C   UNL     1       1.463   3.717  18.830  0.00  0.00    +0.000 C 
ATOM     20  C   UNL     1       1.567   4.876  17.837  0.00  0.00    +0.000 C 
BRANCH  16  21
ATOM     21  C   UNL     1       4.073   5.428  18.200  0.00  0.00    +0.000 A 
ATOM     22  C   UNL     1       5.083   5.680  19.150  0.00  0.00    +0.000 A 
ATOM     23  C   UNL     1       6.406   5.274  18.936  0.00  0.00    +0.000 A 
ATOM     24  C   UNL     1       6.747   4.634  17.757  0.00  0.00    +0.000 A 
ATOM     25  F   UNL     1       8.011   4.241  17.554  0.00  0.00    +0.000 F 
ATOM     26  C   UNL     1       5.791   4.407  16.778  0.00  0.00    +0.000 A 
ATOM     27  C   UNL     1       4.470   4.814  16.994  0.00  0.00    +0.000 A 
ENDBRANCH  16  21
ENDBRANCH  15  16
ENDBRANCH   4  15
TORSDOF 5
ENDMDL
MODEL 3
REMARK VINA RESULT:      -7.5      1.886      3.378
REMARK  Name = 
REMARK  7 active torsions:
REMARK  status: ('A' for Active; 'I' for Inactive)
REMARK    1  A    between atoms: C_1  and  C_2
REMARK    2  A    between atoms: C_2  and  N_3
REMARK    3  A    between atoms: C_2  and  C_20
REMARK    4  A    between atoms: N_6  and  C_7
REMARK    5  A    between atoms: C_7  and  C_8
REMARK    6  A    between atoms: C_8  and  C_9
REMARK    7  A    between atoms: N_24  and  C_25
REMARK                            x       y       z     vdW  Elec       q    Type
REMARK                         _______ _______ _______ _____ _____    ______ ____
ROOT
ATOM      1  N   UNL     1       1.347   9.318  19.572  0.00  0.00    +0.000 N 
ATOM      2  C   UNL     1       1.980   8.955  18.417  0.00  0.00    +0.000 C 
ATOM      3  O   UNL     1       1.960   9.619  17.389  0.00  0.00    +0.000 OA
ATOM      4  N   UNL     1       2.667   7.778  18.557  0.00  0.00    +0.000 N 
ATOM      5  H   UNL     1       1.084   8.579  20.213  0.00  0.00    +0.000 HD
ATOM      6  H   UNL     1       2.872   7.520  19.510  0.00  0.00    +0.000 HD
ENDROOT
BRANCH   1   8
ATOM      7  C   UNL     1       1.374  11.739  19.209  0.00  0.00    +0.000 C 
ATOM      8  C   UNL     1       0.549  10.532  19.643  0.00  0.00    +0.000 C 
BRANCH   8   9
ATOM      9  C   UNL     1       0.065  10.673  21.051  0.00  0.00    +0.000 A 
ATOM     10  N   UNL     1       0.588  10.107  22.124  0.00  0.00    +0.000 NA
ATOM     11  N   UNL     1      -0.177  10.459  23.211  0.00  0.00    +0.000 NA
ATOM     12  C   UNL     1      -1.153  11.222  22.780  0.00  0.00    +0.000 A 
ATOM     13  N   UNL     1      -1.039  11.391  21.435  0.00  0.00    +0.000 N 
ATOM     14  C   UNL     1      -1.918  12.164  20.600  0.00  0.00    +0.000 C 
ENDBRANCH   8   9
ENDBRANCH   1   8
BRANCH   4  15
ATOM     15  C   UNL     1       3.562   7.326  17.496  0.00  0.00    +0.000 C 
BRANCH  15  16
ATOM     16  C   UNL     1       4.202   5.928  17.705  0.00  0.00    +0.000 C 
ATOM     17  C   UNL     1       4.606   5.268  16.358  0.00  0.00    +0.000 C 
ATOM     18  C   UNL     1       5.618   4.193  16.741  0.00  0.00    +0.000 C 
ATOM     19  C   UNL     1       6.326   4.726  17.983  0.00  0.00    +0.000 C 
ATOM     20  C   UNL     1       5.606   6.022  18.359  0.00  0.00    +0.000 C 
BRANCH  16  21
ATOM     21  C   UNL     1       3.205   5.060  18.519  0.00  0.00    +0.000 A 
ATOM     22  C   UNL     1       3.330   4.908  19.915  0.00  0.00    +0.000 A 
ATOM     23  C   UNL     1       2.420   4.140  20.652  0.00  0.00    +0.000 A 
ATOM     24  C   UNL     1       1.384   3.489  20.001  0.00  0.00    +0.000 A 
ATOM     25  F   UNL     1       0.511   2.759  20.706  0.00  0.00    +0.000 F 
ATOM     26  C   UNL     1       1.254   3.577  18.623  0.00  0.00    +0.000 A 
ATOM     27  C   UNL     1       2.165   4.345  17.890  0.00  0.00    +0.000 A 
ENDBRANCH  16  21
ENDBRANCH  15  16
ENDBRANCH   4  15
TORSDOF 5
ENDMDL
MODEL 4
REMARK VINA RESULT:      -7.5      3.811      8.521
REMARK  Name = 
REMARK  7 active torsions:
REMARK  status: ('A' for Active; 'I' for Inactive)
REMARK    1  A    between atoms: C_1  and  C_2
REMARK    2  A    between atoms: C_2  and  N_3
REMARK    3  A    between atoms: C_2  and  C_20
REMARK    4  A    between atoms: N_6  and  C_7
REMARK    5  A    between atoms: C_7  and  C_8
REMARK    6  A    between atoms: C_8  and  C_9
REMARK    7  A    between atoms: N_24  and  C_25
REMARK                            x       y       z     vdW  Elec       q    Type
REMARK                         _______ _______ _______ _____ _____    ______ ____
ROOT
ATOM      1  N   UNL     1       3.564   5.398  19.878  0.00  0.00    +0.000 N 
ATOM      2  C   UNL     1       2.850   6.375  19.245  0.00  0.00    +0.000 C 
ATOM      3  O   UNL     1       2.586   6.364  18.050  0.00  0.00    +0.000 OA
ATOM      4  N   UNL     1       2.435   7.350  20.113  0.00  0.00    +0.000 N 
ATOM      5  H   UNL     1       4.059   5.655  20.724  0.00  0.00    +0.000 HD
ATOM      6  H   UNL     1       2.428   7.077  21.084  0.00  0.00    +0.000 HD
ENDROOT
BRANCH   1   8
ATOM      7  C   UNL     1       3.964   2.984  19.950  0.00  0.00    +0.000 C 
ATOM      8  C   UNL     1       4.111   4.269  19.142  0.00  0.00    +0.000 C 
BRANCH   8   9
ATOM      9  C   UNL     1       5.545   4.574  18.848  0.00  0.00    +0.000 A 
ATOM     10  N   UNL     1       6.444   5.034  19.700  0.00  0.00    +0.000 NA
ATOM     11  N   UNL     1       7.626   5.216  19.021  0.00  0.00    +0.000 NA
ATOM     12  C   UNL     1       7.423   4.874  17.771  0.00  0.00    +0.000 A 
ATOM     13  N   UNL     1       6.138   4.458  17.616  0.00  0.00    +0.000 N 
ATOM     14  C   UNL     1       5.536   4.001  16.392  0.00  0.00    +0.000 C 
ENDBRANCH   8   9
ENDBRANCH   1   8
BRANCH   4  15
ATOM     15  C   UNL     1       1.497   8.375  19.663  0.00  0.00    +0.000 C 
BRANCH  15  16
ATOM     16  C   UNL     1       0.763   9.156  20.785  0.00  0.00    +0.000 C 
ATOM     17  C   UNL     1      -0.457   8.369  21.338  0.00  0.00    +0.000 C 
ATOM     18  C   UNL     1      -0.748   9.005  22.693  0.00  0.00    +0.000 C 
ATOM     19  C   UNL     1       0.604   9.484  23.214  0.00  0.00    +0.000 C 
ATOM     20  C   UNL     1       1.606   9.239  22.085  0.00  0.00    +0.000 C 
BRANCH  16  21
ATOM     21  C   UNL     1       0.369  10.549  20.223  0.00  0.00    +0.000 A 
ATOM     22  C   UNL     1      -0.784  10.725  19.432  0.00  0.00    +0.000 A 
ATOM     23  C   UNL     1      -1.149  11.985  18.941  0.00  0.00    +0.000 A 
ATOM     24  C   UNL     1      -0.352  13.085  19.209  0.00  0.00    +0.000 A 
ATOM     25  F   UNL     1      -0.703  14.291  18.744  0.00  0.00    +0.000 F 
ATOM     26  C   UNL     1       0.815  12.945  19.946  0.00  0.00    +0.000 A 
ATOM     27  C   UNL     1       1.177  11.686  20.436  0.00  0.00    +0.000 A 
ENDBRANCH  16  21
ENDBRANCH  15  16
ENDBRANCH   4  15
TORSDOF 5
ENDMDL
MODEL 5
REMARK VINA RESULT:      -7.4      2.110      2.877
REMARK  Name = 
REMARK  7 active torsions:
REMARK  status: ('A' for Active; 'I' for Inactive)
REMARK    1  A    between atoms: C_1  and  C_2
REMARK    2  A    between atoms: C_2  and  N_3
REMARK    3  A    between atoms: C_2  and  C_20
REMARK    4  A    between atoms: N_6  and  C_7
REMARK    5  A    between atoms: C_7  and  C_8
REMARK    6  A    between atoms: C_8  and  C_9
REMARK    7  A    between atoms: N_24  and  C_25
REMARK                            x       y       z     vdW  Elec       q    Type
REMARK                         _______ _______ _______ _____ _____    ______ ____
ROOT
ATOM      1  N   UNL     1       1.345   9.222  19.306  0.00  0.00    +0.000 N 
ATOM      2  C   UNL     1       1.592   8.110  20.061  0.00  0.00    +0.000 C 
ATOM      3  O   UNL     1       1.229   7.977  21.222  0.00  0.00    +0.000 OA
ATOM      4  N   UNL     1       2.262   7.149  19.352  0.00  0.00    +0.000 N 
ATOM      5  H   UNL     1       1.979   9.418  18.542  0.00  0.00    +0.000 HD
ATOM      6  H   UNL     1       2.203   7.244  18.350  0.00  0.00    +0.000 HD
ENDROOT
BRANCH   1   8
ATOM      7  C   UNL     1      -0.815  10.364  19.451  0.00  0.00    +0.000 C 
ATOM      8  C   UNL     1       0.652  10.372  19.866  0.00  0.00    +0.000 C 
BRANCH   8   9
ATOM      9  C   UNL     1       1.355  11.601  19.385  0.00  0.00    +0.000 A 
ATOM     10  N   UNL     1       2.131  11.699  18.320  0.00  0.00    +0.000 NA
ATOM     11  N   UNL     1       2.610  12.986  18.255  0.00  0.00    +0.000 NA
ATOM     12  C   UNL     1       2.128  13.643  19.283  0.00  0.00    +0.000 A 
ATOM     13  N   UNL     1       1.329  12.820  20.015  0.00  0.00    +0.000 N 
ATOM     14  C   UNL     1       0.618  13.174  21.213  0.00  0.00    +0.000 C 
ENDBRANCH   8   9
ENDBRANCH   1   8
BRANCH   4  15
ATOM     15  C   UNL     1       2.446   5.817  19.922  0.00  0.00    +0.000 C 
BRANCH  15  16
ATOM     16  C   UNL     1       3.067   4.757  18.974  0.00  0.00    +0.000 C 
ATOM     17  C   UNL     1       3.277   3.393  19.687  0.00  0.00    +0.000 C 
ATOM     18  C   UNL     1       3.411   2.381  18.555  0.00  0.00    +0.000 C 
ATOM     19  C   UNL     1       2.555   2.929  17.417  0.00  0.00    +0.000 C 
ATOM     20  C   UNL     1       2.070   4.305  17.875  0.00  0.00    +0.000 C 
BRANCH  16  21
ATOM     21  C   UNL     1       4.387   5.340  18.400  0.00  0.00    +0.000 A 
ATOM     22  C   UNL     1       5.592   5.291  19.129  0.00  0.00    +0.000 A 
ATOM     23  C   UNL     1       6.786   5.799  18.604  0.00  0.00    +0.000 A 
ATOM     24  C   UNL     1       6.790   6.390  17.351  0.00  0.00    +0.000 A 
ATOM     25  F   UNL     1       7.933   6.872  16.846  0.00  0.00    +0.000 F 
ATOM     26  C   UNL     1       5.615   6.499  16.622  0.00  0.00    +0.000 A 
ATOM     27  C   UNL     1       4.424   5.990  17.149  0.00  0.00    +0.000 A 
ENDBRANCH  16  21
ENDBRANCH  15  16
ENDBRANCH   4  15
TORSDOF 5
ENDMDL
MODEL 6
REMARK VINA RESULT:      -7.4      1.985      2.847
REMARK  Name = 
REMARK  7 active torsions:
REMARK  status: ('A' for Active; 'I' for Inactive)
REMARK    1  A    between atoms: C_1  and  C_2
REMARK    2  A    between atoms: C_2  and  N_3
REMARK    3  A    between atoms: C_2  and  C_20
REMARK    4  A    between atoms: N_6  and  C_7
REMARK    5  A    between atoms: C_7  and  C_8
REMARK    6  A    between atoms: C_8  and  C_9
REMARK    7  A    between atoms: N_24  and  C_25
REMARK                            x       y       z     vdW  Elec       q    Type
REMARK                         _______ _______ _______ _____ _____    ______ ____
ROOT
ATOM      1  N   UNL     1       1.294   8.989  18.689  0.00  0.00    +0.000 N 
ATOM      2  C   UNL     1       1.838   8.122  19.594  0.00  0.00    +0.000 C 
ATOM      3  O   UNL     1       1.679   8.209  20.805  0.00  0.00    +0.000 OA
ATOM      4  N   UNL     1       2.552   7.125  18.984  0.00  0.00    +0.000 N 
ATOM      5  H   UNL     1       1.765   9.090  17.798  0.00  0.00    +0.000 HD
ATOM      6  H   UNL     1       2.330   6.981  18.011  0.00  0.00    +0.000 HD
ENDROOT
BRANCH   1   8
ATOM      7  C   UNL     1      -0.785  10.225  18.311  0.00  0.00    +0.000 C 
ATOM      8  C   UNL     1       0.503  10.130  19.122  0.00  0.00    +0.000 C 
BRANCH   8   9
ATOM      9  C   UNL     1       1.348  11.353  18.959  0.00  0.00    +0.000 A 
ATOM     10  N   UNL     1       2.241  11.573  18.011  0.00  0.00    +0.000 NA
ATOM     11  N   UNL     1       2.824  12.796  18.245  0.00  0.00    +0.000 NA
ATOM     12  C   UNL     1       2.285  13.292  19.333  0.00  0.00    +0.000 A 
ATOM     13  N   UNL     1       1.349  12.428  19.811  0.00  0.00    +0.000 N 
ATOM     14  C   UNL     1       0.541  12.619  20.985  0.00  0.00    +0.000 C 
ENDBRANCH   8   9
ENDBRANCH   1   8
BRANCH   4  15
ATOM     15  C   UNL     1       3.046   5.997  19.768  0.00  0.00    +0.000 C 
BRANCH  15  16
ATOM     16  C   UNL     1       3.075   4.629  19.037  0.00  0.00    +0.000 C 
ATOM     17  C   UNL     1       3.045   3.437  20.033  0.00  0.00    +0.000 C 
ATOM     18  C   UNL     1       2.594   2.244  19.196  0.00  0.00    +0.000 C 
ATOM     19  C   UNL     1       1.683   2.826  18.119  0.00  0.00    +0.000 C 
ATOM     20  C   UNL     1       1.751   4.345  18.279  0.00  0.00    +0.000 C 
BRANCH  16  21
ATOM     21  C   UNL     1       4.324   4.604  18.115  0.00  0.00    +0.000 A 
ATOM     22  C   UNL     1       5.631   4.638  18.643  0.00  0.00    +0.000 A 
ATOM     23  C   UNL     1       6.757   4.597  17.812  0.00  0.00    +0.000 A 
ATOM     24  C   UNL     1       6.596   4.548  16.437  0.00  0.00    +0.000 A 
ATOM     25  F   UNL     1       7.673   4.503  15.642  0.00  0.00    +0.000 F 
ATOM     26  C   UNL     1       5.328   4.558  15.877  0.00  0.00    +0.000 A 
ATOM     27  C   UNL     1       4.204   4.600  16.709  0.00  0.00    +0.000 A 
ENDBRANCH  16  21
ENDBRANCH  15  16
ENDBRANCH   4  15
TORSDOF 5
ENDMDL
MODEL 7
REMARK VINA RESULT:      -7.4      2.472      3.955
REMARK  Name = 
REMARK  7 active torsions:
REMARK  status: ('A' for Active; 'I' for Inactive)
REMARK    1  A    between atoms: C_1  and  C_2
REMARK    2  A    between atoms: C_2  and  N_3
REMARK    3  A    between atoms: C_2  and  C_20
REMARK    4  A    between atoms: N_6  and  C_7
REMARK    5  A    between atoms: C_7  and  C_8
REMARK    6  A    between atoms: C_8  and  C_9
REMARK    7  A    between atoms: N_24  and  C_25
REMARK                            x       y       z     vdW  Elec       q    Type
REMARK                         _______ _______ _______ _____ _____    ______ ____
ROOT
ATOM      1  N   UNL     1       1.166   9.305  19.385  0.00  0.00    +0.000 N 
ATOM      2  C   UNL     1       2.018   9.082  18.340  0.00  0.00    +0.000 C 
ATOM      3  O   UNL     1       2.401   9.954  17.572  0.00  0.00    +0.000 OA
ATOM      4  N   UNL     1       2.419   7.774  18.277  0.00  0.00    +0.000 N 
ATOM      5  H   UNL     1       0.610   8.523  19.710  0.00  0.00    +0.000 HD
ATOM      6  H   UNL     1       2.305   7.255  19.134  0.00  0.00    +0.000 HD
ENDROOT
BRANCH   1   8
ATOM      7  C   UNL     1       0.329  10.817  21.119  0.00  0.00    +0.000 C 
ATOM      8  C   UNL     1       0.608  10.625  19.632  0.00  0.00    +0.000 C 
BRANCH   8   9
ATOM      9  C   UNL     1      -0.639  10.749  18.817  0.00  0.00    +0.000 A 
ATOM     10  N   UNL     1      -1.476   9.775  18.505  0.00  0.00    +0.000 NA
ATOM     11  N   UNL     1      -2.469  10.300  17.712  0.00  0.00    +0.000 NA
ATOM     12  C   UNL     1      -2.215  11.576  17.548  0.00  0.00    +0.000 A 
ATOM     13  N   UNL     1      -1.084  11.906  18.229  0.00  0.00    +0.000 N 
ATOM     14  C   UNL     1      -0.484  13.211  18.295  0.00  0.00    +0.000 C 
ENDBRANCH   8   9
ENDBRANCH   1   8
BRANCH   4  15
ATOM     15  C   UNL     1       3.477   7.380  17.351  0.00  0.00    +0.000 C 
BRANCH  15  16
ATOM     16  C   UNL     1       4.159   6.018  17.647  0.00  0.00    +0.000 C 
ATOM     17  C   UNL     1       4.624   5.307  16.346  0.00  0.00    +0.000 C 
ATOM     18  C   UNL     1       5.661   4.290  16.810  0.00  0.00    +0.000 C 
ATOM     19  C   UNL     1       6.315   4.910  18.042  0.00  0.00    +0.000 C 
ATOM     20  C   UNL     1       5.539   6.195  18.333  0.00  0.00    +0.000 C 
BRANCH  16  21
ATOM     21  C   UNL     1       3.170   5.156  18.477  0.00  0.00    +0.000 A 
ATOM     22  C   UNL     1       3.257   5.082  19.882  0.00  0.00    +0.000 A 
ATOM     23  C   UNL     1       2.354   4.319  20.632  0.00  0.00    +0.000 A 
ATOM     24  C   UNL     1       1.364   3.595  19.988  0.00  0.00    +0.000 A 
ATOM     25  F   UNL     1       0.497   2.870  20.705  0.00  0.00    +0.000 F 
ATOM     26  C   UNL     1       1.273   3.607  18.604  0.00  0.00    +0.000 A 
ATOM     27  C   UNL     1       2.177   4.369  17.857  0.00  0.00    +0.000 A 
ENDBRANCH  16  21
ENDBRANCH  15  16
ENDBRANCH   4  15
TORSDOF 5
ENDMDL
MODEL 8
REMARK VINA RESULT:      -7.4      2.124      2.761
REMARK  Name = 
REMARK  7 active torsions:
REMARK  status: ('A' for Active; 'I' for Inactive)
REMARK    1  A    between atoms: C_1  and  C_2
REMARK    2  A    between atoms: C_2  and  N_3
REMARK    3  A    between atoms: C_2  and  C_20
REMARK    4  A    between atoms: N_6  and  C_7
REMARK    5  A    between atoms: C_7  and  C_8
REMARK    6  A    between atoms: C_8  and  C_9
REMARK    7  A    between atoms: N_24  and  C_25
REMARK                            x       y       z     vdW  Elec       q    Type
REMARK                         _______ _______ _______ _____ _____    ______ ____
ROOT
ATOM      1  N   UNL     1       1.188   9.573  19.074  0.00  0.00    +0.000 N 
ATOM      2  C   UNL     1       1.488   8.526  19.900  0.00  0.00    +0.000 C 
ATOM      3  O   UNL     1       1.202   8.491  21.090  0.00  0.00    +0.000 OA
ATOM      4  N   UNL     1       2.114   7.508  19.230  0.00  0.00    +0.000 N 
ATOM      5  H   UNL     1       1.771   9.703  18.256  0.00  0.00    +0.000 HD
ATOM      6  H   UNL     1       1.988   7.521  18.230  0.00  0.00    +0.000 HD
ENDROOT
BRANCH   1   8
ATOM      7  C   UNL     1      -0.856  10.914  18.963  0.00  0.00    +0.000 C 
ATOM      8  C   UNL     1       0.530  10.767  19.581  0.00  0.00    +0.000 C 
BRANCH   8   9
ATOM      9  C   UNL     1       1.405  11.936  19.258  0.00  0.00    +0.000 A 
ATOM     10  N   UNL     1       2.236  12.040  18.237  0.00  0.00    +0.000 NA
ATOM     11  N   UNL     1       2.877  13.253  18.327  0.00  0.00    +0.000 NA
ATOM     12  C   UNL     1       2.433  13.859  19.403  0.00  0.00    +0.000 A 
ATOM     13  N   UNL     1       1.504  13.077  20.015  0.00  0.00    +0.000 N 
ATOM     14  C   UNL     1       0.787  13.396  21.220  0.00  0.00    +0.000 C 
ENDBRANCH   8   9
ENDBRANCH   1   8
BRANCH   4  15
ATOM     15  C   UNL     1       2.339   6.229  19.896  0.00  0.00    +0.000 C 
BRANCH  15  16
ATOM     16  C   UNL     1       2.935   5.104  19.009  0.00  0.00    +0.000 C 
ATOM     17  C   UNL     1       3.062   3.761  19.782  0.00  0.00    +0.000 C 
ATOM     18  C   UNL     1       3.180   2.698  18.695  0.00  0.00    +0.000 C 
ATOM     19  C   UNL     1       2.382   3.237  17.512  0.00  0.00    +0.000 C 
ATOM     20  C   UNL     1       1.949   4.652  17.900  0.00  0.00    +0.000 C 
BRANCH  16  21
ATOM     21  C   UNL     1       4.296   5.602  18.452  0.00  0.00    +0.000 A 
ATOM     22  C   UNL     1       4.382   6.291  17.225  0.00  0.00    +0.000 A 
ATOM     23  C   UNL     1       5.607   6.756  16.732  0.00  0.00    +0.000 A 
ATOM     24  C   UNL     1       6.771   6.517  17.444  0.00  0.00    +0.000 A 
ATOM     25  F   UNL     1       7.942   6.967  16.975  0.00  0.00    +0.000 F 
ATOM     26  C   UNL     1       6.734   5.804  18.633  0.00  0.00    +0.000 A 
ATOM     27  C   UNL     1       5.509   5.339  19.123  0.00  0.00    +0.000 A 
ENDBRANCH  16  21
ENDBRANCH  15  16
ENDBRANCH   4  15
TORSDOF 5
ENDMDL
MODEL 9
REMARK VINA RESULT:      -7.3      5.090      7.450
REMARK  Name = 
REMARK  7 active torsions:
REMARK  status: ('A' for Active; 'I' for Inactive)
REMARK    1  A    between atoms: C_1  and  C_2
REMARK    2  A    between atoms: C_2  and  N_3
REMARK    3  A    between atoms: C_2  and  C_20
REMARK    4  A    between atoms: N_6  and  C_7
REMARK    5  A    between atoms: C_7  and  C_8
REMARK    6  A    between atoms: C_8  and  C_9
REMARK    7  A    between atoms: N_24  and  C_25
REMARK                            x       y       z     vdW  Elec       q    Type
REMARK                         _______ _______ _______ _____ _____    ______ ____
ROOT
ATOM      1  N   UNL     1       6.607   3.937  18.196  0.00  0.00    +0.000 N 
ATOM      2  C   UNL     1       5.730   4.218  19.205  0.00  0.00    +0.000 C 
ATOM      3  O   UNL     1       5.526   5.344  19.640  0.00  0.00    +0.000 OA
ATOM      4  N   UNL     1       5.081   3.095  19.647  0.00  0.00    +0.000 N 
ATOM      5  H   UNL     1       6.999   3.003  18.165  0.00  0.00    +0.000 HD
ATOM      6  H   UNL     1       5.090   2.321  19.001  0.00  0.00    +0.000 HD
ENDROOT
BRANCH   1   8
ATOM      7  C   UNL     1       7.930   5.946  18.650  0.00  0.00    +0.000 C 
ATOM      8  C   UNL     1       7.412   4.983  17.586  0.00  0.00    +0.000 C 
BRANCH   8   9
ATOM      9  C   UNL     1       6.556   5.682  16.579  0.00  0.00    +0.000 A 
ATOM     10  N   UNL     1       6.080   6.911  16.667  0.00  0.00    +0.000 NA
ATOM     11  N   UNL     1       5.310   7.154  15.554  0.00  0.00    +0.000 NA
ATOM     12  C   UNL     1       5.324   6.070  14.816  0.00  0.00    +0.000 A 
ATOM     13  N   UNL     1       6.098   5.123  15.413  0.00  0.00    +0.000 N 
ATOM     14  C   UNL     1       6.361   3.802  14.909  0.00  0.00    +0.000 C 
ENDBRANCH   8   9
ENDBRANCH   1   8
BRANCH   4  15
ATOM     15  C   UNL     1       3.967   3.219  20.583  0.00  0.00    +0.000 C 
BRANCH  15  16
ATOM     16  C   UNL     1       2.568   3.422  19.944  0.00  0.00    +0.000 C 
ATOM     17  C   UNL     1       2.346   2.486  18.724  0.00  0.00    +0.000 C 
ATOM     18  C   UNL     1       0.834   2.449  18.533  0.00  0.00    +0.000 C 
ATOM     19  C   UNL     1       0.245   2.626  19.930  0.00  0.00    +0.000 C 
ATOM     20  C   UNL     1       1.428   2.901  20.858  0.00  0.00    +0.000 C 
BRANCH  16  21
ATOM     21  C   UNL     1       2.420   4.924  19.578  0.00  0.00    +0.000 A 
ATOM     22  C   UNL     1       2.064   5.886  20.545  0.00  0.00    +0.000 A 
ATOM     23  C   UNL     1       1.949   7.243  20.219  0.00  0.00    +0.000 A 
ATOM     24  C   UNL     1       2.163   7.657  18.915  0.00  0.00    +0.000 A 
ATOM     25  F   UNL     1       2.058   8.956  18.604  0.00  0.00    +0.000 F 
ATOM     26  C   UNL     1       2.472   6.736  17.926  0.00  0.00    +0.000 A 
ATOM     27  C   UNL     1       2.586   5.380  18.254  0.00  0.00    +0.000 A 
ENDBRANCH  16  21
ENDBRANCH  15  16
ENDBRANCH   4  15
TORSDOF 5
ENDMDL
