MODEL 1
REMARK VINA RESULT:      -8.2      0.000      0.000
REMARK  Name = 
REMARK  14 active torsions:
REMARK  status: ('A' for Active; 'I' for Inactive)
REMARK    1  A    between atoms: C_1  and  C_2
REMARK    2  A    between atoms: C_2  and  N_3
REMARK    3  A    between atoms: N_3  and  C_4
REMARK    4  A    between atoms: N_3  and  C_6
REMARK    5  A    between atoms: C_4  and  C_5
REMARK    6  A    between atoms: C_6  and  C_7
REMARK    7  A    between atoms: C_7  and  N_8
REMARK    8  A    between atoms: C_13  and  O_14
REMARK    9  A    between atoms: O_14  and  C_15
REMARK   10  A    between atoms: C_23  and  O_24
REMARK   11  A    between atoms: O_24  and  C_25
REMARK   12  A    between atoms: C_26  and  O_27
REMARK   13  A    between atoms: C_28  and  O_29
REMARK   14  A    between atoms: O_29  and  C_30
REMARK                            x       y       z     vdW  Elec       q    Type
REMARK                         _______ _______ _______ _____ _____    ______ ____
ROOT
ATOM      1  N   UNL     1       5.879   5.358  15.257  0.00  0.00    +0.000 N 
ATOM      2  C   UNL     1       6.772   5.485  16.270  0.00  0.00    +0.000 C 
ATOM      3  O   UNL     1       7.752   6.216  16.191  0.00  0.00    +0.000 OA
ATOM      4  C   UNL     1       5.890   5.123  17.291  0.00  0.00    +0.000 A 
ATOM      5  C   UNL     1       5.887   3.941  17.975  0.00  0.00    +0.000 A 
ATOM      6  C   UNL     1       4.994   3.794  19.002  0.00  0.00    +0.000 A 
ATOM      7  C   UNL     1       4.091   4.814  19.261  0.00  0.00    +0.000 A 
ATOM      8  C   UNL     1       3.923   5.926  18.414  0.00  0.00    +0.000 A 
ATOM      9  C   UNL     1       4.764   5.916  17.227  0.00  0.00    +0.000 A 
ATOM     10  C   UNL     1       4.867   6.661  15.901  0.00  0.00    +0.000 A 
ATOM     11  C   UNL     1       3.996   7.766  16.474  0.00  0.00    +0.000 A 
ATOM     12  C   UNL     1       3.030   7.936  17.818  0.00  0.00    +0.000 A 
ATOM     13  C   UNL     1       2.089   9.097  18.299  0.00  0.00    +0.000 A 
ATOM     14  C   UNL     1       1.196   9.152  19.450  0.00  0.00    +0.000 A 
ATOM     15  C   UNL     1       1.189   8.067  20.303  0.00  0.00    +0.000 A 
ATOM     16  C   UNL     1       2.058   7.000  20.015  0.00  0.00    +0.000 A 
ATOM     17  C   UNL     1       2.980   6.929  18.765  0.00  0.00    +0.000 A 
ENDROOT
BRANCH   6  18
ATOM     18  O   UNL     1       4.967   2.709  19.830  0.00  0.00    +0.000 OA
ATOM     19  C   UNL     1       4.237   1.607  19.299  0.00  0.00    +0.000 C 
ENDBRANCH   6  18
BRANCH  14  20
ATOM     20  O   UNL     1       0.310  10.150  19.811  0.00  0.00    +0.000 OA
ATOM     21  C   UNL     1      -0.830  10.362  18.992  0.00  0.00    +0.000 C 
ENDBRANCH  14  20
BRANCH  15  22
ATOM     22  O   UNL     1       0.373   8.030  21.410  0.00  0.00    +0.000 OA
ATOM     23  H   UNL     1       0.872   8.141  22.234  0.00  0.00    +0.000 HD
ENDBRANCH  15  22
BRANCH  16  24
ATOM     24  O   UNL     1       2.119   5.896  20.852  0.00  0.00    +0.000 OA
ATOM     25  C   UNL     1       1.250   4.778  20.716  0.00  0.00    +0.000 C 
ENDBRANCH  16  24
BRANCH   1  26
ATOM     26  C   UNL     1       6.973   4.831  13.986  0.00  0.00    +0.000 C 
BRANCH  26  27
ATOM     27  C   UNL     1       6.804   3.757  12.485  0.00  0.00    +0.000 C 
BRANCH  27  28
ATOM     28  N   UNL     1       5.415   2.987  12.265  0.00  0.00    +0.000 NA
BRANCH  28  30
ATOM     29  C   UNL     1       3.351   3.163  10.625  0.00  0.00    +0.000 C 
ATOM     30  C   UNL     1       4.315   3.836  11.647  0.00  0.00    +0.000 C 
ENDBRANCH  28  30
BRANCH  28  31
ATOM     31  C   UNL     1       5.678   1.814  11.408  0.00  0.00    +0.000 C 
ATOM     32  C   UNL     1       7.095   1.574  10.895  0.00  0.00    +0.000 C 
ENDBRANCH  28  31
ENDBRANCH  27  28
ENDBRANCH  26  27
ENDBRANCH   1  26
TORSDOF 9
ENDMDL
MODEL 2
REMARK VINA RESULT:      -7.6      1.648      2.659
REMARK  Name = 
REMARK  14 active torsions:
REMARK  status: ('A' for Active; 'I' for Inactive)
REMARK    1  A    between atoms: C_1  and  C_2
REMARK    2  A    between atoms: C_2  and  N_3
REMARK    3  A    between atoms: N_3  and  C_4
REMARK    4  A    between atoms: N_3  and  C_6
REMARK    5  A    between atoms: C_4  and  C_5
REMARK    6  A    between atoms: C_6  and  C_7
REMARK    7  A    between atoms: C_7  and  N_8
REMARK    8  A    between atoms: C_13  and  O_14
REMARK    9  A    between atoms: O_14  and  C_15
REMARK   10  A    between atoms: C_23  and  O_24
REMARK   11  A    between atoms: O_24  and  C_25
REMARK   12  A    between atoms: C_26  and  O_27
REMARK   13  A    between atoms: C_28  and  O_29
REMARK   14  A    between atoms: O_29  and  C_30
REMARK                            x       y       z     vdW  Elec       q    Type
REMARK                         _______ _______ _______ _____ _____    ______ ____
ROOT
ATOM      1  N   UNL     1       4.379   5.315  16.977  0.00  0.00    +0.000 N 
ATOM      2  C   UNL     1       5.075   5.398  18.137  0.00  0.00    +0.000 C 
ATOM      3  O   UNL     1       6.246   5.758  18.175  0.00  0.00    +0.000 OA
ATOM      4  C   UNL     1       3.963   5.572  18.965  0.00  0.00    +0.000 A 
ATOM      5  C   UNL     1       3.434   4.642  19.814  0.00  0.00    +0.000 A 
ATOM      6  C   UNL     1       2.386   5.020  20.609  0.00  0.00    +0.000 A 
ATOM      7  C   UNL     1       1.863   6.296  20.474  0.00  0.00    +0.000 A 
ATOM      8  C   UNL     1       2.237   7.176  19.440  0.00  0.00    +0.000 A 
ATOM      9  C   UNL     1       3.210   6.632  18.506  0.00  0.00    +0.000 A 
ATOM     10  C   UNL     1       3.788   6.978  17.137  0.00  0.00    +0.000 A 
ATOM     11  C   UNL     1       3.271   8.397  17.297  0.00  0.00    +0.000 A 
ATOM     12  C   UNL     1       2.211   9.163  18.326  0.00  0.00    +0.000 A 
ATOM     13  C   UNL     1       1.664  10.634  18.371  0.00  0.00    +0.000 A 
ATOM     14  C   UNL     1       0.665  11.226  19.251  0.00  0.00    +0.000 A 
ATOM     15  C   UNL     1       0.137  10.427  20.245  0.00  0.00    +0.000 A 
ATOM     16  C   UNL     1       0.618   9.110  20.352  0.00  0.00    +0.000 A 
ATOM     17  C   UNL     1       1.656   8.471  19.386  0.00  0.00    +0.000 A 
ENDROOT
BRANCH   6  18
ATOM     18  O   UNL     1       1.845   4.220  21.575  0.00  0.00    +0.000 OA
ATOM     19  C   UNL     1       2.187   2.844  21.431  0.00  0.00    +0.000 C 
ENDBRANCH   6  18
BRANCH  14  20
ATOM     20  O   UNL     1       0.132  12.502  19.222  0.00  0.00    +0.000 OA
ATOM     21  C   UNL     1      -0.788  12.820  18.187  0.00  0.00    +0.000 C 
ENDBRANCH  14  20
BRANCH  15  22
ATOM     22  O   UNL     1      -0.815  10.900  21.117  0.00  0.00    +0.000 OA
ATOM     23  H   UNL     1      -1.315  10.183  21.536  0.00  0.00    +0.000 HD
ENDBRANCH  15  22
BRANCH  16  24
ATOM     24  O   UNL     1       0.150   8.268  21.350  0.00  0.00    +0.000 OA
ATOM     25  C   UNL     1      -0.018   8.691  22.697  0.00  0.00    +0.000 C 
ENDBRANCH  16  24
BRANCH   1  26
ATOM     26  C   UNL     1       5.420   4.198  16.107  0.00  0.00    +0.000 C 
BRANCH  26  27
ATOM     27  C   UNL     1       6.615   4.359  14.699  0.00  0.00    +0.000 C 
BRANCH  27  28
ATOM     28  N   UNL     1       6.297   3.557  13.349  0.00  0.00    +0.000 NA
BRANCH  28  30
ATOM     29  C   UNL     1       4.506   3.191  11.441  0.00  0.00    +0.000 C 
ATOM     30  C   UNL     1       4.849   3.640  12.893  0.00  0.00    +0.000 C 
ENDBRANCH  28  30
BRANCH  28  31
ATOM     31  C   UNL     1       7.182   4.083  12.290  0.00  0.00    +0.000 C 
ATOM     32  C   UNL     1       7.904   5.407  12.518  0.00  0.00    +0.000 C 
ENDBRANCH  28  31
ENDBRANCH  27  28
ENDBRANCH  26  27
ENDBRANCH   1  26
TORSDOF 9
ENDMDL
MODEL 3
REMARK VINA RESULT:      -7.6      4.524      8.546
REMARK  Name = 
REMARK  14 active torsions:
REMARK  status: ('A' for Active; 'I' for Inactive)
REMARK    1  A    between atoms: C_1  and  C_2
REMARK    2  A    between atoms: C_2  and  N_3
REMARK    3  A    between atoms: N_3  and  C_4
REMARK    4  A    between atoms: N_3  and  C_6
REMARK    5  A    between atoms: C_4  and  C_5
REMARK    6  A    between atoms: C_6  and  C_7
REMARK    7  A    between atoms: C_7  and  N_8
REMARK    8  A    between atoms: C_13  and  O_14
REMARK    9  A    between atoms: O_14  and  C_15
REMARK   10  A    between atoms: C_23  and  O_24
REMARK   11  A    between atoms: O_24  and  C_25
REMARK   12  A    between atoms: C_26  and  O_27
REMARK   13  A    between atoms: C_28  and  O_29
REMARK   14  A    between atoms: O_29  and  C_30
REMARK                            x       y       z     vdW  Elec       q    Type
REMARK                         _______ _______ _______ _____ _____    ______ ____
ROOT
ATOM      1  N   UNL     1       0.840   9.164  18.459  0.00  0.00    +0.000 N 
ATOM      2  C   UNL     1       1.369  10.412  18.493  0.00  0.00    +0.000 C 
ATOM      3  O   UNL     1       2.032  10.868  17.569  0.00  0.00    +0.000 OA
ATOM      4  C   UNL     1       0.444  10.940  19.398  0.00  0.00    +0.000 A 
ATOM      5  C   UNL     1       0.678  11.238  20.710  0.00  0.00    +0.000 A 
ATOM      6  C   UNL     1      -0.330  11.825  21.426  0.00  0.00    +0.000 A 
ATOM      7  C   UNL     1      -1.559  12.029  20.817  0.00  0.00    +0.000 A 
ATOM      8  C   UNL     1      -1.886  11.508  19.550  0.00  0.00    +0.000 A 
ATOM      9  C   UNL     1      -0.834  10.717  18.932  0.00  0.00    +0.000 A 
ATOM     10  C   UNL     1      -0.676   9.755  17.758  0.00  0.00    +0.000 A 
ATOM     11  C   UNL     1      -1.979  10.277  17.177  0.00  0.00    +0.000 A 
ATOM     12  C   UNL     1      -3.236  11.211  17.739  0.00  0.00    +0.000 A 
ATOM     13  C   UNL     1      -4.600  11.641  17.091  0.00  0.00    +0.000 A 
ATOM     14  C   UNL     1      -5.706  12.394  17.670  0.00  0.00    +0.000 A 
ATOM     15  C   UNL     1      -5.549  12.869  18.956  0.00  0.00    +0.000 A 
ATOM     16  C   UNL     1      -4.328  12.615  19.605  0.00  0.00    +0.000 A 
ATOM     17  C   UNL     1      -3.167  11.778  18.999  0.00  0.00    +0.000 A 
ENDROOT
BRANCH   6  18
ATOM     18  O   UNL     1      -0.185  12.271  22.708  0.00  0.00    +0.000 OA
ATOM     19  C   UNL     1      -1.324  12.974  23.197  0.00  0.00    +0.000 C 
ENDBRANCH   6  18
BRANCH  14  20
ATOM     20  O   UNL     1      -6.936  12.691  17.113  0.00  0.00    +0.000 OA
ATOM     21  C   UNL     1      -7.098  13.953  16.481  0.00  0.00    +0.000 C 
ENDBRANCH  14  20
BRANCH  15  22
ATOM     22  O   UNL     1      -6.543  13.584  19.583  0.00  0.00    +0.000 OA
ATOM     23  H   UNL     1      -7.303  13.739  19.001  0.00  0.00    +0.000 HD
ENDBRANCH  15  22
BRANCH  16  24
ATOM     24  O   UNL     1      -4.099  13.093  20.887  0.00  0.00    +0.000 OA
ATOM     25  C   UNL     1      -4.896  12.716  22.003  0.00  0.00    +0.000 C 
ENDBRANCH  16  24
BRANCH   1  26
ATOM     26  C   UNL     1       2.317   8.242  18.215  0.00  0.00    +0.000 C 
BRANCH  26  27
ATOM     27  C   UNL     1       3.019   6.691  18.944  0.00  0.00    +0.000 C 
BRANCH  27  28
ATOM     28  N   UNL     1       2.288   5.304  18.609  0.00  0.00    +0.000 NA
BRANCH  28  30
ATOM     29  C   UNL     1       2.765   2.967  17.474  0.00  0.00    +0.000 C 
ATOM     30  C   UNL     1       2.922   4.517  17.473  0.00  0.00    +0.000 C 
ENDBRANCH  28  30
BRANCH  28  31
ATOM     31  C   UNL     1       2.281   4.487  19.838  0.00  0.00    +0.000 C 
ATOM     32  C   UNL     1       0.945   4.038  20.422  0.00  0.00    +0.000 C 
ENDBRANCH  28  31
ENDBRANCH  27  28
ENDBRANCH  26  27
ENDBRANCH   1  26
TORSDOF 9
ENDMDL
MODEL 4
REMARK VINA RESULT:      -7.5      4.573      8.739
REMARK  Name = 
REMARK  14 active torsions:
REMARK  status: ('A' for Active; 'I' for Inactive)
REMARK    1  A    between atoms: C_1  and  C_2
REMARK    2  A    between atoms: C_2  and  N_3
REMARK    3  A    between atoms: N_3  and  C_4
REMARK    4  A    between atoms: N_3  and  C_6
REMARK    5  A    between atoms: C_4  and  C_5
REMARK    6  A    between atoms: C_6  and  C_7
REMARK    7  A    between atoms: C_7  and  N_8
REMARK    8  A    between atoms: C_13  and  O_14
REMARK    9  A    between atoms: O_14  and  C_15
REMARK   10  A    between atoms: C_23  and  O_24
REMARK   11  A    between atoms: O_24  and  C_25
REMARK   12  A    between atoms: C_26  and  O_27
REMARK   13  A    between atoms: C_28  and  O_29
REMARK   14  A    between atoms: O_29  and  C_30
REMARK                            x       y       z     vdW  Elec       q    Type
REMARK                         _______ _______ _______ _____ _____    ______ ____
ROOT
ATOM      1  N   UNL     1       0.834   9.332  18.584  0.00  0.00    +0.000 N 
ATOM      2  C   UNL     1       1.337  10.589  18.658  0.00  0.00    +0.000 C 
ATOM      3  O   UNL     1       2.006  11.081  17.757  0.00  0.00    +0.000 OA
ATOM      4  C   UNL     1       0.387  11.075  19.559  0.00  0.00    +0.000 A 
ATOM      5  C   UNL     1       0.592  11.345  20.882  0.00  0.00    +0.000 A 
ATOM      6  C   UNL     1      -0.440  11.893  21.595  0.00  0.00    +0.000 A 
ATOM      7  C   UNL     1      -1.663  12.088  20.970  0.00  0.00    +0.000 A 
ATOM      8  C   UNL     1      -1.957  11.592  19.685  0.00  0.00    +0.000 A 
ATOM      9  C   UNL     1      -0.879  10.838  19.066  0.00  0.00    +0.000 A 
ATOM     10  C   UNL     1      -0.681   9.910  17.872  0.00  0.00    +0.000 A 
ATOM     11  C   UNL     1      -1.985  10.419  17.282  0.00  0.00    +0.000 A 
ATOM     12  C   UNL     1      -3.270  11.313  17.845  0.00  0.00    +0.000 A 
ATOM     13  C   UNL     1      -4.632  11.731  17.184  0.00  0.00    +0.000 A 
ATOM     14  C   UNL     1      -5.763  12.447  17.762  0.00  0.00    +0.000 A 
ATOM     15  C   UNL     1      -5.638  12.892  19.062  0.00  0.00    +0.000 A 
ATOM     16  C   UNL     1      -4.423  12.647  19.725  0.00  0.00    +0.000 A 
ATOM     17  C   UNL     1      -3.234  11.849  19.118  0.00  0.00    +0.000 A 
ENDROOT
BRANCH   6  18
ATOM     18  O   UNL     1      -0.326  12.311  22.890  0.00  0.00    +0.000 OA
ATOM     19  C   UNL     1      -1.454  13.049  23.351  0.00  0.00    +0.000 C 
ENDBRANCH   6  18
BRANCH  14  20
ATOM     20  O   UNL     1      -6.990  12.732  17.191  0.00  0.00    +0.000 OA
ATOM     21  C   UNL     1      -7.140  13.969  16.510  0.00  0.00    +0.000 C 
ENDBRANCH  14  20
BRANCH  15  22
ATOM     22  O   UNL     1      -6.657  13.571  19.689  0.00  0.00    +0.000 OA
ATOM     23  H   UNL     1      -6.416  14.490  19.885  0.00  0.00    +0.000 HD
ENDBRANCH  15  22
BRANCH  16  24
ATOM     24  O   UNL     1      -4.225  13.098  21.022  0.00  0.00    +0.000 OA
ATOM     25  C   UNL     1      -4.133  14.478  21.350  0.00  0.00    +0.000 C 
ENDBRANCH  16  24
BRANCH   1  26
ATOM     26  C   UNL     1       2.334   8.447  18.342  0.00  0.00    +0.000 C 
BRANCH  26  27
ATOM     27  C   UNL     1       2.797   6.653  18.310  0.00  0.00    +0.000 C 
BRANCH  27  28
ATOM     28  N   UNL     1       3.062   5.920  19.711  0.00  0.00    +0.000 NA
BRANCH  28  30
ATOM     29  C   UNL     1       1.358   4.104  20.592  0.00  0.00    +0.000 C 
ATOM     30  C   UNL     1       1.802   5.593  20.498  0.00  0.00    +0.000 C 
ENDBRANCH  28  30
BRANCH  28  31
ATOM     31  C   UNL     1       3.813   4.678  19.438  0.00  0.00    +0.000 C 
ATOM     32  C   UNL     1       4.088   4.282  17.991  0.00  0.00    +0.000 C 
ENDBRANCH  28  31
ENDBRANCH  27  28
ENDBRANCH  26  27
ENDBRANCH   1  26
TORSDOF 9
ENDMDL
MODEL 5
REMARK VINA RESULT:      -7.4      1.693      2.940
REMARK  Name = 
REMARK  14 active torsions:
REMARK  status: ('A' for Active; 'I' for Inactive)
REMARK    1  A    between atoms: C_1  and  C_2
REMARK    2  A    between atoms: C_2  and  N_3
REMARK    3  A    between atoms: N_3  and  C_4
REMARK    4  A    between atoms: N_3  and  C_6
REMARK    5  A    between atoms: C_4  and  C_5
REMARK    6  A    between atoms: C_6  and  C_7
REMARK    7  A    between atoms: C_7  and  N_8
REMARK    8  A    between atoms: C_13  and  O_14
REMARK    9  A    between atoms: O_14  and  C_15
REMARK   10  A    between atoms: C_23  and  O_24
REMARK   11  A    between atoms: O_24  and  C_25
REMARK   12  A    between atoms: C_26  and  O_27
REMARK   13  A    between atoms: C_28  and  O_29
REMARK   14  A    between atoms: O_29  and  C_30
REMARK                            x       y       z     vdW  Elec       q    Type
REMARK                         _______ _______ _______ _____ _____    ______ ____
ROOT
ATOM      1  N   UNL     1       4.280   5.069  17.073  0.00  0.00    +0.000 N 
ATOM      2  C   UNL     1       4.977   5.160  18.232  0.00  0.00    +0.000 C 
ATOM      3  O   UNL     1       6.161   5.473  18.262  0.00  0.00    +0.000 OA
ATOM      4  C   UNL     1       3.871   5.405  19.051  0.00  0.00    +0.000 A 
ATOM      5  C   UNL     1       3.304   4.524  19.926  0.00  0.00    +0.000 A 
ATOM      6  C   UNL     1       2.270   4.967  20.706  0.00  0.00    +0.000 A 
ATOM      7  C   UNL     1       1.798   6.260  20.529  0.00  0.00    +0.000 A 
ATOM      8  C   UNL     1       2.210   7.090  19.469  0.00  0.00    +0.000 A 
ATOM      9  C   UNL     1       3.162   6.479  18.556  0.00  0.00    +0.000 A 
ATOM     10  C   UNL     1       3.757   6.758  17.179  0.00  0.00    +0.000 A 
ATOM     11  C   UNL     1       3.297   8.201  17.292  0.00  0.00    +0.000 A 
ATOM     12  C   UNL     1       2.267   9.041  18.294  0.00  0.00    +0.000 A 
ATOM     13  C   UNL     1       1.779  10.534  18.291  0.00  0.00    +0.000 A 
ATOM     14  C   UNL     1       0.802  11.193  19.149  0.00  0.00    +0.000 A 
ATOM     15  C   UNL     1       0.241  10.447  20.165  0.00  0.00    +0.000 A 
ATOM     16  C   UNL     1       0.668   9.116  20.315  0.00  0.00    +0.000 A 
ATOM     17  C   UNL     1       1.681   8.406  19.373  0.00  0.00    +0.000 A 
ENDROOT
BRANCH   6  18
ATOM     18  O   UNL     1       1.694   4.221  21.694  0.00  0.00    +0.000 OA
ATOM     19  C   UNL     1       1.532   2.848  21.348  0.00  0.00    +0.000 C 
ENDBRANCH   6  18
BRANCH  14  20
ATOM     20  O   UNL     1       0.322  12.488  19.078  0.00  0.00    +0.000 OA
ATOM     21  C   UNL     1      -0.761  12.752  18.198  0.00  0.00    +0.000 C 
ENDBRANCH  14  20
BRANCH  15  22
ATOM     22  O   UNL     1      -0.693  10.985  21.019  0.00  0.00    +0.000 OA
ATOM     23  H   UNL     1      -1.375  11.486  20.544  0.00  0.00    +0.000 HD
ENDBRANCH  15  22
BRANCH  16  24
ATOM     24  O   UNL     1       0.164   8.325  21.337  0.00  0.00    +0.000 OA
ATOM     25  C   UNL     1       0.068   8.776  22.682  0.00  0.00    +0.000 C 
ENDBRANCH  16  24
BRANCH   1  26
ATOM     26  C   UNL     1       5.278   3.884  16.241  0.00  0.00    +0.000 C 
BRANCH  26  27
ATOM     27  C   UNL     1       6.801   3.973  15.191  0.00  0.00    +0.000 C 
BRANCH  27  28
ATOM     28  N   UNL     1       6.670   4.620  13.730  0.00  0.00    +0.000 NA
BRANCH  28  30
ATOM     29  C   UNL     1       7.915   5.947  11.815  0.00  0.00    +0.000 C 
ATOM     30  C   UNL     1       7.904   5.378  13.264  0.00  0.00    +0.000 C 
ENDBRANCH  28  30
BRANCH  28  31
ATOM     31  C   UNL     1       6.366   3.534  12.778  0.00  0.00    +0.000 C 
ATOM     32  C   UNL     1       4.974   3.459  12.158  0.00  0.00    +0.000 C 
ENDBRANCH  28  31
ENDBRANCH  27  28
ENDBRANCH  26  27
ENDBRANCH   1  26
TORSDOF 9
ENDMDL
MODEL 6
REMARK VINA RESULT:      -7.4      4.296      8.410
REMARK  Name = 
REMARK  14 active torsions:
REMARK  status: ('A' for Active; 'I' for Inactive)
REMARK    1  A    between atoms: C_1  and  C_2
REMARK    2  A    between atoms: C_2  and  N_3
REMARK    3  A    between atoms: N_3  and  C_4
REMARK    4  A    between atoms: N_3  and  C_6
REMARK    5  A    between atoms: C_4  and  C_5
REMARK    6  A    between atoms: C_6  and  C_7
REMARK    7  A    between atoms: C_7  and  N_8
REMARK    8  A    between atoms: C_13  and  O_14
REMARK    9  A    between atoms: O_14  and  C_15
REMARK   10  A    between atoms: C_23  and  O_24
REMARK   11  A    between atoms: O_24  and  C_25
REMARK   12  A    between atoms: C_26  and  O_27
REMARK   13  A    between atoms: C_28  and  O_29
REMARK   14  A    between atoms: O_29  and  C_30
REMARK                            x       y       z     vdW  Elec       q    Type
REMARK                         _______ _______ _______ _____ _____    ______ ____
ROOT
ATOM      1  N   UNL     1       0.838   9.035  18.382  0.00  0.00    +0.000 N 
ATOM      2  C   UNL     1       1.386  10.274  18.438  0.00  0.00    +0.000 C 
ATOM      3  O   UNL     1       2.060  10.735  17.525  0.00  0.00    +0.000 OA
ATOM      4  C   UNL     1       0.466  10.800  19.349  0.00  0.00    +0.000 A 
ATOM      5  C   UNL     1       0.699  11.072  20.667  0.00  0.00    +0.000 A 
ATOM      6  C   UNL     1      -0.303  11.663  21.388  0.00  0.00    +0.000 A 
ATOM      7  C   UNL     1      -1.526  11.896  20.778  0.00  0.00    +0.000 A 
ATOM      8  C   UNL     1      -1.856  11.402  19.501  0.00  0.00    +0.000 A 
ATOM      9  C   UNL     1      -0.814  10.605  18.874  0.00  0.00    +0.000 A 
ATOM     10  C   UNL     1      -0.665   9.661  17.685  0.00  0.00    +0.000 A 
ATOM     11  C   UNL     1      -1.958  10.212  17.108  0.00  0.00    +0.000 A 
ATOM     12  C   UNL     1      -3.203  11.156  17.681  0.00  0.00    +0.000 A 
ATOM     13  C   UNL     1      -4.558  11.618  17.034  0.00  0.00    +0.000 A 
ATOM     14  C   UNL     1      -5.654  12.379  17.621  0.00  0.00    +0.000 A 
ATOM     15  C   UNL     1      -5.496  12.829  18.916  0.00  0.00    +0.000 A 
ATOM     16  C   UNL     1      -4.281  12.545  19.566  0.00  0.00    +0.000 A 
ATOM     17  C   UNL     1      -3.130  11.701  18.949  0.00  0.00    +0.000 A 
ENDROOT
BRANCH   6  18
ATOM     18  O   UNL     1      -0.157  12.085  22.679  0.00  0.00    +0.000 OA
ATOM     19  C   UNL     1      -1.324  12.708  23.208  0.00  0.00    +0.000 C 
ENDBRANCH   6  18
BRANCH  14  20
ATOM     20  O   UNL     1      -6.877  12.704  17.065  0.00  0.00    +0.000 OA
ATOM     21  C   UNL     1      -7.016  13.977  16.451  0.00  0.00    +0.000 C 
ENDBRANCH  14  20
BRANCH  15  22
ATOM     22  O   UNL     1      -6.481  13.549  19.551  0.00  0.00    +0.000 OA
ATOM     23  H   UNL     1      -6.186  14.443  19.785  0.00  0.00    +0.000 HD
ENDBRANCH  15  22
BRANCH  16  24
ATOM     24  O   UNL     1      -4.050  12.998  20.856  0.00  0.00    +0.000 OA
ATOM     25  C   UNL     1      -3.889  14.376  21.170  0.00  0.00    +0.000 C 
ENDBRANCH  16  24
BRANCH   1  26
ATOM     26  C   UNL     1       2.302   8.095  18.127  0.00  0.00    +0.000 C 
BRANCH  26  27
ATOM     27  C   UNL     1       3.080   6.642  18.975  0.00  0.00    +0.000 C 
BRANCH  27  28
ATOM     28  N   UNL     1       4.259   5.870  18.212  0.00  0.00    +0.000 NA
BRANCH  28  30
ATOM     29  C   UNL     1       6.761   5.637  19.026  0.00  0.00    +0.000 C 
ATOM     30  C   UNL     1       5.270   5.200  19.129  0.00  0.00    +0.000 C 
ENDBRANCH  28  30
BRANCH  28  31
ATOM     31  C   UNL     1       3.643   4.859  17.329  0.00  0.00    +0.000 C 
ATOM     32  C   UNL     1       2.315   4.229  17.739  0.00  0.00    +0.000 C 
ENDBRANCH  28  31
ENDBRANCH  27  28
ENDBRANCH  26  27
ENDBRANCH   1  26
TORSDOF 9
ENDMDL
MODEL 7
REMARK VINA RESULT:      -7.2      0.659      1.306
REMARK  Name = 
REMARK  14 active torsions:
REMARK  status: ('A' for Active; 'I' for Inactive)
REMARK    1  A    between atoms: C_1  and  C_2
REMARK    2  A    between atoms: C_2  and  N_3
REMARK    3  A    between atoms: N_3  and  C_4
REMARK    4  A    between atoms: N_3  and  C_6
REMARK    5  A    between atoms: C_4  and  C_5
REMARK    6  A    between atoms: C_6  and  C_7
REMARK    7  A    between atoms: C_7  and  N_8
REMARK    8  A    between atoms: C_13  and  O_14
REMARK    9  A    between atoms: O_14  and  C_15
REMARK   10  A    between atoms: C_23  and  O_24
REMARK   11  A    between atoms: O_24  and  C_25
REMARK   12  A    between atoms: C_26  and  O_27
REMARK   13  A    between atoms: C_28  and  O_29
REMARK   14  A    between atoms: O_29  and  C_30
REMARK                            x       y       z     vdW  Elec       q    Type
REMARK                         _______ _______ _______ _____ _____    ______ ____
ROOT
ATOM      1  N   UNL     1       5.777   4.902  15.334  0.00  0.00    +0.000 N 
ATOM      2  C   UNL     1       6.630   4.885  16.387  0.00  0.00    +0.000 C 
ATOM      3  O   UNL     1       7.697   5.487  16.377  0.00  0.00    +0.000 OA
ATOM      4  C   UNL     1       5.662   4.610  17.357  0.00  0.00    +0.000 A 
ATOM      5  C   UNL     1       5.477   3.418  17.998  0.00  0.00    +0.000 A 
ATOM      6  C   UNL     1       4.526   3.358  18.980  0.00  0.00    +0.000 A 
ATOM      7  C   UNL     1       3.747   4.477  19.235  0.00  0.00    +0.000 A 
ATOM      8  C   UNL     1       3.762   5.625  18.421  0.00  0.00    +0.000 A 
ATOM      9  C   UNL     1       4.649   5.541  17.272  0.00  0.00    +0.000 A 
ATOM     10  C   UNL     1       4.909   6.306  15.978  0.00  0.00    +0.000 A 
ATOM     11  C   UNL     1       4.158   7.496  16.551  0.00  0.00    +0.000 A 
ATOM     12  C   UNL     1       3.159   7.749  17.857  0.00  0.00    +0.000 A 
ATOM     13  C   UNL     1       2.351   9.007  18.337  0.00  0.00    +0.000 A 
ATOM     14  C   UNL     1       1.419   9.142  19.449  0.00  0.00    +0.000 A 
ATOM     15  C   UNL     1       1.234   8.043  20.263  0.00  0.00    +0.000 A 
ATOM     16  C   UNL     1       1.974   6.882  19.976  0.00  0.00    +0.000 A 
ATOM     17  C   UNL     1       2.938   6.730  18.765  0.00  0.00    +0.000 A 
ENDROOT
BRANCH   6  18
ATOM     18  O   UNL     1       4.323   2.261  19.769  0.00  0.00    +0.000 OA
ATOM     19  C   UNL     1       3.518   2.527  20.915  0.00  0.00    +0.000 C 
ENDBRANCH   6  18
BRANCH  14  20
ATOM     20  O   UNL     1       0.650  10.234  19.807  0.00  0.00    +0.000 OA
ATOM     21  C   UNL     1      -0.438  10.591  18.966  0.00  0.00    +0.000 C 
ENDBRANCH  14  20
BRANCH  15  22
ATOM     22  O   UNL     1       0.369   8.078  21.332  0.00  0.00    +0.000 OA
ATOM     23  H   UNL     1      -0.343   7.426  21.247  0.00  0.00    +0.000 HD
ENDBRANCH  15  22
BRANCH  16  24
ATOM     24  O   UNL     1       1.855   5.755  20.776  0.00  0.00    +0.000 OA
ATOM     25  C   UNL     1       0.896   4.735  20.530  0.00  0.00    +0.000 C 
ENDBRANCH  16  24
BRANCH   1  26
ATOM     26  C   UNL     1       6.854   4.277  14.093  0.00  0.00    +0.000 C 
BRANCH  26  27
ATOM     27  C   UNL     1       6.832   4.255  12.240  0.00  0.00    +0.000 C 
BRANCH  27  28
ATOM     28  N   UNL     1       5.999   3.095  11.512  0.00  0.00    +0.000 NA
BRANCH  28  30
ATOM     29  C   UNL     1       6.049   0.521  10.919  0.00  0.00    +0.000 C 
ATOM     30  C   UNL     1       6.430   1.684  11.882  0.00  0.00    +0.000 C 
ENDBRANCH  28  30
BRANCH  28  31
ATOM     31  C   UNL     1       4.573   3.283  11.845  0.00  0.00    +0.000 C 
ATOM     32  C   UNL     1       3.551   3.349  10.716  0.00  0.00    +0.000 C 
ENDBRANCH  28  31
ENDBRANCH  27  28
ENDBRANCH  26  27
ENDBRANCH   1  26
TORSDOF 9
ENDMDL
MODEL 8
REMARK VINA RESULT:      -7.1      5.145      9.495
REMARK  Name = 
REMARK  14 active torsions:
REMARK  status: ('A' for Active; 'I' for Inactive)
REMARK    1  A    between atoms: C_1  and  C_2
REMARK    2  A    between atoms: C_2  and  N_3
REMARK    3  A    between atoms: N_3  and  C_4
REMARK    4  A    between atoms: N_3  and  C_6
REMARK    5  A    between atoms: C_4  and  C_5
REMARK    6  A    between atoms: C_6  and  C_7
REMARK    7  A    between atoms: C_7  and  N_8
REMARK    8  A    between atoms: C_13  and  O_14
REMARK    9  A    between atoms: O_14  and  C_15
REMARK   10  A    between atoms: C_23  and  O_24
REMARK   11  A    between atoms: O_24  and  C_25
REMARK   12  A    between atoms: C_26  and  O_27
REMARK   13  A    between atoms: C_28  and  O_29
REMARK   14  A    between atoms: O_29  and  C_30
REMARK                            x       y       z     vdW  Elec       q    Type
REMARK                         _______ _______ _______ _____ _____    ______ ____
ROOT
ATOM      1  N   UNL     1       0.397   9.158  21.103  0.00  0.00    +0.000 N 
ATOM      2  C   UNL     1       0.744   9.656  22.315  0.00  0.00    +0.000 C 
ATOM      3  O   UNL     1       1.878   9.548  22.768  0.00  0.00    +0.000 OA
ATOM      4  C   UNL     1      -0.247  10.640  22.360  0.00  0.00    +0.000 A 
ATOM      5  C   UNL     1      -1.371  10.619  23.134  0.00  0.00    +0.000 A 
ATOM      6  C   UNL     1      -2.193  11.713  23.104  0.00  0.00    +0.000 A 
ATOM      7  C   UNL     1      -1.891  12.760  22.246  0.00  0.00    +0.000 A 
ATOM      8  C   UNL     1      -0.877  12.687  21.271  0.00  0.00    +0.000 A 
ATOM      9  C   UNL     1      -0.176  11.414  21.221  0.00  0.00    +0.000 A 
ATOM     10  C   UNL     1       0.788  10.684  20.292  0.00  0.00    +0.000 A 
ATOM     11  C   UNL     1       1.105  12.004  19.612  0.00  0.00    +0.000 A 
ATOM     12  C   UNL     1       0.433  13.526  19.607  0.00  0.00    +0.000 A 
ATOM     13  C   UNL     1       0.781  14.829  18.803  0.00  0.00    +0.000 A 
ATOM     14  C   UNL     1       0.096  16.116  18.779  0.00  0.00    +0.000 A 
ATOM     15  C   UNL     1      -0.989  16.276  19.616  0.00  0.00    +0.000 A 
ATOM     16  C   UNL     1      -1.340  15.198  20.448  0.00  0.00    +0.000 A 
ATOM     17  C   UNL     1      -0.631  13.814  20.442  0.00  0.00    +0.000 A 
ENDROOT
BRANCH   6  18
ATOM     18  O   UNL     1      -3.283  11.862  23.913  0.00  0.00    +0.000 OA
ATOM     19  C   UNL     1      -3.670  13.220  24.102  0.00  0.00    +0.000 C 
ENDBRANCH   6  18
BRANCH  14  20
ATOM     20  O   UNL     1       0.366  17.225  17.999  0.00  0.00    +0.000 OA
ATOM     21  C   UNL     1       1.721  17.505  17.679  0.00  0.00    +0.000 C 
ENDBRANCH  14  20
BRANCH  15  22
ATOM     22  O   UNL     1      -1.698  17.453  19.655  0.00  0.00    +0.000 OA
ATOM     23  H   UNL     1      -2.624  17.313  19.906  0.00  0.00    +0.000 HD
ENDBRANCH  15  22
BRANCH  16  24
ATOM     24  O   UNL     1      -2.402  15.309  21.334  0.00  0.00    +0.000 OA
ATOM     25  C   UNL     1      -3.760  15.301  20.912  0.00  0.00    +0.000 C 
ENDBRANCH  16  24
BRANCH   1  26
ATOM     26  C   UNL     1       0.828   7.473  21.361  0.00  0.00    +0.000 C 
BRANCH  26  27
ATOM     27  C   UNL     1       1.890   6.248  20.462  0.00  0.00    +0.000 C 
BRANCH  27  28
ATOM     28  N   UNL     1       1.389   4.727  20.395  0.00  0.00    +0.000 NA
BRANCH  28  30
ATOM     29  C   UNL     1       2.135   4.915  17.868  0.00  0.00    +0.000 C 
ATOM     30  C   UNL     1       1.453   4.104  19.009  0.00  0.00    +0.000 C 
ENDBRANCH  28  30
BRANCH  28  31
ATOM     31  C   UNL     1       2.212   3.937  21.333  0.00  0.00    +0.000 C 
ATOM     32  C   UNL     1       1.736   2.550  21.750  0.00  0.00    +0.000 C 
ENDBRANCH  28  31
ENDBRANCH  27  28
ENDBRANCH  26  27
ENDBRANCH   1  26
TORSDOF 9
ENDMDL
MODEL 9
REMARK VINA RESULT:      -7.1      4.258      8.219
REMARK  Name = 
REMARK  14 active torsions:
REMARK  status: ('A' for Active; 'I' for Inactive)
REMARK    1  A    between atoms: C_1  and  C_2
REMARK    2  A    between atoms: C_2  and  N_3
REMARK    3  A    between atoms: N_3  and  C_4
REMARK    4  A    between atoms: N_3  and  C_6
REMARK    5  A    between atoms: C_4  and  C_5
REMARK    6  A    between atoms: C_6  and  C_7
REMARK    7  A    between atoms: C_7  and  N_8
REMARK    8  A    between atoms: C_13  and  O_14
REMARK    9  A    between atoms: O_14  and  C_15
REMARK   10  A    between atoms: C_23  and  O_24
REMARK   11  A    between atoms: O_24  and  C_25
REMARK   12  A    between atoms: C_26  and  O_27
REMARK   13  A    between atoms: C_28  and  O_29
REMARK   14  A    between atoms: O_29  and  C_30
REMARK                            x       y       z     vdW  Elec       q    Type
REMARK                         _______ _______ _______ _____ _____    ______ ____
ROOT
ATOM      1  N   UNL     1       1.905   8.924  19.114  0.00  0.00    +0.000 N 
ATOM      2  C   UNL     1       1.317   9.556  18.069  0.00  0.00    +0.000 C 
ATOM      3  O   UNL     1       0.502   9.002  17.341  0.00  0.00    +0.000 OA
ATOM      4  C   UNL     1       1.468  10.850  18.576  0.00  0.00    +0.000 A 
ATOM      5  C   UNL     1       2.351  11.793  18.134  0.00  0.00    +0.000 A 
ATOM      6  C   UNL     1       2.301  13.037  18.702  0.00  0.00    +0.000 A 
ATOM      7  C   UNL     1       1.411  13.269  19.740  0.00  0.00    +0.000 A 
ATOM      8  C   UNL     1       0.672  12.245  20.363  0.00  0.00    +0.000 A 
ATOM      9  C   UNL     1       0.929  10.912  19.843  0.00  0.00    +0.000 A 
ATOM     10  C   UNL     1       0.643   9.465  20.234  0.00  0.00    +0.000 A 
ATOM     11  C   UNL     1      -0.432   9.954  21.189  0.00  0.00    +0.000 A 
ATOM     12  C   UNL     1      -0.868  11.427  21.828  0.00  0.00    +0.000 A 
ATOM     13  C   UNL     1      -1.955  11.836  22.885  0.00  0.00    +0.000 A 
ATOM     14  C   UNL     1      -2.233  13.141  23.473  0.00  0.00    +0.000 A 
ATOM     15  C   UNL     1      -1.494  14.215  23.020  0.00  0.00    +0.000 A 
ATOM     16  C   UNL     1      -0.545  13.978  22.009  0.00  0.00    +0.000 A 
ATOM     17  C   UNL     1      -0.225  12.578  21.413  0.00  0.00    +0.000 A 
ENDROOT
BRANCH   6  18
ATOM     18  O   UNL     1       3.051  14.094  18.273  0.00  0.00    +0.000 OA
ATOM     19  C   UNL     1       2.512  15.361  18.641  0.00  0.00    +0.000 C 
ENDBRANCH   6  18
BRANCH  14  20
ATOM     20  O   UNL     1      -3.139  13.468  24.466  0.00  0.00    +0.000 OA
ATOM     21  C   UNL     1      -4.264  12.621  24.651  0.00  0.00    +0.000 C 
ENDBRANCH  14  20
BRANCH  15  22
ATOM     22  O   UNL     1      -1.685  15.480  23.522  0.00  0.00    +0.000 OA
ATOM     23  H   UNL     1      -0.849  15.903  23.773  0.00  0.00    +0.000 HD
ENDBRANCH  15  22
BRANCH  16  24
ATOM     24  O   UNL     1       0.206  15.022  21.490  0.00  0.00    +0.000 OA
ATOM     25  C   UNL     1       1.266  15.639  22.210  0.00  0.00    +0.000 C 
ENDBRANCH  16  24
BRANCH   1  26
ATOM     26  C   UNL     1       2.630   7.575  18.251  0.00  0.00    +0.000 C 
BRANCH  26  27
ATOM     27  C   UNL     1       2.449   5.732  18.327  0.00  0.00    +0.000 C 
BRANCH  27  28
ATOM     28  N   UNL     1       3.314   4.937  19.418  0.00  0.00    +0.000 NA
BRANCH  28  30
ATOM     29  C   UNL     1       1.008   4.028  20.331  0.00  0.00    +0.000 C 
ATOM     30  C   UNL     1       2.505   4.379  20.578  0.00  0.00    +0.000 C 
ENDBRANCH  28  30
BRANCH  28  31
ATOM     31  C   UNL     1       4.015   3.836  18.726  0.00  0.00    +0.000 C 
ATOM     32  C   UNL     1       3.692   3.558  17.261  0.00  0.00    +0.000 C 
ENDBRANCH  28  31
ENDBRANCH  27  28
ENDBRANCH  26  27
ENDBRANCH   1  26
TORSDOF 9
ENDMDL
