MODEL 1
REMARK VINA RESULT:      -6.8      0.000      0.000
REMARK  Name = 
REMARK  12 active torsions:
REMARK  status: ('A' for Active; 'I' for Inactive)
REMARK    1  A    between atoms: C_1  and  C_2
REMARK    2  A    between atoms: C_2  and  O_3
REMARK    3  A    between atoms: O_3  and  C_4
REMARK    4  A    between atoms: C_4  and  C_6
REMARK    5  A    between atoms: C_6  and  O_7
REMARK    6  A    between atoms: O_7  and  C_8
REMARK    7  A    between atoms: C_11  and  C_12
REMARK    8  A    between atoms: C_12  and  C_14
REMARK    9  A    between atoms: C_17  and  O_18
REMARK   10  A    between atoms: O_18  and  C_19
REMARK   11  A    between atoms: C_20  and  C_21
REMARK   12  A    between atoms: C_21  and  N_22
REMARK                            x       y       z     vdW  Elec       q    Type
REMARK                         _______ _______ _______ _____ _____    ______ ____
ROOT
ATOM      1  C   UNL     1       2.930   6.800  18.571  0.00  0.00    +0.000 A 
ATOM      2  C   UNL     1       2.885   7.839  17.635  0.00  0.00    +0.000 A 
ATOM      3  C   UNL     1       2.194   9.021  17.903  0.00  0.00    +0.000 A 
ATOM      4  C   UNL     1       1.473   9.165  19.100  0.00  0.00    +0.000 A 
ATOM      5  C   UNL     1       1.421   8.084  19.997  0.00  0.00    +0.000 A 
ATOM      6 CL   UNL     1       0.266   8.058  21.309  0.00  0.00    +0.000 Cl
ATOM      7  C   UNL     1       2.205   6.927  19.771  0.00  0.00    +0.000 A 
ATOM      8 CL   UNL     1       2.199   5.687  20.997  0.00  0.00    +0.000 Cl
ENDROOT
BRANCH   4   9
ATOM      9  C   UNL     1       0.754  10.463  19.271  0.00  0.00    +0.000 C 
ATOM     10  O   UNL     1       1.346  11.396  19.806  0.00  0.00    +0.000 OA
BRANCH   9  11
ATOM     11  C   UNL     1      -0.646  10.671  18.814  0.00  0.00    +0.000 A 
ATOM     12  C   UNL     1      -1.442  11.568  19.514  0.00  0.00    +0.000 A 
ATOM     13  C   UNL     1      -2.713  11.877  19.032  0.00  0.00    +0.000 A 
ATOM     14  C   UNL     1      -3.192  11.344  17.818  0.00  0.00    +0.000 A 
ATOM     15  C   UNL     1      -2.397  10.434  17.095  0.00  0.00    +0.000 A 
ATOM     16  C   UNL     1      -1.159  10.049  17.670  0.00  0.00    +0.000 A 
BRANCH  14  17
ATOM     17  O   UNL     1      -4.482  11.728  17.573  0.00  0.00    +0.000 OA
ATOM     18  C   UNL     1      -5.267  12.251  18.631  0.00  0.00    +0.000 C 
ENDBRANCH  14  17
BRANCH  15  19
ATOM     19  C   UNL     1      -2.788   9.791  15.785  0.00  0.00    +0.000 C 
BRANCH  19  20
ATOM     20  N   UNL     1      -3.534  10.686  14.888  0.00  0.00    +0.000 NA
ATOM     21  H   UNL     1      -4.336  10.172  14.523  0.00  0.00    +0.000 HD
ATOM     22  H   UNL     1      -2.950  10.891  14.078  0.00  0.00    +0.000 HD
ENDBRANCH  19  20
ENDBRANCH  15  19
ENDBRANCH   9  11
ENDBRANCH   4   9
BRANCH   1  23
ATOM     23  O   UNL     1       3.649   5.737  18.099  0.00  0.00    +0.000 OA
BRANCH  23  24
ATOM     24  C   UNL     1       4.928   5.479  18.650  0.00  0.00    +0.000 C 
BRANCH  24  25
ATOM     25  C   UNL     1       6.019   5.777  17.649  0.00  0.00    +0.000 C 
ATOM     26  O   UNL     1       6.326   6.885  17.221  0.00  0.00    +0.000 OA
BRANCH  25  27
ATOM     27  O   UNL     1       6.530   4.594  17.199  0.00  0.00    +0.000 OA
BRANCH  27  29
ATOM     28  C   UNL     1       5.909   4.001  14.978  0.00  0.00    +0.000 C 
ATOM     29  C   UNL     1       6.992   4.618  15.845  0.00  0.00    +0.000 C 
ENDBRANCH  27  29
ENDBRANCH  25  27
ENDBRANCH  24  25
ENDBRANCH  23  24
ENDBRANCH   1  23
TORSDOF 10
ENDMDL
MODEL 2
REMARK VINA RESULT:      -6.8      1.673      2.596
REMARK  Name = 
REMARK  12 active torsions:
REMARK  status: ('A' for Active; 'I' for Inactive)
REMARK    1  A    between atoms: C_1  and  C_2
REMARK    2  A    between atoms: C_2  and  O_3
REMARK    3  A    between atoms: O_3  and  C_4
REMARK    4  A    between atoms: C_4  and  C_6
REMARK    5  A    between atoms: C_6  and  O_7
REMARK    6  A    between atoms: O_7  and  C_8
REMARK    7  A    between atoms: C_11  and  C_12
REMARK    8  A    between atoms: C_12  and  C_14
REMARK    9  A    between atoms: C_17  and  O_18
REMARK   10  A    between atoms: O_18  and  C_19
REMARK   11  A    between atoms: C_20  and  C_21
REMARK   12  A    between atoms: C_21  and  N_22
REMARK                            x       y       z     vdW  Elec       q    Type
REMARK                         _______ _______ _______ _____ _____    ______ ____
ROOT
ATOM      1  C   UNL     1       2.880   6.911  18.678  0.00  0.00    +0.000 A 
ATOM      2  C   UNL     1       2.836   7.883  17.671  0.00  0.00    +0.000 A 
ATOM      3  C   UNL     1       2.146   9.081  17.856  0.00  0.00    +0.000 A 
ATOM      4  C   UNL     1       1.423   9.308  19.039  0.00  0.00    +0.000 A 
ATOM      5  C   UNL     1       1.371   8.292  20.010  0.00  0.00    +0.000 A 
ATOM      6 CL   UNL     1       0.214   8.358  21.319  0.00  0.00    +0.000 Cl
ATOM      7  C   UNL     1       2.154   7.122  19.866  0.00  0.00    +0.000 A 
ATOM      8 CL   UNL     1       2.147   5.971  21.175  0.00  0.00    +0.000 Cl
ENDROOT
BRANCH   4   9
ATOM      9  C   UNL     1       0.705  10.615  19.119  0.00  0.00    +0.000 C 
ATOM     10  O   UNL     1       1.311  11.593  19.547  0.00  0.00    +0.000 OA
BRANCH   9  11
ATOM     11  C   UNL     1      -0.711  10.779  18.695  0.00  0.00    +0.000 A 
ATOM     12  C   UNL     1      -1.503  11.692  19.380  0.00  0.00    +0.000 A 
ATOM     13  C   UNL     1      -2.793  11.958  18.923  0.00  0.00    +0.000 A 
ATOM     14  C   UNL     1      -3.297  11.365  17.748  0.00  0.00    +0.000 A 
ATOM     15  C   UNL     1      -2.507  10.438  17.041  0.00  0.00    +0.000 A 
ATOM     16  C   UNL     1      -1.246  10.100  17.595  0.00  0.00    +0.000 A 
BRANCH  14  17
ATOM     17  O   UNL     1      -4.601  11.715  17.526  0.00  0.00    +0.000 OA
ATOM     18  C   UNL     1      -5.636  11.000  18.180  0.00  0.00    +0.000 C 
ENDBRANCH  14  17
BRANCH  15  19
ATOM     19  C   UNL     1      -2.924   9.732  15.772  0.00  0.00    +0.000 C 
BRANCH  19  20
ATOM     20  N   UNL     1      -3.661  10.593  14.834  0.00  0.00    +0.000 NA
ATOM     21  H   UNL     1      -4.280   9.999  14.280  0.00  0.00    +0.000 HD
ATOM     22  H   UNL     1      -2.997  10.989  14.170  0.00  0.00    +0.000 HD
ENDBRANCH  19  20
ENDBRANCH  15  19
ENDBRANCH   9  11
ENDBRANCH   4   9
BRANCH   1  23
ATOM     23  O   UNL     1       3.599   5.818  18.282  0.00  0.00    +0.000 OA
BRANCH  23  24
ATOM     24  C   UNL     1       2.933   4.776  17.589  0.00  0.00    +0.000 C 
BRANCH  24  25
ATOM     25  C   UNL     1       3.108   3.455  18.301  0.00  0.00    +0.000 C 
ATOM     26  O   UNL     1       3.950   2.601  18.048  0.00  0.00    +0.000 OA
BRANCH  25  27
ATOM     27  O   UNL     1       2.089   3.308  19.198  0.00  0.00    +0.000 OA
BRANCH  27  29
ATOM     28  C   UNL     1       1.359   2.663  21.371  0.00  0.00    +0.000 C 
ATOM     29  C   UNL     1       2.351   2.382  20.257  0.00  0.00    +0.000 C 
ENDBRANCH  27  29
ENDBRANCH  25  27
ENDBRANCH  24  25
ENDBRANCH  23  24
ENDBRANCH   1  23
TORSDOF 10
ENDMDL
MODEL 3
REMARK VINA RESULT:      -6.7      1.918      2.896
REMARK  Name = 
REMARK  12 active torsions:
REMARK  status: ('A' for Active; 'I' for Inactive)
REMARK    1  A    between atoms: C_1  and  C_2
REMARK    2  A    between atoms: C_2  and  O_3
REMARK    3  A    between atoms: O_3  and  C_4
REMARK    4  A    between atoms: C_4  and  C_6
REMARK    5  A    between atoms: C_6  and  O_7
REMARK    6  A    between atoms: O_7  and  C_8
REMARK    7  A    between atoms: C_11  and  C_12
REMARK    8  A    between atoms: C_12  and  C_14
REMARK    9  A    between atoms: C_17  and  O_18
REMARK   10  A    between atoms: O_18  and  C_19
REMARK   11  A    between atoms: C_20  and  C_21
REMARK   12  A    between atoms: C_21  and  N_22
REMARK                            x       y       z     vdW  Elec       q    Type
REMARK                         _______ _______ _______ _____ _____    ______ ____
ROOT
ATOM      1  C   UNL     1       3.748   5.943  17.637  0.00  0.00    +0.000 A 
ATOM      2  C   UNL     1       3.521   7.303  17.395  0.00  0.00    +0.000 A 
ATOM      3  C   UNL     1       2.784   8.081  18.288  0.00  0.00    +0.000 A 
ATOM      4  C   UNL     1       2.198   7.495  19.423  0.00  0.00    +0.000 A 
ATOM      5  C   UNL     1       2.328   6.108  19.616  0.00  0.00    +0.000 A 
ATOM      6 CL   UNL     1       1.337   5.267  20.785  0.00  0.00    +0.000 Cl
ATOM      7  C   UNL     1       3.160   5.341  18.766  0.00  0.00    +0.000 A 
ATOM      8 CL   UNL     1       3.385   3.656  19.152  0.00  0.00    +0.000 Cl
ENDROOT
BRANCH   4   9
ATOM      9  C   UNL     1       1.413   8.418  20.297  0.00  0.00    +0.000 C 
ATOM     10  O   UNL     1       1.302   8.144  21.489  0.00  0.00    +0.000 OA
BRANCH   9  11
ATOM     11  C   UNL     1       0.770   9.656  19.782  0.00  0.00    +0.000 A 
ATOM     12  C   UNL     1       1.379  10.875  20.049  0.00  0.00    +0.000 A 
ATOM     13  C   UNL     1       0.868  12.037  19.472  0.00  0.00    +0.000 A 
ATOM     14  C   UNL     1      -0.220  12.000  18.576  0.00  0.00    +0.000 A 
ATOM     15  C   UNL     1      -0.848  10.771  18.294  0.00  0.00    +0.000 A 
ATOM     16  C   UNL     1      -0.381   9.625  18.987  0.00  0.00    +0.000 A 
BRANCH  14  17
ATOM     17  O   UNL     1      -0.595  13.256  18.185  0.00  0.00    +0.000 OA
ATOM     18  C   UNL     1      -0.455  14.339  19.090  0.00  0.00    +0.000 C 
ENDBRANCH  14  17
BRANCH  15  19
ATOM     19  C   UNL     1      -2.020  10.591  17.357  0.00  0.00    +0.000 C 
BRANCH  19  20
ATOM     20  N   UNL     1      -2.870  11.786  17.240  0.00  0.00    +0.000 NA
ATOM     21  H   UNL     1      -2.704  12.373  18.059  0.00  0.00    +0.000 HD
ATOM     22  H   UNL     1      -3.844  11.496  17.306  0.00  0.00    +0.000 HD
ENDBRANCH  19  20
ENDBRANCH  15  19
ENDBRANCH   9  11
ENDBRANCH   4   9
BRANCH   1  23
ATOM     23  O   UNL     1       4.481   5.375  16.633  0.00  0.00    +0.000 OA
BRANCH  23  24
ATOM     24  C   UNL     1       5.479   6.150  15.992  0.00  0.00    +0.000 C 
BRANCH  24  25
ATOM     25  C   UNL     1       6.861   5.699  16.403  0.00  0.00    +0.000 C 
ATOM     26  O   UNL     1       7.200   4.550  16.666  0.00  0.00    +0.000 OA
BRANCH  25  27
ATOM     27  O   UNL     1       7.649   6.803  16.558  0.00  0.00    +0.000 OA
BRANCH  27  29
ATOM     28  C   UNL     1       8.068   8.776  17.824  0.00  0.00    +0.000 C 
ATOM     29  C   UNL     1       7.732   7.297  17.898  0.00  0.00    +0.000 C 
ENDBRANCH  27  29
ENDBRANCH  25  27
ENDBRANCH  24  25
ENDBRANCH  23  24
ENDBRANCH   1  23
TORSDOF 10
ENDMDL
MODEL 4
REMARK VINA RESULT:      -6.6      3.352      4.654
REMARK  Name = 
REMARK  12 active torsions:
REMARK  status: ('A' for Active; 'I' for Inactive)
REMARK    1  A    between atoms: C_1  and  C_2
REMARK    2  A    between atoms: C_2  and  O_3
REMARK    3  A    between atoms: O_3  and  C_4
REMARK    4  A    between atoms: C_4  and  C_6
REMARK    5  A    between atoms: C_6  and  O_7
REMARK    6  A    between atoms: O_7  and  C_8
REMARK    7  A    between atoms: C_11  and  C_12
REMARK    8  A    between atoms: C_12  and  C_14
REMARK    9  A    between atoms: C_17  and  O_18
REMARK   10  A    between atoms: O_18  and  C_19
REMARK   11  A    between atoms: C_20  and  C_21
REMARK   12  A    between atoms: C_21  and  N_22
REMARK                            x       y       z     vdW  Elec       q    Type
REMARK                         _______ _______ _______ _____ _____    ______ ____
ROOT
ATOM      1  C   UNL     1       4.310   4.511  16.972  0.00  0.00    +0.000 A 
ATOM      2  C   UNL     1       4.317   5.889  17.216  0.00  0.00    +0.000 A 
ATOM      3  C   UNL     1       3.588   6.438  18.272  0.00  0.00    +0.000 A 
ATOM      4  C   UNL     1       2.777   5.619  19.075  0.00  0.00    +0.000 A 
ATOM      5  C   UNL     1       2.677   4.250  18.767  0.00  0.00    +0.000 A 
ATOM      6 CL   UNL     1       1.428   3.257  19.481  0.00  0.00    +0.000 Cl
ATOM      7  C   UNL     1       3.496   3.679  17.763  0.00  0.00    +0.000 A 
ATOM      8 CL   UNL     1       3.420   1.953  17.535  0.00  0.00    +0.000 Cl
ENDROOT
BRANCH   4   9
ATOM      9  C   UNL     1       2.025   6.315  20.161  0.00  0.00    +0.000 C 
ATOM     10  O   UNL     1       1.713   5.676  21.162  0.00  0.00    +0.000 OA
BRANCH   9  11
ATOM     11  C   UNL     1       1.647   7.751  20.081  0.00  0.00    +0.000 A 
ATOM     12  C   UNL     1       1.760   8.395  18.855  0.00  0.00    +0.000 A 
ATOM     13  C   UNL     1       1.293   9.702  18.722  0.00  0.00    +0.000 A 
ATOM     14  C   UNL     1       0.655  10.370  19.787  0.00  0.00    +0.000 A 
ATOM     15  C   UNL     1       0.531   9.730  21.036  0.00  0.00    +0.000 A 
ATOM     16  C   UNL     1       1.120   8.448  21.173  0.00  0.00    +0.000 A 
BRANCH  14  17
ATOM     17  O   UNL     1       0.339  11.659  19.457  0.00  0.00    +0.000 OA
ATOM     18  C   UNL     1       1.305  12.681  19.632  0.00  0.00    +0.000 C 
ENDBRANCH  14  17
BRANCH  15  19
ATOM     19  C   UNL     1      -0.128  10.331  22.256  0.00  0.00    +0.000 C 
BRANCH  19  20
ATOM     20  N   UNL     1      -0.635   9.329  23.205  0.00  0.00    +0.000 NA
ATOM     21  H   UNL     1      -1.646   9.448  23.282  0.00  0.00    +0.000 HD
ATOM     22  H   UNL     1      -0.265   9.545  24.130  0.00  0.00    +0.000 HD
ENDBRANCH  19  20
ENDBRANCH  15  19
ENDBRANCH   9  11
ENDBRANCH   4   9
BRANCH   1  23
ATOM     23  O   UNL     1       5.080   4.195  15.887  0.00  0.00    +0.000 OA
BRANCH  23  24
ATOM     24  C   UNL     1       5.951   5.179  15.357  0.00  0.00    +0.000 C 
BRANCH  24  25
ATOM     25  C   UNL     1       7.229   5.260  16.158  0.00  0.00    +0.000 C 
ATOM     26  O   UNL     1       7.847   4.313  16.634  0.00  0.00    +0.000 OA
BRANCH  25  27
ATOM     27  O   UNL     1       7.522   6.575  16.375  0.00  0.00    +0.000 OA
BRANCH  27  29
ATOM     28  C   UNL     1       8.018   8.413  17.805  0.00  0.00    +0.000 C 
ATOM     29  C   UNL     1       7.649   6.941  17.752  0.00  0.00    +0.000 C 
ENDBRANCH  27  29
ENDBRANCH  25  27
ENDBRANCH  24  25
ENDBRANCH  23  24
ENDBRANCH   1  23
TORSDOF 10
ENDMDL
MODEL 5
REMARK VINA RESULT:      -6.6      1.004      1.286
REMARK  Name = 
REMARK  12 active torsions:
REMARK  status: ('A' for Active; 'I' for Inactive)
REMARK    1  A    between atoms: C_1  and  C_2
REMARK    2  A    between atoms: C_2  and  O_3
REMARK    3  A    between atoms: O_3  and  C_4
REMARK    4  A    between atoms: C_4  and  C_6
REMARK    5  A    between atoms: C_6  and  O_7
REMARK    6  A    between atoms: O_7  and  C_8
REMARK    7  A    between atoms: C_11  and  C_12
REMARK    8  A    between atoms: C_12  and  C_14
REMARK    9  A    between atoms: C_17  and  O_18
REMARK   10  A    between atoms: O_18  and  C_19
REMARK   11  A    between atoms: C_20  and  C_21
REMARK   12  A    between atoms: C_21  and  N_22
REMARK                            x       y       z     vdW  Elec       q    Type
REMARK                         _______ _______ _______ _____ _____    ______ ____
ROOT
ATOM      1  C   UNL     1       3.005   6.439  18.773  0.00  0.00    +0.000 A 
ATOM      2  C   UNL     1       3.109   7.364  17.728  0.00  0.00    +0.000 A 
ATOM      3  C   UNL     1       2.513   8.622  17.817  0.00  0.00    +0.000 A 
ATOM      4  C   UNL     1       1.738   8.962  18.938  0.00  0.00    +0.000 A 
ATOM      5  C   UNL     1       1.536   7.998  19.943  0.00  0.00    +0.000 A 
ATOM      6 CL   UNL     1       0.308   8.219  21.168  0.00  0.00    +0.000 Cl
ATOM      7  C   UNL     1       2.226   6.763  19.900  0.00  0.00    +0.000 A 
ATOM      8 CL   UNL     1       2.037   5.677  21.251  0.00  0.00    +0.000 Cl
ENDROOT
BRANCH   4   9
ATOM      9  C   UNL     1       1.129  10.325  18.917  0.00  0.00    +0.000 C 
ATOM     10  O   UNL     1       1.844  11.291  19.169  0.00  0.00    +0.000 OA
BRANCH   9  11
ATOM     11  C   UNL     1      -0.304  10.559  18.596  0.00  0.00    +0.000 A 
ATOM     12  C   UNL     1      -1.026  11.433  19.399  0.00  0.00    +0.000 A 
ATOM     13  C   UNL     1      -2.332  11.768  19.044  0.00  0.00    +0.000 A 
ATOM     14  C   UNL     1      -2.922  11.285  17.859  0.00  0.00    +0.000 A 
ATOM     15  C   UNL     1      -2.204  10.400  17.033  0.00  0.00    +0.000 A 
ATOM     16  C   UNL     1      -0.923   9.986  17.479  0.00  0.00    +0.000 A 
BRANCH  14  17
ATOM     17  O   UNL     1      -4.226  11.686  17.746  0.00  0.00    +0.000 OA
ATOM     18  C   UNL     1      -5.259  10.844  18.231  0.00  0.00    +0.000 C 
ENDBRANCH  14  17
BRANCH  15  19
ATOM     19  C   UNL     1      -2.717   9.810  15.740  0.00  0.00    +0.000 C 
BRANCH  19  20
ATOM     20  N   UNL     1      -3.318  10.803  14.837  0.00  0.00    +0.000 NA
ATOM     21  H   UNL     1      -3.721  10.305  14.042  0.00  0.00    +0.000 HD
ATOM     22  H   UNL     1      -2.572  11.379  14.449  0.00  0.00    +0.000 HD
ENDBRANCH  19  20
ENDBRANCH  15  19
ENDBRANCH   9  11
ENDBRANCH   4   9
BRANCH   1  23
ATOM     23  O   UNL     1       3.653   5.273  18.471  0.00  0.00    +0.000 OA
BRANCH  23  24
ATOM     24  C   UNL     1       3.774   4.890  17.112  0.00  0.00    +0.000 C 
BRANCH  24  25
ATOM     25  C   UNL     1       5.201   4.528  16.776  0.00  0.00    +0.000 C 
ATOM     26  O   UNL     1       5.626   4.205  15.672  0.00  0.00    +0.000 OA
BRANCH  25  27
ATOM     27  O   UNL     1       5.924   4.495  17.934  0.00  0.00    +0.000 OA
BRANCH  27  29
ATOM     28  C   UNL     1       7.426   6.339  18.059  0.00  0.00    +0.000 C 
ATOM     29  C   UNL     1       7.302   4.850  17.790  0.00  0.00    +0.000 C 
ENDBRANCH  27  29
ENDBRANCH  25  27
ENDBRANCH  24  25
ENDBRANCH  23  24
ENDBRANCH   1  23
TORSDOF 10
ENDMDL
MODEL 6
REMARK VINA RESULT:      -6.6      1.824      2.513
REMARK  Name = 
REMARK  12 active torsions:
REMARK  status: ('A' for Active; 'I' for Inactive)
REMARK    1  A    between atoms: C_1  and  C_2
REMARK    2  A    between atoms: C_2  and  O_3
REMARK    3  A    between atoms: O_3  and  C_4
REMARK    4  A    between atoms: C_4  and  C_6
REMARK    5  A    between atoms: C_6  and  O_7
REMARK    6  A    between atoms: O_7  and  C_8
REMARK    7  A    between atoms: C_11  and  C_12
REMARK    8  A    between atoms: C_12  and  C_14
REMARK    9  A    between atoms: C_17  and  O_18
REMARK   10  A    between atoms: O_18  and  C_19
REMARK   11  A    between atoms: C_20  and  C_21
REMARK   12  A    between atoms: C_21  and  N_22
REMARK                            x       y       z     vdW  Elec       q    Type
REMARK                         _______ _______ _______ _____ _____    ______ ____
ROOT
ATOM      1  C   UNL     1       3.812   6.314  17.649  0.00  0.00    +0.000 A 
ATOM      2  C   UNL     1       3.407   7.635  17.427  0.00  0.00    +0.000 A 
ATOM      3  C   UNL     1       2.606   8.308  18.350  0.00  0.00    +0.000 A 
ATOM      4  C   UNL     1       2.135   7.646  19.497  0.00  0.00    +0.000 A 
ATOM      5  C   UNL     1       2.446   6.286  19.672  0.00  0.00    +0.000 A 
ATOM      6 CL   UNL     1       1.607   5.318  20.863  0.00  0.00    +0.000 Cl
ATOM      7  C   UNL     1       3.341   5.635  18.790  0.00  0.00    +0.000 A 
ATOM      8 CL   UNL     1       3.790   3.990  19.152  0.00  0.00    +0.000 Cl
ENDROOT
BRANCH   4   9
ATOM      9  C   UNL     1       1.269   8.457  20.403  0.00  0.00    +0.000 C 
ATOM     10  O   UNL     1       1.134   8.091  21.568  0.00  0.00    +0.000 OA
BRANCH   9  11
ATOM     11  C   UNL     1       0.570   9.690  19.954  0.00  0.00    +0.000 A 
ATOM     12  C   UNL     1       1.088  10.919  20.342  0.00  0.00    +0.000 A 
ATOM     13  C   UNL     1       0.529  12.090  19.830  0.00  0.00    +0.000 A 
ATOM     14  C   UNL     1      -0.513  12.058  18.883  0.00  0.00    +0.000 A 
ATOM     15  C   UNL     1      -1.048  10.820  18.477  0.00  0.00    +0.000 A 
ATOM     16  C   UNL     1      -0.540   9.653  19.103  0.00  0.00    +0.000 A 
BRANCH  14  17
ATOM     17  O   UNL     1      -0.950  13.316  18.570  0.00  0.00    +0.000 OA
ATOM     18  C   UNL     1      -0.079  14.421  18.747  0.00  0.00    +0.000 C 
ENDBRANCH  14  17
BRANCH  15  19
ATOM     19  C   UNL     1      -2.164  10.644  17.473  0.00  0.00    +0.000 C 
BRANCH  19  20
ATOM     20  N   UNL     1      -2.144  11.639  16.390  0.00  0.00    +0.000 NA
ATOM     21  H   UNL     1      -3.042  12.125  16.391  0.00  0.00    +0.000 HD
ATOM     22  H   UNL     1      -2.102  11.145  15.499  0.00  0.00    +0.000 HD
ENDBRANCH  19  20
ENDBRANCH  15  19
ENDBRANCH   9  11
ENDBRANCH   4   9
BRANCH   1  23
ATOM     23  O   UNL     1       4.579   5.849  16.617  0.00  0.00    +0.000 OA
BRANCH  23  24
ATOM     24  C   UNL     1       5.984   6.021  16.678  0.00  0.00    +0.000 C 
BRANCH  24  25
ATOM     25  C   UNL     1       6.679   4.707  16.948  0.00  0.00    +0.000 C 
ATOM     26  O   UNL     1       7.405   4.454  17.904  0.00  0.00    +0.000 OA
BRANCH  25  27
ATOM     27  O   UNL     1       6.469   3.879  15.884  0.00  0.00    +0.000 OA
BRANCH  27  29
ATOM     28  C   UNL     1       5.965   3.866  13.557  0.00  0.00    +0.000 C 
ATOM     29  C   UNL     1       6.904   4.399  14.624  0.00  0.00    +0.000 C 
ENDBRANCH  27  29
ENDBRANCH  25  27
ENDBRANCH  24  25
ENDBRANCH  23  24
ENDBRANCH   1  23
TORSDOF 10
ENDMDL
MODEL 7
REMARK VINA RESULT:      -6.5      2.976      4.541
REMARK  Name = 
REMARK  12 active torsions:
REMARK  status: ('A' for Active; 'I' for Inactive)
REMARK    1  A    between atoms: C_1  and  C_2
REMARK    2  A    between atoms: C_2  and  O_3
REMARK    3  A    between atoms: O_3  and  C_4
REMARK    4  A    between atoms: C_4  and  C_6
REMARK    5  A    between atoms: C_6  and  O_7
REMARK    6  A    between atoms: O_7  and  C_8
REMARK    7  A    between atoms: C_11  and  C_12
REMARK    8  A    between atoms: C_12  and  C_14
REMARK    9  A    between atoms: C_17  and  O_18
REMARK   10  A    between atoms: O_18  and  C_19
REMARK   11  A    between atoms: C_20  and  C_21
REMARK   12  A    between atoms: C_21  and  N_22
REMARK                            x       y       z     vdW  Elec       q    Type
REMARK                         _______ _______ _______ _____ _____    ______ ____
ROOT
ATOM      1  C   UNL     1       4.442   4.379  17.016  0.00  0.00    +0.000 A 
ATOM      2  C   UNL     1       4.672   5.723  17.334  0.00  0.00    +0.000 A 
ATOM      3  C   UNL     1       3.918   6.370  18.314  0.00  0.00    +0.000 A 
ATOM      4  C   UNL     1       2.865   5.699  18.957  0.00  0.00    +0.000 A 
ATOM      5  C   UNL     1       2.556   4.385  18.565  0.00  0.00    +0.000 A 
ATOM      6 CL   UNL     1       1.056   3.630  19.053  0.00  0.00    +0.000 Cl
ATOM      7  C   UNL     1       3.385   3.697  17.647  0.00  0.00    +0.000 A 
ATOM      8 CL   UNL     1       3.021   2.024  17.317  0.00  0.00    +0.000 Cl
ENDROOT
BRANCH   4   9
ATOM      9  C   UNL     1       2.112   6.496  19.972  0.00  0.00    +0.000 C 
ATOM     10  O   UNL     1       1.792   5.952  21.025  0.00  0.00    +0.000 OA
BRANCH   9  11
ATOM     11  C   UNL     1       1.743   7.921  19.760  0.00  0.00    +0.000 A 
ATOM     12  C   UNL     1       1.821   8.437  18.473  0.00  0.00    +0.000 A 
ATOM     13  C   UNL     1       1.360   9.730  18.224  0.00  0.00    +0.000 A 
ATOM     14  C   UNL     1       0.763  10.508  19.236  0.00  0.00    +0.000 A 
ATOM     15  C   UNL     1       0.675   9.998  20.546  0.00  0.00    +0.000 A 
ATOM     16  C   UNL     1       1.258   8.730  20.793  0.00  0.00    +0.000 A 
BRANCH  14  17
ATOM     17  O   UNL     1       0.446  11.761  18.788  0.00  0.00    +0.000 OA
ATOM     18  C   UNL     1      -0.882  12.040  18.378  0.00  0.00    +0.000 C 
ENDBRANCH  14  17
BRANCH  15  19
ATOM     19  C   UNL     1       0.061  10.725  21.720  0.00  0.00    +0.000 C 
BRANCH  19  20
ATOM     20  N   UNL     1       0.327  10.082  23.016  0.00  0.00    +0.000 NA
ATOM     21  H   UNL     1       1.030  10.638  23.506  0.00  0.00    +0.000 HD
ATOM     22  H   UNL     1       0.767   9.179  22.843  0.00  0.00    +0.000 HD
ENDBRANCH  19  20
ENDBRANCH  15  19
ENDBRANCH   9  11
ENDBRANCH   4   9
BRANCH   1  23
ATOM     23  O   UNL     1       5.283   3.952  16.026  0.00  0.00    +0.000 OA
BRANCH  23  24
ATOM     24  C   UNL     1       6.434   4.724  15.727  0.00  0.00    +0.000 C 
BRANCH  24  25
ATOM     25  C   UNL     1       6.808   4.594  14.269  0.00  0.00    +0.000 C 
ATOM     26  O   UNL     1       7.497   5.379  13.626  0.00  0.00    +0.000 OA
BRANCH  25  27
ATOM     27  O   UNL     1       6.148   3.520  13.746  0.00  0.00    +0.000 OA
BRANCH  27  29
ATOM     28  C   UNL     1       6.674   2.484  11.667  0.00  0.00    +0.000 C 
ATOM     29  C   UNL     1       5.894   3.600  12.340  0.00  0.00    +0.000 C 
ENDBRANCH  27  29
ENDBRANCH  25  27
ENDBRANCH  24  25
ENDBRANCH  23  24
ENDBRANCH   1  23
TORSDOF 10
ENDMDL
MODEL 8
REMARK VINA RESULT:      -6.5      4.079      9.423
REMARK  Name = 
REMARK  12 active torsions:
REMARK  status: ('A' for Active; 'I' for Inactive)
REMARK    1  A    between atoms: C_1  and  C_2
REMARK    2  A    between atoms: C_2  and  O_3
REMARK    3  A    between atoms: O_3  and  C_4
REMARK    4  A    between atoms: C_4  and  C_6
REMARK    5  A    between atoms: C_6  and  O_7
REMARK    6  A    between atoms: O_7  and  C_8
REMARK    7  A    between atoms: C_11  and  C_12
REMARK    8  A    between atoms: C_12  and  C_14
REMARK    9  A    between atoms: C_17  and  O_18
REMARK   10  A    between atoms: O_18  and  C_19
REMARK   11  A    between atoms: C_20  and  C_21
REMARK   12  A    between atoms: C_21  and  N_22
REMARK                            x       y       z     vdW  Elec       q    Type
REMARK                         _______ _______ _______ _____ _____    ______ ____
ROOT
ATOM      1  C   UNL     1       1.017   9.159  20.194  0.00  0.00    +0.000 A 
ATOM      2  C   UNL     1       0.820   8.108  21.096  0.00  0.00    +0.000 A 
ATOM      3  C   UNL     1       1.450   6.876  20.916  0.00  0.00    +0.000 A 
ATOM      4  C   UNL     1       2.249   6.647  19.783  0.00  0.00    +0.000 A 
ATOM      5  C   UNL     1       2.364   7.662  18.815  0.00  0.00    +0.000 A 
ATOM      6 CL   UNL     1       3.030   7.325  17.234  0.00  0.00    +0.000 Cl
ATOM      7  C   UNL     1       1.809   8.943  19.051  0.00  0.00    +0.000 A 
ATOM      8 CL   UNL     1       2.112  10.190  17.871  0.00  0.00    +0.000 Cl
ENDROOT
BRANCH   4   9
ATOM      9  C   UNL     1       2.856   5.287  19.681  0.00  0.00    +0.000 C 
ATOM     10  O   UNL     1       2.305   4.353  20.258  0.00  0.00    +0.000 OA
BRANCH   9  11
ATOM     11  C   UNL     1       4.096   5.017  18.905  0.00  0.00    +0.000 A 
ATOM     12  C   UNL     1       3.976   4.411  17.662  0.00  0.00    +0.000 A 
ATOM     13  C   UNL     1       5.108   4.264  16.860  0.00  0.00    +0.000 A 
ATOM     14  C   UNL     1       6.363   4.767  17.255  0.00  0.00    +0.000 A 
ATOM     15  C   UNL     1       6.501   5.386  18.512  0.00  0.00    +0.000 A 
ATOM     16  C   UNL     1       5.360   5.416  19.354  0.00  0.00    +0.000 A 
BRANCH  14  17
ATOM     17  O   UNL     1       7.340   4.454  16.349  0.00  0.00    +0.000 OA
ATOM     18  C   UNL     1       7.130   4.727  14.974  0.00  0.00    +0.000 C 
ENDBRANCH  14  17
BRANCH  15  19
ATOM     19  C   UNL     1       7.786   5.966  19.057  0.00  0.00    +0.000 C 
BRANCH  19  20
ATOM     20  N   UNL     1       8.119   5.493  20.409  0.00  0.00    +0.000 NA
ATOM     21  H   UNL     1       8.673   6.217  20.870  0.00  0.00    +0.000 HD
ATOM     22  H   UNL     1       8.738   4.688  20.325  0.00  0.00    +0.000 HD
ENDBRANCH  19  20
ENDBRANCH  15  19
ENDBRANCH   9  11
ENDBRANCH   4   9
BRANCH   1  23
ATOM     23  O   UNL     1       0.299  10.265  20.556  0.00  0.00    +0.000 OA
BRANCH  23  24
ATOM     24  C   UNL     1      -0.337  10.283  21.822  0.00  0.00    +0.000 C 
BRANCH  24  25
ATOM     25  C   UNL     1      -0.438  11.693  22.357  0.00  0.00    +0.000 C 
ATOM     26  O   UNL     1       0.197  12.665  21.963  0.00  0.00    +0.000 OA
BRANCH  25  27
ATOM     27  O   UNL     1      -1.266  11.686  23.443  0.00  0.00    +0.000 OA
BRANCH  27  29
ATOM     28  C   UNL     1      -2.865  13.426  23.733  0.00  0.00    +0.000 C 
ATOM     29  C   UNL     1      -2.623  12.039  23.163  0.00  0.00    +0.000 C 
ENDBRANCH  27  29
ENDBRANCH  25  27
ENDBRANCH  24  25
ENDBRANCH  23  24
ENDBRANCH   1  23
TORSDOF 10
ENDMDL
MODEL 9
REMARK VINA RESULT:      -6.5      1.665      2.000
REMARK  Name = 
REMARK  12 active torsions:
REMARK  status: ('A' for Active; 'I' for Inactive)
REMARK    1  A    between atoms: C_1  and  C_2
REMARK    2  A    between atoms: C_2  and  O_3
REMARK    3  A    between atoms: O_3  and  C_4
REMARK    4  A    between atoms: C_4  and  C_6
REMARK    5  A    between atoms: C_6  and  O_7
REMARK    6  A    between atoms: O_7  and  C_8
REMARK    7  A    between atoms: C_11  and  C_12
REMARK    8  A    between atoms: C_12  and  C_14
REMARK    9  A    between atoms: C_17  and  O_18
REMARK   10  A    between atoms: O_18  and  C_19
REMARK   11  A    between atoms: C_20  and  C_21
REMARK   12  A    between atoms: C_21  and  N_22
REMARK                            x       y       z     vdW  Elec       q    Type
REMARK                         _______ _______ _______ _____ _____    ______ ____
ROOT
ATOM      1  C   UNL     1       2.572   7.230  18.440  0.00  0.00    +0.000 A 
ATOM      2  C   UNL     1       2.564   8.321  17.564  0.00  0.00    +0.000 A 
ATOM      3  C   UNL     1       2.023   9.549  17.947  0.00  0.00    +0.000 A 
ATOM      4  C   UNL     1       1.415   9.694  19.206  0.00  0.00    +0.000 A 
ATOM      5  C   UNL     1       1.320   8.573  20.049  0.00  0.00    +0.000 A 
ATOM      6 CL   UNL     1       0.273   8.586  21.449  0.00  0.00    +0.000 Cl
ATOM      7  C   UNL     1       1.960   7.359  19.702  0.00  0.00    +0.000 A 
ATOM      8 CL   UNL     1       1.920   6.057  20.860  0.00  0.00    +0.000 Cl
ENDROOT
BRANCH   4   9
ATOM      9  C   UNL     1       0.850  11.045  19.501  0.00  0.00    +0.000 C 
ATOM     10  O   UNL     1       1.626  11.967  19.735  0.00  0.00    +0.000 OA
BRANCH   9  11
ATOM     11  C   UNL     1      -0.612  11.317  19.516  0.00  0.00    +0.000 A 
ATOM     12  C   UNL     1      -1.139  12.026  20.587  0.00  0.00    +0.000 A 
ATOM     13  C   UNL     1      -2.481  12.405  20.563  0.00  0.00    +0.000 A 
ATOM     14  C   UNL     1      -3.305  12.137  19.452  0.00  0.00    +0.000 A 
ATOM     15  C   UNL     1      -2.784  11.421  18.356  0.00  0.00    +0.000 A 
ATOM     16  C   UNL     1      -1.452  10.947  18.460  0.00  0.00    +0.000 A 
BRANCH  14  17
ATOM     17  O   UNL     1      -4.595  12.537  19.671  0.00  0.00    +0.000 OA
ATOM     18  C   UNL     1      -4.841  13.729  20.399  0.00  0.00    +0.000 C 
ENDBRANCH  14  17
BRANCH  15  19
ATOM     19  C   UNL     1      -3.556  11.067  17.106  0.00  0.00    +0.000 C 
BRANCH  19  20
ATOM     20  N   UNL     1      -4.579  12.060  16.744  0.00  0.00    +0.000 NA
ATOM     21  H   UNL     1      -4.127  12.794  16.196  0.00  0.00    +0.000 HD
ATOM     22  H   UNL     1      -4.901  12.516  17.597  0.00  0.00    +0.000 HD
ENDBRANCH  19  20
ENDBRANCH  15  19
ENDBRANCH   9  11
ENDBRANCH   4   9
BRANCH   1  23
ATOM     23  O   UNL     1       3.138   6.130  17.858  0.00  0.00    +0.000 OA
BRANCH  23  24
ATOM     24  C   UNL     1       4.517   5.879  18.066  0.00  0.00    +0.000 C 
BRANCH  24  25
ATOM     25  C   UNL     1       4.758   4.429  18.413  0.00  0.00    +0.000 C 
ATOM     26  O   UNL     1       5.438   4.009  19.343  0.00  0.00    +0.000 OA
BRANCH  25  27
ATOM     27  O   UNL     1       4.194   3.652  17.442  0.00  0.00    +0.000 OA
BRANCH  27  29
ATOM     28  C   UNL     1       2.071   2.740  18.015  0.00  0.00    +0.000 C 
ATOM     29  C   UNL     1       3.561   2.462  17.921  0.00  0.00    +0.000 C 
ENDBRANCH  27  29
ENDBRANCH  25  27
ENDBRANCH  24  25
ENDBRANCH  23  24
ENDBRANCH   1  23
TORSDOF 10
ENDMDL
