MODEL 1
REMARK VINA RESULT:      -7.2      0.000      0.000
REMARK  Name = 
REMARK  7 active torsions:
REMARK  status: ('A' for Active; 'I' for Inactive)
REMARK    1  A    between atoms: C_1  and  C_2
REMARK    2  A    between atoms: C_2  and  C_3
REMARK    3  A    between atoms: C_3  and  C_16
REMARK    4  A    between atoms: N_4  and  N_5
REMARK    5  A    between atoms: C_6  and  C_8
REMARK    6  A    between atoms: C_14  and  O_15
REMARK    7  A    between atoms: N_24  and  C_25
REMARK                            x       y       z     vdW  Elec       q    Type
REMARK                         _______ _______ _______ _____ _____    ______ ____
ROOT
ATOM      1  C   UNL     1       0.953   9.648  19.465  0.00  0.00    +0.000 C 
ATOM      2  N   UNL     1       1.683   8.708  19.992  0.00  0.00    +0.000 NA
ENDROOT
BRANCH   1   3
ATOM      3  C   UNL     1       0.427  10.696  20.346  0.00  0.00    +0.000 A 
ATOM      4  C   UNL     1      -0.540  10.562  21.336  0.00  0.00    +0.000 A 
ATOM      5  C   UNL     1      -0.719  11.802  21.995  0.00  0.00    +0.000 A 
ATOM      6  C   UNL     1      -1.542  12.224  23.058  0.00  0.00    +0.000 A 
ATOM      7  C   UNL     1      -1.485  13.552  23.489  0.00  0.00    +0.000 A 
ATOM      8  C   UNL     1      -0.612  14.450  22.885  0.00  0.00    +0.000 A 
ATOM      9  C   UNL     1       0.219  14.048  21.835  0.00  0.00    +0.000 A 
ATOM     10  C   UNL     1       0.146  12.713  21.394  0.00  0.00    +0.000 A 
ATOM     11  N   UNL     1       0.810  12.036  20.382  0.00  0.00    +0.000 N 
ATOM     12  C   UNL     1       1.778  12.659  19.495  0.00  0.00    +0.000 C 
ENDBRANCH   1   3
BRANCH   2  13
ATOM     13  N   UNL     1       2.231   7.762  19.183  0.00  0.00    +0.000 N 
ATOM     14  C   UNL     1       2.287   6.431  19.560  0.00  0.00    +0.000 C 
ATOM     15  O   UNL     1       1.827   5.979  20.606  0.00  0.00    +0.000 OA
ATOM     16  H   UNL     1       2.668   8.040  18.308  0.00  0.00    +0.000 HD
BRANCH  14  17
ATOM     17  C   UNL     1       2.925   5.498  18.567  0.00  0.00    +0.000 A 
ATOM     18  C   UNL     1       4.151   5.887  18.002  0.00  0.00    +0.000 A 
ATOM     19  C   UNL     1       4.807   5.051  17.096  0.00  0.00    +0.000 A 
ATOM     20 BR   UNL     1       6.459   5.578  16.343  0.00  0.00    +0.000 Br
ATOM     21  C   UNL     1       4.256   3.824  16.739  0.00  0.00    +0.000 A 
ATOM     22  C   UNL     1       3.034   3.426  17.283  0.00  0.00    +0.000 A 
ATOM     23  C   UNL     1       2.376   4.265  18.189  0.00  0.00    +0.000 A 
BRANCH  23  24
ATOM     24  O   UNL     1       1.172   3.841  18.703  0.00  0.00    +0.000 OA
ATOM     25  H   UNL     1       1.260   3.740  19.670  0.00  0.00    +0.000 HD
ENDBRANCH  23  24
ENDBRANCH  14  17
ENDBRANCH   2  13
BRANCH   1  27
ATOM     26  C   UNL     1      -0.914  10.045  17.741  0.00  0.00    +0.000 C 
ATOM     27  C   UNL     1       0.539   9.678  17.985  0.00  0.00    +0.000 C 
ENDBRANCH   1  27
TORSDOF 5
ENDMDL
MODEL 2
REMARK VINA RESULT:      -6.9      3.441      8.397
REMARK  Name = 
REMARK  7 active torsions:
REMARK  status: ('A' for Active; 'I' for Inactive)
REMARK    1  A    between atoms: C_1  and  C_2
REMARK    2  A    between atoms: C_2  and  C_3
REMARK    3  A    between atoms: C_3  and  C_16
REMARK    4  A    between atoms: N_4  and  N_5
REMARK    5  A    between atoms: C_6  and  C_8
REMARK    6  A    between atoms: C_14  and  O_15
REMARK    7  A    between atoms: N_24  and  C_25
REMARK                            x       y       z     vdW  Elec       q    Type
REMARK                         _______ _______ _______ _____ _____    ______ ____
ROOT
ATOM      1  C   UNL     1       1.781   7.922  19.909  0.00  0.00    +0.000 C 
ATOM      2  N   UNL     1       1.816   8.721  18.882  0.00  0.00    +0.000 NA
ENDROOT
BRANCH   1   3
ATOM      3  C   UNL     1       1.985   6.488  19.682  0.00  0.00    +0.000 A 
ATOM      4  C   UNL     1       1.394   5.431  20.366  0.00  0.00    +0.000 A 
ATOM      5  C   UNL     1       1.816   4.205  19.798  0.00  0.00    +0.000 A 
ATOM      6  C   UNL     1       1.525   2.856  20.082  0.00  0.00    +0.000 A 
ATOM      7  C   UNL     1       2.119   1.847  19.319  0.00  0.00    +0.000 A 
ATOM      8  C   UNL     1       2.980   2.170  18.277  0.00  0.00    +0.000 A 
ATOM      9  C   UNL     1       3.274   3.503  17.973  0.00  0.00    +0.000 A 
ATOM     10  C   UNL     1       2.686   4.514  18.756  0.00  0.00    +0.000 A 
ATOM     11  N   UNL     1       2.799   5.896  18.717  0.00  0.00    +0.000 N 
ATOM     12  C   UNL     1       3.652   6.610  17.783  0.00  0.00    +0.000 C 
ENDBRANCH   1   3
BRANCH   2  13
ATOM     13  N   UNL     1       1.690  10.060  19.077  0.00  0.00    +0.000 N 
ATOM     14  C   UNL     1       0.523  10.733  18.759  0.00  0.00    +0.000 C 
ATOM     15  O   UNL     1      -0.496  10.201  18.324  0.00  0.00    +0.000 OA
ATOM     16  H   UNL     1       2.489  10.598  19.405  0.00  0.00    +0.000 HD
BRANCH  14  17
ATOM     17  C   UNL     1       0.530  12.213  19.025  0.00  0.00    +0.000 A 
ATOM     18  C   UNL     1       1.439  12.700  19.980  0.00  0.00    +0.000 A 
ATOM     19  C   UNL     1       1.514  14.067  20.251  0.00  0.00    +0.000 A 
ATOM     20 BR   UNL     1       2.742  14.715  21.534  0.00  0.00    +0.000 Br
ATOM     21  C   UNL     1       0.690  14.968  19.581  0.00  0.00    +0.000 A 
ATOM     22  C   UNL     1      -0.225  14.501  18.637  0.00  0.00    +0.000 A 
ATOM     23  C   UNL     1      -0.302  13.130  18.367  0.00  0.00    +0.000 A 
BRANCH  23  24
ATOM     24  O   UNL     1      -1.217  12.707  17.432  0.00  0.00    +0.000 OA
ATOM     25  H   UNL     1      -1.735  11.970  17.809  0.00  0.00    +0.000 HD
ENDBRANCH  23  24
ENDBRANCH  14  17
ENDBRANCH   2  13
BRANCH   1  27
ATOM     26  C   UNL     1      -0.029   8.520  21.636  0.00  0.00    +0.000 C 
ATOM     27  C   UNL     1       1.454   8.387  21.338  0.00  0.00    +0.000 C 
ENDBRANCH   1  27
TORSDOF 5
ENDMDL
MODEL 3
REMARK VINA RESULT:      -6.9      4.025      8.993
REMARK  Name = 
REMARK  7 active torsions:
REMARK  status: ('A' for Active; 'I' for Inactive)
REMARK    1  A    between atoms: C_1  and  C_2
REMARK    2  A    between atoms: C_2  and  C_3
REMARK    3  A    between atoms: C_3  and  C_16
REMARK    4  A    between atoms: N_4  and  N_5
REMARK    5  A    between atoms: C_6  and  C_8
REMARK    6  A    between atoms: C_14  and  O_15
REMARK    7  A    between atoms: N_24  and  C_25
REMARK                            x       y       z     vdW  Elec       q    Type
REMARK                         _______ _______ _______ _____ _____    ______ ____
ROOT
ATOM      1  C   UNL     1       0.684  10.092  19.615  0.00  0.00    +0.000 C 
ATOM      2  N   UNL     1       0.762  10.450  20.864  0.00  0.00    +0.000 NA
ENDROOT
BRANCH   1   3
ATOM      3  C   UNL     1       1.534   8.990  19.153  0.00  0.00    +0.000 A 
ATOM      4  C   UNL     1       2.249   8.915  17.964  0.00  0.00    +0.000 A 
ATOM      5  C   UNL     1       2.988   7.708  17.930  0.00  0.00    +0.000 A 
ATOM      6  C   UNL     1       3.872   7.140  16.992  0.00  0.00    +0.000 A 
ATOM      7  C   UNL     1       4.456   5.898  17.259  0.00  0.00    +0.000 A 
ATOM      8  C   UNL     1       4.179   5.233  18.447  0.00  0.00    +0.000 A 
ATOM      9  C   UNL     1       3.312   5.785  19.395  0.00  0.00    +0.000 A 
ATOM     10  C   UNL     1       2.714   7.027  19.114  0.00  0.00    +0.000 A 
ATOM     11  N   UNL     1       1.813   7.803  19.829  0.00  0.00    +0.000 N 
ATOM     12  C   UNL     1       1.253   7.413  21.111  0.00  0.00    +0.000 C 
ENDBRANCH   1   3
BRANCH   2  13
ATOM     13  N   UNL     1      -0.062  11.428  21.327  0.00  0.00    +0.000 N 
ATOM     14  C   UNL     1      -0.614  11.371  22.595  0.00  0.00    +0.000 C 
ATOM     15  O   UNL     1      -0.391  10.485  23.416  0.00  0.00    +0.000 OA
ATOM     16  H   UNL     1      -0.334  12.191  20.710  0.00  0.00    +0.000 HD
BRANCH  14  17
ATOM     17  C   UNL     1      -1.509  12.520  22.969  0.00  0.00    +0.000 A 
ATOM     18  C   UNL     1      -2.855  12.234  23.250  0.00  0.00    +0.000 A 
ATOM     19  C   UNL     1      -3.729  13.254  23.632  0.00  0.00    +0.000 A 
ATOM     20 BR   UNL     1      -5.539  12.860  24.013  0.00  0.00    +0.000 Br
ATOM     21  C   UNL     1      -3.280  14.567  23.739  0.00  0.00    +0.000 A 
ATOM     22  C   UNL     1      -1.948  14.872  23.455  0.00  0.00    +0.000 A 
ATOM     23  C   UNL     1      -1.073  13.849  23.070  0.00  0.00    +0.000 A 
BRANCH  23  24
ATOM     24  O   UNL     1       0.232  14.187  22.795  0.00  0.00    +0.000 OA
ATOM     25  H   UNL     1       0.812  13.768  23.458  0.00  0.00    +0.000 HD
ENDBRANCH  23  24
ENDBRANCH  14  17
ENDBRANCH   2  13
BRANCH   1  27
ATOM     26  C   UNL     1      -1.499  10.117  18.254  0.00  0.00    +0.000 C 
ATOM     27  C   UNL     1      -0.188  10.814  18.574  0.00  0.00    +0.000 C 
ENDBRANCH   1  27
TORSDOF 5
ENDMDL
MODEL 4
REMARK VINA RESULT:      -6.8      0.882      1.659
REMARK  Name = 
REMARK  7 active torsions:
REMARK  status: ('A' for Active; 'I' for Inactive)
REMARK    1  A    between atoms: C_1  and  C_2
REMARK    2  A    between atoms: C_2  and  C_3
REMARK    3  A    between atoms: C_3  and  C_16
REMARK    4  A    between atoms: N_4  and  N_5
REMARK    5  A    between atoms: C_6  and  C_8
REMARK    6  A    between atoms: C_14  and  O_15
REMARK    7  A    between atoms: N_24  and  C_25
REMARK                            x       y       z     vdW  Elec       q    Type
REMARK                         _______ _______ _______ _____ _____    ______ ____
ROOT
ATOM      1  C   UNL     1       1.238   9.350  19.593  0.00  0.00    +0.000 C 
ATOM      2  N   UNL     1       1.851   8.352  20.160  0.00  0.00    +0.000 NA
ENDROOT
BRANCH   1   3
ATOM      3  C   UNL     1       0.690  10.407  20.449  0.00  0.00    +0.000 A 
ATOM      4  C   UNL     1       0.908  11.776  20.347  0.00  0.00    +0.000 A 
ATOM      5  C   UNL     1       0.147  12.452  21.332  0.00  0.00    +0.000 A 
ATOM      6  C   UNL     1      -0.016  13.811  21.665  0.00  0.00    +0.000 A 
ATOM      7  C   UNL     1      -0.861  14.165  22.721  0.00  0.00    +0.000 A 
ATOM      8  C   UNL     1      -1.547  13.186  23.430  0.00  0.00    +0.000 A 
ATOM      9  C   UNL     1      -1.406  11.833  23.108  0.00  0.00    +0.000 A 
ATOM     10  C   UNL     1      -0.541  11.481  22.055  0.00  0.00    +0.000 A 
ATOM     11  N   UNL     1      -0.181  10.250  21.527  0.00  0.00    +0.000 N 
ATOM     12  C   UNL     1      -0.665   8.980  22.039  0.00  0.00    +0.000 C 
ENDBRANCH   1   3
BRANCH   2  13
ATOM     13  N   UNL     1       2.421   7.394  19.382  0.00  0.00    +0.000 N 
ATOM     14  C   UNL     1       2.303   6.048  19.686  0.00  0.00    +0.000 C 
ATOM     15  O   UNL     1       1.660   5.598  20.631  0.00  0.00    +0.000 OA
ATOM     16  H   UNL     1       3.001   7.666  18.591  0.00  0.00    +0.000 HD
BRANCH  14  17
ATOM     17  C   UNL     1       2.987   5.103  18.738  0.00  0.00    +0.000 A 
ATOM     18  C   UNL     1       3.781   5.660  17.722  0.00  0.00    +0.000 A 
ATOM     19  C   UNL     1       4.466   4.833  16.828  0.00  0.00    +0.000 A 
ATOM     20 BR   UNL     1       5.536   5.590  15.465  0.00  0.00    +0.000 Br
ATOM     21  C   UNL     1       4.370   3.448  16.930  0.00  0.00    +0.000 A 
ATOM     22  C   UNL     1       3.578   2.878  17.927  0.00  0.00    +0.000 A 
ATOM     23  C   UNL     1       2.891   3.706  18.822  0.00  0.00    +0.000 A 
BRANCH  23  24
ATOM     24  O   UNL     1       2.118   3.109  19.790  0.00  0.00    +0.000 OA
ATOM     25  H   UNL     1       1.177   3.272  19.587  0.00  0.00    +0.000 HD
ENDBRANCH  23  24
ENDBRANCH  14  17
ENDBRANCH   2  13
BRANCH   1  27
ATOM     26  C   UNL     1      -0.446   9.803  17.702  0.00  0.00    +0.000 C 
ATOM     27  C   UNL     1       0.980   9.443  18.080  0.00  0.00    +0.000 C 
ENDBRANCH   1  27
TORSDOF 5
ENDMDL
MODEL 5
REMARK VINA RESULT:      -6.8      1.285      1.759
REMARK  Name = 
REMARK  7 active torsions:
REMARK  status: ('A' for Active; 'I' for Inactive)
REMARK    1  A    between atoms: C_1  and  C_2
REMARK    2  A    between atoms: C_2  and  C_3
REMARK    3  A    between atoms: C_3  and  C_16
REMARK    4  A    between atoms: N_4  and  N_5
REMARK    5  A    between atoms: C_6  and  C_8
REMARK    6  A    between atoms: C_14  and  O_15
REMARK    7  A    between atoms: N_24  and  C_25
REMARK                            x       y       z     vdW  Elec       q    Type
REMARK                         _______ _______ _______ _____ _____    ______ ____
ROOT
ATOM      1  C   UNL     1       1.128   9.519  19.373  0.00  0.00    +0.000 C 
ATOM      2  N   UNL     1       1.388   8.334  19.845  0.00  0.00    +0.000 NA
ENDROOT
BRANCH   1   3
ATOM      3  C   UNL     1       0.222  10.387  20.133  0.00  0.00    +0.000 A 
ATOM      4  C   UNL     1       0.393  10.858  21.430  0.00  0.00    +0.000 A 
ATOM      5  C   UNL     1      -0.683  11.713  21.768  0.00  0.00    +0.000 A 
ATOM      6  C   UNL     1      -1.003  12.457  22.922  0.00  0.00    +0.000 A 
ATOM      7  C   UNL     1      -2.171  13.224  22.946  0.00  0.00    +0.000 A 
ATOM      8  C   UNL     1      -3.006  13.267  21.835  0.00  0.00    +0.000 A 
ATOM      9  C   UNL     1      -2.701  12.544  20.677  0.00  0.00    +0.000 A 
ATOM     10  C   UNL     1      -1.532  11.760  20.665  0.00  0.00    +0.000 A 
ATOM     11  N   UNL     1      -0.985  10.932  19.697  0.00  0.00    +0.000 N 
ATOM     12  C   UNL     1      -1.601  10.685  18.405  0.00  0.00    +0.000 C 
ENDBRANCH   1   3
BRANCH   2  13
ATOM     13  N   UNL     1       2.272   7.537  19.188  0.00  0.00    +0.000 N 
ATOM     14  C   UNL     1       2.346   6.177  19.435  0.00  0.00    +0.000 C 
ATOM     15  O   UNL     1       1.617   5.567  20.214  0.00  0.00    +0.000 OA
ATOM     16  H   UNL     1       2.942   7.952  18.544  0.00  0.00    +0.000 HD
BRANCH  14  17
ATOM     17  C   UNL     1       3.374   5.423  18.638  0.00  0.00    +0.000 A 
ATOM     18  C   UNL     1       4.726   5.738  18.854  0.00  0.00    +0.000 A 
ATOM     19  C   UNL     1       5.729   5.052  18.166  0.00  0.00    +0.000 A 
ATOM     20 BR   UNL     1       7.546   5.478  18.465  0.00  0.00    +0.000 Br
ATOM     21  C   UNL     1       5.404   4.051  17.255  0.00  0.00    +0.000 A 
ATOM     22  C   UNL     1       4.066   3.731  17.021  0.00  0.00    +0.000 A 
ATOM     23  C   UNL     1       3.061   4.420  17.710  0.00  0.00    +0.000 A 
BRANCH  23  24
ATOM     24  O   UNL     1       1.754   4.080  17.451  0.00  0.00    +0.000 OA
ATOM     25  H   UNL     1       1.468   3.408  18.100  0.00  0.00    +0.000 HD
ENDBRANCH  23  24
ENDBRANCH  14  17
ENDBRANCH   2  13
BRANCH   1  27
ATOM     26  C   UNL     1       2.289  11.407  18.069  0.00  0.00    +0.000 C 
ATOM     27  C   UNL     1       1.649  10.030  18.020  0.00  0.00    +0.000 C 
ENDBRANCH   1  27
TORSDOF 5
ENDMDL
MODEL 6
REMARK VINA RESULT:      -6.8      1.429      1.738
REMARK  Name = 
REMARK  7 active torsions:
REMARK  status: ('A' for Active; 'I' for Inactive)
REMARK    1  A    between atoms: C_1  and  C_2
REMARK    2  A    between atoms: C_2  and  C_3
REMARK    3  A    between atoms: C_3  and  C_16
REMARK    4  A    between atoms: N_4  and  N_5
REMARK    5  A    between atoms: C_6  and  C_8
REMARK    6  A    between atoms: C_14  and  O_15
REMARK    7  A    between atoms: N_24  and  C_25
REMARK                            x       y       z     vdW  Elec       q    Type
REMARK                         _______ _______ _______ _____ _____    ______ ____
ROOT
ATOM      1  C   UNL     1       0.921   9.637  19.683  0.00  0.00    +0.000 C 
ATOM      2  N   UNL     1       1.574   8.655  20.236  0.00  0.00    +0.000 NA
ENDROOT
BRANCH   1   3
ATOM      3  C   UNL     1       0.286  10.628  20.557  0.00  0.00    +0.000 A 
ATOM      4  C   UNL     1      -0.784  10.430  21.423  0.00  0.00    +0.000 A 
ATOM      5  C   UNL     1      -1.053  11.629  22.125  0.00  0.00    +0.000 A 
ATOM      6  C   UNL     1      -1.996  11.983  23.111  0.00  0.00    +0.000 A 
ATOM      7  C   UNL     1      -2.006  13.285  23.619  0.00  0.00    +0.000 A 
ATOM      8  C   UNL     1      -1.084  14.223  23.167  0.00  0.00    +0.000 A 
ATOM      9  C   UNL     1      -0.135  13.888  22.197  0.00  0.00    +0.000 A 
ATOM     10  C   UNL     1      -0.140  12.580  21.676  0.00  0.00    +0.000 A 
ATOM     11  N   UNL     1       0.643  11.967  20.710  0.00  0.00    +0.000 N 
ATOM     12  C   UNL     1       1.694  12.647  19.973  0.00  0.00    +0.000 C 
ENDBRANCH   1   3
BRANCH   2  13
ATOM     13  N   UNL     1       2.222   7.759  19.445  0.00  0.00    +0.000 N 
ATOM     14  C   UNL     1       2.292   6.417  19.775  0.00  0.00    +0.000 C 
ATOM     15  O   UNL     1       1.759   5.910  20.759  0.00  0.00    +0.000 OA
ATOM     16  H   UNL     1       2.724   8.086  18.622  0.00  0.00    +0.000 HD
BRANCH  14  17
ATOM     17  C   UNL     1       3.045   5.545  18.809  0.00  0.00    +0.000 A 
ATOM     18  C   UNL     1       2.979   4.155  18.998  0.00  0.00    +0.000 A 
ATOM     19  C   UNL     1       3.633   3.291  18.116  0.00  0.00    +0.000 A 
ATOM     20 BR   UNL     1       3.537   1.421  18.374  0.00  0.00    +0.000 Br
ATOM     21  C   UNL     1       4.359   3.794  17.040  0.00  0.00    +0.000 A 
ATOM     22  C   UNL     1       4.442   5.173  16.842  0.00  0.00    +0.000 A 
ATOM     23  C   UNL     1       3.789   6.038  17.727  0.00  0.00    +0.000 A 
BRANCH  23  24
ATOM     24  O   UNL     1       3.895   7.391  17.503  0.00  0.00    +0.000 OA
ATOM     25  H   UNL     1       3.154   7.676  16.935  0.00  0.00    +0.000 HD
ENDBRANCH  23  24
ENDBRANCH  14  17
ENDBRANCH   2  13
BRANCH   1  27
ATOM     26  C   UNL     1      -0.740   9.958  17.746  0.00  0.00    +0.000 C 
ATOM     27  C   UNL     1       0.708   9.770  18.167  0.00  0.00    +0.000 C 
ENDBRANCH   1  27
TORSDOF 5
ENDMDL
MODEL 7
REMARK VINA RESULT:      -6.8      3.391      8.966
REMARK  Name = 
REMARK  7 active torsions:
REMARK  status: ('A' for Active; 'I' for Inactive)
REMARK    1  A    between atoms: C_1  and  C_2
REMARK    2  A    between atoms: C_2  and  C_3
REMARK    3  A    between atoms: C_3  and  C_16
REMARK    4  A    between atoms: N_4  and  N_5
REMARK    5  A    between atoms: C_6  and  C_8
REMARK    6  A    between atoms: C_14  and  O_15
REMARK    7  A    between atoms: N_24  and  C_25
REMARK                            x       y       z     vdW  Elec       q    Type
REMARK                         _______ _______ _______ _____ _____    ______ ____
ROOT
ATOM      1  C   UNL     1       2.845   6.757  19.090  0.00  0.00    +0.000 C 
ATOM      2  N   UNL     1       2.211   7.852  18.785  0.00  0.00    +0.000 NA
ENDROOT
BRANCH   1   3
ATOM      3  C   UNL     1       3.749   6.177  18.091  0.00  0.00    +0.000 A 
ATOM      4  C   UNL     1       4.970   6.682  17.660  0.00  0.00    +0.000 A 
ATOM      5  C   UNL     1       5.552   5.788  16.729  0.00  0.00    +0.000 A 
ATOM      6  C   UNL     1       6.760   5.796  16.004  0.00  0.00    +0.000 A 
ATOM      7  C   UNL     1       7.052   4.737  15.141  0.00  0.00    +0.000 A 
ATOM      8  C   UNL     1       6.165   3.675  15.006  0.00  0.00    +0.000 A 
ATOM      9  C   UNL     1       4.965   3.644  15.724  0.00  0.00    +0.000 A 
ATOM     10  C   UNL     1       4.669   4.722  16.580  0.00  0.00    +0.000 A 
ATOM     11  N   UNL     1       3.573   4.985  17.389  0.00  0.00    +0.000 N 
ATOM     12  C   UNL     1       2.411   4.118  17.480  0.00  0.00    +0.000 C 
ENDBRANCH   1   3
BRANCH   2  13
ATOM     13  N   UNL     1       1.416   8.441  19.718  0.00  0.00    +0.000 N 
ATOM     14  C   UNL     1       1.112   9.790  19.665  0.00  0.00    +0.000 C 
ATOM     15  O   UNL     1       1.481  10.557  18.778  0.00  0.00    +0.000 OA
ATOM     16  H   UNL     1       1.084   7.897  20.512  0.00  0.00    +0.000 HD
BRANCH  14  17
ATOM     17  C   UNL     1       0.225  10.303  20.766  0.00  0.00    +0.000 A 
ATOM     18  C   UNL     1      -0.720  11.288  20.435  0.00  0.00    +0.000 A 
ATOM     19  C   UNL     1      -1.593  11.783  21.407  0.00  0.00    +0.000 A 
ATOM     20 BR   UNL     1      -2.865  13.107  20.954  0.00  0.00    +0.000 Br
ATOM     21  C   UNL     1      -1.537  11.311  22.715  0.00  0.00    +0.000 A 
ATOM     22  C   UNL     1      -0.598  10.339  23.063  0.00  0.00    +0.000 A 
ATOM     23  C   UNL     1       0.277   9.844  22.090  0.00  0.00    +0.000 A 
BRANCH  23  24
ATOM     24  O   UNL     1       1.190   8.889  22.470  0.00  0.00    +0.000 OA
ATOM     25  H   UNL     1       1.263   8.891  23.443  0.00  0.00    +0.000 HD
ENDBRANCH  23  24
ENDBRANCH  14  17
ENDBRANCH   2  13
BRANCH   1  27
ATOM     26  C   UNL     1       1.383   5.134  20.448  0.00  0.00    +0.000 C 
ATOM     27  C   UNL     1       2.638   5.990  20.406  0.00  0.00    +0.000 C 
ENDBRANCH   1  27
TORSDOF 5
ENDMDL
MODEL 8
REMARK VINA RESULT:      -6.7      3.728      8.877
REMARK  Name = 
REMARK  7 active torsions:
REMARK  status: ('A' for Active; 'I' for Inactive)
REMARK    1  A    between atoms: C_1  and  C_2
REMARK    2  A    between atoms: C_2  and  C_3
REMARK    3  A    between atoms: C_3  and  C_16
REMARK    4  A    between atoms: N_4  and  N_5
REMARK    5  A    between atoms: C_6  and  C_8
REMARK    6  A    between atoms: C_14  and  O_15
REMARK    7  A    between atoms: N_24  and  C_25
REMARK                            x       y       z     vdW  Elec       q    Type
REMARK                         _______ _______ _______ _____ _____    ______ ____
ROOT
ATOM      1  C   UNL     1       1.445   9.031  19.346  0.00  0.00    +0.000 C 
ATOM      2  N   UNL     1       1.129   9.179  20.601  0.00  0.00    +0.000 NA
ENDROOT
BRANCH   1   3
ATOM      3  C   UNL     1       2.198   7.835  18.955  0.00  0.00    +0.000 A 
ATOM      4  C   UNL     1       3.023   7.680  17.848  0.00  0.00    +0.000 A 
ATOM      5  C   UNL     1       3.607   6.390  17.868  0.00  0.00    +0.000 A 
ATOM      6  C   UNL     1       4.510   5.723  17.017  0.00  0.00    +0.000 A 
ATOM      7  C   UNL     1       4.904   4.416  17.319  0.00  0.00    +0.000 A 
ATOM      8  C   UNL     1       4.419   3.781  18.457  0.00  0.00    +0.000 A 
ATOM      9  C   UNL     1       3.529   4.430  19.318  0.00  0.00    +0.000 A 
ATOM     10  C   UNL     1       3.124   5.740  19.001  0.00  0.00    +0.000 A 
ATOM     11  N   UNL     1       2.253   6.617  19.632  0.00  0.00    +0.000 N 
ATOM     12  C   UNL     1       1.514   6.290  20.838  0.00  0.00    +0.000 C 
ENDBRANCH   1   3
BRANCH   2  13
ATOM     13  N   UNL     1       0.379  10.249  20.975  0.00  0.00    +0.000 N 
ATOM     14  C   UNL     1       0.080  10.496  22.304  0.00  0.00    +0.000 C 
ATOM     15  O   UNL     1       0.484   9.822  23.249  0.00  0.00    +0.000 OA
ATOM     16  H   UNL     1      -0.029  10.852  20.263  0.00  0.00    +0.000 HD
BRANCH  14  17
ATOM     17  C   UNL     1      -0.762  11.714  22.568  0.00  0.00    +0.000 A 
ATOM     18  C   UNL     1      -1.982  11.529  23.240  0.00  0.00    +0.000 A 
ATOM     19  C   UNL     1      -2.795  12.624  23.540  0.00  0.00    +0.000 A 
ATOM     20 BR   UNL     1      -4.434  12.369  24.447  0.00  0.00    +0.000 Br
ATOM     21  C   UNL     1      -2.410  13.912  23.178  0.00  0.00    +0.000 A 
ATOM     22  C   UNL     1      -1.205  14.113  22.502  0.00  0.00    +0.000 A 
ATOM     23  C   UNL     1      -0.392  13.015  22.199  0.00  0.00    +0.000 A 
BRANCH  23  24
ATOM     24  O   UNL     1       0.786  13.251  21.530  0.00  0.00    +0.000 OA
ATOM     25  H   UNL     1       1.209  14.046  21.907  0.00  0.00    +0.000 HD
ENDBRANCH  23  24
ENDBRANCH  14  17
ENDBRANCH   2  13
BRANCH   1  27
ATOM     26  C   UNL     1       2.149  11.221  18.196  0.00  0.00    +0.000 C 
ATOM     27  C   UNL     1       1.147  10.081  18.264  0.00  0.00    +0.000 C 
ENDBRANCH   1  27
TORSDOF 5
ENDMDL
MODEL 9
REMARK VINA RESULT:      -6.7      0.877      1.006
REMARK  Name = 
REMARK  7 active torsions:
REMARK  status: ('A' for Active; 'I' for Inactive)
REMARK    1  A    between atoms: C_1  and  C_2
REMARK    2  A    between atoms: C_2  and  C_3
REMARK    3  A    between atoms: C_3  and  C_16
REMARK    4  A    between atoms: N_4  and  N_5
REMARK    5  A    between atoms: C_6  and  C_8
REMARK    6  A    between atoms: C_14  and  O_15
REMARK    7  A    between atoms: N_24  and  C_25
REMARK                            x       y       z     vdW  Elec       q    Type
REMARK                         _______ _______ _______ _____ _____    ______ ____
ROOT
ATOM      1  C   UNL     1       1.000   9.335  19.931  0.00  0.00    +0.000 C 
ATOM      2  N   UNL     1       1.632   8.365  20.527  0.00  0.00    +0.000 NA
ENDROOT
BRANCH   1   3
ATOM      3  C   UNL     1       0.309  10.327  20.762  0.00  0.00    +0.000 A 
ATOM      4  C   UNL     1      -0.746  10.107  21.640  0.00  0.00    +0.000 A 
ATOM      5  C   UNL     1      -1.083  11.319  22.288  0.00  0.00    +0.000 A 
ATOM      6  C   UNL     1      -2.044  11.663  23.261  0.00  0.00    +0.000 A 
ATOM      7  C   UNL     1      -2.129  12.984  23.709  0.00  0.00    +0.000 A 
ATOM      8  C   UNL     1      -1.265  13.952  23.211  0.00  0.00    +0.000 A 
ATOM      9  C   UNL     1      -0.299  13.629  22.253  0.00  0.00    +0.000 A 
ATOM     10  C   UNL     1      -0.228  12.300  21.793  0.00  0.00    +0.000 A 
ATOM     11  N   UNL     1       0.588  11.690  20.852  0.00  0.00    +0.000 N 
ATOM     12  C   UNL     1       1.597  12.396  20.081  0.00  0.00    +0.000 C 
ENDBRANCH   1   3
BRANCH   2  13
ATOM     13  N   UNL     1       2.330   7.470  19.778  0.00  0.00    +0.000 N 
ATOM     14  C   UNL     1       2.216   6.106  19.985  0.00  0.00    +0.000 C 
ATOM     15  O   UNL     1       1.467   5.583  20.807  0.00  0.00    +0.000 OA
ATOM     16  H   UNL     1       3.002   7.804  19.091  0.00  0.00    +0.000 HD
BRANCH  14  17
ATOM     17  C   UNL     1       3.051   5.237  19.086  0.00  0.00    +0.000 A 
ATOM     18  C   UNL     1       4.430   5.497  19.026  0.00  0.00    +0.000 A 
ATOM     19  C   UNL     1       5.263   4.707  18.231  0.00  0.00    +0.000 A 
ATOM     20 BR   UNL     1       7.119   5.060  18.158  0.00  0.00    +0.000 Br
ATOM     21  C   UNL     1       4.741   3.653  17.488  0.00  0.00    +0.000 A 
ATOM     22  C   UNL     1       3.371   3.386  17.528  0.00  0.00    +0.000 A 
ATOM     23  C   UNL     1       2.536   4.179  18.323  0.00  0.00    +0.000 A 
BRANCH  23  24
ATOM     24  O   UNL     1       1.192   3.889  18.336  0.00  0.00    +0.000 OA
ATOM     25  H   UNL     1       0.731   4.556  18.879  0.00  0.00    +0.000 HD
ENDBRANCH  23  24
ENDBRANCH  14  17
ENDBRANCH   2  13
BRANCH   1  27
ATOM     26  C   UNL     1       2.162   9.772  17.679  0.00  0.00    +0.000 C 
ATOM     27  C   UNL     1       0.866   9.454  18.405  0.00  0.00    +0.000 C 
ENDBRANCH   1  27
TORSDOF 5
ENDMDL
