MODEL 1
REMARK VINA RESULT:      -9.1      0.000      0.000
REMARK  Name = 
REMARK  5 active torsions:
REMARK  status: ('A' for Active; 'I' for Inactive)
REMARK    1  A    between atoms: C_1  and  C_2
REMARK    2  A    between atoms: C_5  and  C_6
REMARK    3  A    between atoms: C_9  and  C_10
REMARK    4  A    between atoms: C_14  and  S_15
REMARK    5  A    between atoms: S_15  and  N_18
REMARK                            x       y       z     vdW  Elec       q    Type
REMARK                         _______ _______ _______ _____ _____    ______ ____
ROOT
ATOM      1  C   UNL     1       3.286   6.256  18.856  0.00  0.00    +0.000 A 
ATOM      2  C   UNL     1       2.963   5.006  19.411  0.00  0.00    +0.000 A 
ATOM      3  C   UNL     1       3.781   3.894  19.199  0.00  0.00    +0.000 A 
ATOM      4  C   UNL     1       4.932   4.012  18.421  0.00  0.00    +0.000 A 
ATOM      5  C   UNL     1       5.251   5.245  17.846  0.00  0.00    +0.000 A 
ATOM      6  C   UNL     1       4.445   6.367  18.073  0.00  0.00    +0.000 A 
ENDROOT
BRANCH   1  10
ATOM      7  C   UNL     1       1.195   8.964  19.780  0.00  0.00    +0.000 A 
ATOM      8  N   UNL     1       1.448   9.312  18.507  0.00  0.00    +0.000 NA
ATOM      9  O   UNL     1       2.287   8.299  18.050  0.00  0.00    +0.000 OA
ATOM     10  C   UNL     1       2.465   7.436  19.093  0.00  0.00    +0.000 A 
ATOM     11  N   UNL     1       1.831   7.808  20.179  0.00  0.00    +0.000 NA
BRANCH   7  16
ATOM     12  C   UNL     1      -2.236  12.004  23.294  0.00  0.00    +0.000 C 
ATOM     13  C   UNL     1      -1.352  11.197  22.392  0.00  0.00    +0.000 A 
ATOM     14  C   UNL     1      -0.656  10.082  22.872  0.00  0.00    +0.000 A 
ATOM     15  C   UNL     1       0.174   9.345  22.022  0.00  0.00    +0.000 A 
ATOM     16  C   UNL     1       0.320   9.710  20.677  0.00  0.00    +0.000 A 
ATOM     17  C   UNL     1      -0.384  10.825  20.200  0.00  0.00    +0.000 A 
ATOM     18  C   UNL     1      -1.212  11.560  21.049  0.00  0.00    +0.000 A 
ENDBRANCH   7  16
ENDBRANCH   1  10
BRANCH   5  19
ATOM     19  S   UNL     1       6.750   5.407  16.896  0.00  0.00    +0.000 S 
ATOM     20  O   UNL     1       7.607   6.367  17.562  0.00  0.00    +0.000 OA
ATOM     21  O   UNL     1       7.217   4.063  16.623  0.00  0.00    +0.000 OA
BRANCH  19  22
ATOM     22  N   UNL     1       6.232   6.039  15.422  0.00  0.00    +0.000 N 
ATOM     23  C   UNL     1       6.358   5.180  14.314  0.00  0.00    +0.000 A 
ATOM     24  C   UNL     1       5.423   4.202  14.023  0.00  0.00    +0.000 A 
ATOM     25  C   UNL     1       5.645   3.410  12.901  0.00  0.00    +0.000 A 
ATOM     26  C   UNL     1       6.798   3.609  12.146  0.00  0.00    +0.000 A 
ATOM     27  C   UNL     1       7.680   4.602  12.542  0.00  0.00    +0.000 A 
ATOM     28  N   UNL     1       7.481   5.403  13.611  0.00  0.00    +0.000 NA
ATOM     29  H   UNL     1       6.718   6.912  15.233  0.00  0.00    +0.000 HD
ENDBRANCH  19  22
ENDBRANCH   5  19
TORSDOF 4
ENDMDL
MODEL 2
REMARK VINA RESULT:      -9.0      2.755      4.431
REMARK  Name = 
REMARK  5 active torsions:
REMARK  status: ('A' for Active; 'I' for Inactive)
REMARK    1  A    between atoms: C_1  and  C_2
REMARK    2  A    between atoms: C_5  and  C_6
REMARK    3  A    between atoms: C_9  and  C_10
REMARK    4  A    between atoms: C_14  and  S_15
REMARK    5  A    between atoms: S_15  and  N_18
REMARK                            x       y       z     vdW  Elec       q    Type
REMARK                         _______ _______ _______ _____ _____    ______ ____
ROOT
ATOM      1  C   UNL     1       1.054   9.323  20.100  0.00  0.00    +0.000 A 
ATOM      2  C   UNL     1       1.238  10.002  18.884  0.00  0.00    +0.000 A 
ATOM      3  C   UNL     1       1.869   9.382  17.803  0.00  0.00    +0.000 A 
ATOM      4  C   UNL     1       2.336   8.074  17.924  0.00  0.00    +0.000 A 
ATOM      5  C   UNL     1       2.178   7.396  19.137  0.00  0.00    +0.000 A 
ATOM      6  C   UNL     1       1.527   8.007  20.215  0.00  0.00    +0.000 A 
ENDROOT
BRANCH   1  10
ATOM      7  C   UNL     1      -0.714  11.115  22.594  0.00  0.00    +0.000 A 
ATOM      8  N   UNL     1      -0.161  10.162  23.364  0.00  0.00    +0.000 NA
ATOM      9  O   UNL     1       0.558   9.384  22.460  0.00  0.00    +0.000 OA
ATOM     10  C   UNL     1       0.368   9.939  21.227  0.00  0.00    +0.000 A 
ATOM     11  N   UNL     1      -0.416  10.991  21.254  0.00  0.00    +0.000 NA
BRANCH   7  16
ATOM     12  C   UNL     1      -3.917  15.456  24.658  0.00  0.00    +0.000 C 
ATOM     13  C   UNL     1      -3.103  14.321  24.112  0.00  0.00    +0.000 A 
ATOM     14  C   UNL     1      -3.648  13.040  23.979  0.00  0.00    +0.000 A 
ATOM     15  C   UNL     1      -2.875  11.989  23.479  0.00  0.00    +0.000 A 
ATOM     16  C   UNL     1      -1.542  12.202  23.101  0.00  0.00    +0.000 A 
ATOM     17  C   UNL     1      -1.002  13.490  23.231  0.00  0.00    +0.000 A 
ATOM     18  C   UNL     1      -1.775  14.538  23.731  0.00  0.00    +0.000 A 
ENDBRANCH   7  16
ENDBRANCH   1  10
BRANCH   5  19
ATOM     19  S   UNL     1       2.727   5.706  19.273  0.00  0.00    +0.000 S 
ATOM     20  O   UNL     1       2.451   5.248  20.620  0.00  0.00    +0.000 OA
ATOM     21  O   UNL     1       2.193   5.000  18.126  0.00  0.00    +0.000 OA
BRANCH  19  22
ATOM     22  N   UNL     1       4.395   5.799  19.039  0.00  0.00    +0.000 N 
ATOM     23  C   UNL     1       4.845   5.488  17.743  0.00  0.00    +0.000 A 
ATOM     24  C   UNL     1       4.826   6.409  16.710  0.00  0.00    +0.000 A 
ATOM     25  C   UNL     1       5.298   5.996  15.468  0.00  0.00    +0.000 A 
ATOM     26  C   UNL     1       5.734   4.684  15.309  0.00  0.00    +0.000 A 
ATOM     27  C   UNL     1       5.687   3.837  16.406  0.00  0.00    +0.000 A 
ATOM     28  N   UNL     1       5.258   4.215  17.630  0.00  0.00    +0.000 NA
ATOM     29  H   UNL     1       4.870   5.207  19.716  0.00  0.00    +0.000 HD
ENDBRANCH  19  22
ENDBRANCH   5  19
TORSDOF 4
ENDMDL
MODEL 3
REMARK VINA RESULT:      -8.9      3.780      9.264
REMARK  Name = 
REMARK  5 active torsions:
REMARK  status: ('A' for Active; 'I' for Inactive)
REMARK    1  A    between atoms: C_1  and  C_2
REMARK    2  A    between atoms: C_5  and  C_6
REMARK    3  A    between atoms: C_9  and  C_10
REMARK    4  A    between atoms: C_14  and  S_15
REMARK    5  A    between atoms: S_15  and  N_18
REMARK                            x       y       z     vdW  Elec       q    Type
REMARK                         _______ _______ _______ _____ _____    ______ ____
ROOT
ATOM      1  C   UNL     1       0.930   8.777  20.812  0.00  0.00    +0.000 A 
ATOM      2  C   UNL     1       0.845   8.922  22.208  0.00  0.00    +0.000 A 
ATOM      3  C   UNL     1       0.094   9.951  22.778  0.00  0.00    +0.000 A 
ATOM      4  C   UNL     1      -0.579  10.859  21.962  0.00  0.00    +0.000 A 
ATOM      5  C   UNL     1      -0.485  10.738  20.573  0.00  0.00    +0.000 A 
ATOM      6  C   UNL     1       0.251   9.695  19.997  0.00  0.00    +0.000 A 
ENDROOT
BRANCH   1  10
ATOM      7  C   UNL     1       2.819   6.378  19.014  0.00  0.00    +0.000 A 
ATOM      8  N   UNL     1       2.385   5.600  20.020  0.00  0.00    +0.000 NA
ATOM      9  O   UNL     1       1.629   6.468  20.804  0.00  0.00    +0.000 OA
ATOM     10  C   UNL     1       1.681   7.691  20.198  0.00  0.00    +0.000 A 
ATOM     11  N   UNL     1       2.411   7.691  19.108  0.00  0.00    +0.000 NA
BRANCH   7  16
ATOM     12  C   UNL     1       6.076   4.421  14.663  0.00  0.00    +0.000 C 
ATOM     13  C   UNL     1       5.226   4.946  15.781  0.00  0.00    +0.000 A 
ATOM     14  C   UNL     1       5.172   6.315  16.066  0.00  0.00    +0.000 A 
ATOM     15  C   UNL     1       4.383   6.790  17.117  0.00  0.00    +0.000 A 
ATOM     16  C   UNL     1       3.633   5.903  17.902  0.00  0.00    +0.000 A 
ATOM     17  C   UNL     1       3.686   4.533  17.609  0.00  0.00    +0.000 A 
ATOM     18  C   UNL     1       4.475   4.060  16.559  0.00  0.00    +0.000 A 
ENDBRANCH   7  16
ENDBRANCH   1  10
BRANCH   5  19
ATOM     19  S   UNL     1      -1.388  11.867  19.531  0.00  0.00    +0.000 S 
ATOM     20  O   UNL     1      -1.715  13.042  20.314  0.00  0.00    +0.000 OA
ATOM     21  O   UNL     1      -0.641  11.984  18.296  0.00  0.00    +0.000 OA
BRANCH  19  22
ATOM     22  N   UNL     1      -2.802  11.030  19.154  0.00  0.00    +0.000 N 
ATOM     23  C   UNL     1      -3.008  10.771  17.786  0.00  0.00    +0.000 A 
ATOM     24  C   UNL     1      -2.412   9.704  17.135  0.00  0.00    +0.000 A 
ATOM     25  C   UNL     1      -2.687   9.539  15.781  0.00  0.00    +0.000 A 
ATOM     26  C   UNL     1      -3.513  10.458  15.138  0.00  0.00    +0.000 A 
ATOM     27  C   UNL     1      -4.039  11.503  15.882  0.00  0.00    +0.000 A 
ATOM     28  N   UNL     1      -3.810  11.677  17.202  0.00  0.00    +0.000 NA
ATOM     29  H   UNL     1      -3.606  11.526  19.531  0.00  0.00    +0.000 HD
ENDBRANCH  19  22
ENDBRANCH   5  19
TORSDOF 4
ENDMDL
MODEL 4
REMARK VINA RESULT:      -8.9      1.294      1.739
REMARK  Name = 
REMARK  5 active torsions:
REMARK  status: ('A' for Active; 'I' for Inactive)
REMARK    1  A    between atoms: C_1  and  C_2
REMARK    2  A    between atoms: C_5  and  C_6
REMARK    3  A    between atoms: C_9  and  C_10
REMARK    4  A    between atoms: C_14  and  S_15
REMARK    5  A    between atoms: S_15  and  N_18
REMARK                            x       y       z     vdW  Elec       q    Type
REMARK                         _______ _______ _______ _____ _____    ______ ____
ROOT
ATOM      1  C   UNL     1       2.542   6.325  19.810  0.00  0.00    +0.000 A 
ATOM      2  C   UNL     1       1.926   5.117  20.180  0.00  0.00    +0.000 A 
ATOM      3  C   UNL     1       2.624   3.909  20.122  0.00  0.00    +0.000 A 
ATOM      4  C   UNL     1       3.947   3.887  19.684  0.00  0.00    +0.000 A 
ATOM      5  C   UNL     1       4.563   5.080  19.293  0.00  0.00    +0.000 A 
ATOM      6  C   UNL     1       3.873   6.296  19.370  0.00  0.00    +0.000 A 
ENDROOT
BRANCH   1  10
ATOM      7  C   UNL     1       0.700   9.302  20.366  0.00  0.00    +0.000 A 
ATOM      8  N   UNL     1       1.100   9.528  19.103  0.00  0.00    +0.000 NA
ATOM      9  O   UNL     1       1.855   8.401  18.790  0.00  0.00    +0.000 OA
ATOM     10  C   UNL     1       1.843   7.600  19.896  0.00  0.00    +0.000 A 
ATOM     11  N   UNL     1       1.163   8.115  20.893  0.00  0.00    +0.000 NA
BRANCH   7  16
ATOM     12  C   UNL     1      -2.747  12.777  23.433  0.00  0.00    +0.000 C 
ATOM     13  C   UNL     1      -1.845  11.892  22.626  0.00  0.00    +0.000 A 
ATOM     14  C   UNL     1      -1.610  12.144  21.270  0.00  0.00    +0.000 A 
ATOM     15  C   UNL     1      -0.774  11.305  20.527  0.00  0.00    +0.000 A 
ATOM     16  C   UNL     1      -0.159  10.199  21.129  0.00  0.00    +0.000 A 
ATOM     17  C   UNL     1      -0.395   9.953  22.489  0.00  0.00    +0.000 A 
ATOM     18  C   UNL     1      -1.229  10.792  23.230  0.00  0.00    +0.000 A 
ENDBRANCH   7  16
ENDBRANCH   1  10
BRANCH   5  19
ATOM     19  S   UNL     1       6.271   5.058  18.785  0.00  0.00    +0.000 S 
ATOM     20  O   UNL     1       7.073   5.580  19.872  0.00  0.00    +0.000 OA
ATOM     21  O   UNL     1       6.527   3.740  18.242  0.00  0.00    +0.000 OA
BRANCH  19  22
ATOM     22  N   UNL     1       6.321   6.127  17.482  0.00  0.00    +0.000 N 
ATOM     23  C   UNL     1       6.292   5.532  16.206  0.00  0.00    +0.000 A 
ATOM     24  C   UNL     1       5.113   5.129  15.603  0.00  0.00    +0.000 A 
ATOM     25  C   UNL     1       5.198   4.555  14.339  0.00  0.00    +0.000 A 
ATOM     26  C   UNL     1       6.450   4.383  13.753  0.00  0.00    +0.000 A 
ATOM     27  C   UNL     1       7.568   4.802  14.458  0.00  0.00    +0.000 A 
ATOM     28  N   UNL     1       7.517   5.384  15.675  0.00  0.00    +0.000 NA
ATOM     29  H   UNL     1       7.141   6.724  17.559  0.00  0.00    +0.000 HD
ENDBRANCH  19  22
ENDBRANCH   5  19
TORSDOF 4
ENDMDL
MODEL 5
REMARK VINA RESULT:      -8.7      4.191     10.557
REMARK  Name = 
REMARK  5 active torsions:
REMARK  status: ('A' for Active; 'I' for Inactive)
REMARK    1  A    between atoms: C_1  and  C_2
REMARK    2  A    between atoms: C_5  and  C_6
REMARK    3  A    between atoms: C_9  and  C_10
REMARK    4  A    between atoms: C_14  and  S_15
REMARK    5  A    between atoms: S_15  and  N_18
REMARK                            x       y       z     vdW  Elec       q    Type
REMARK                         _______ _______ _______ _____ _____    ______ ____
ROOT
ATOM      1  C   UNL     1       0.624   9.770  18.866  0.00  0.00    +0.000 A 
ATOM      2  C   UNL     1       0.811  10.858  19.735  0.00  0.00    +0.000 A 
ATOM      3  C   UNL     1      -0.128  11.890  19.804  0.00  0.00    +0.000 A 
ATOM      4  C   UNL     1      -1.265  11.855  18.998  0.00  0.00    +0.000 A 
ATOM      5  C   UNL     1      -1.450  10.787  18.115  0.00  0.00    +0.000 A 
ATOM      6  C   UNL     1      -0.522   9.741  18.058  0.00  0.00    +0.000 A 
ENDROOT
BRANCH   1  10
ATOM      7  C   UNL     1       2.922   7.127  18.321  0.00  0.00    +0.000 A 
ATOM      8  N   UNL     1       2.741   6.986  19.645  0.00  0.00    +0.000 NA
ATOM      9  O   UNL     1       1.847   8.004  19.966  0.00  0.00    +0.000 OA
ATOM     10  C   UNL     1       1.574   8.668  18.803  0.00  0.00    +0.000 A 
ATOM     11  N   UNL     1       2.221   8.178  17.772  0.00  0.00    +0.000 NA
BRANCH   7  16
ATOM     12  C   UNL     1       6.233   3.730  15.025  0.00  0.00    +0.000 C 
ATOM     13  C   UNL     1       5.374   4.597  15.896  0.00  0.00    +0.000 A 
ATOM     14  C   UNL     1       4.404   4.041  16.737  0.00  0.00    +0.000 A 
ATOM     15  C   UNL     1       3.603   4.861  17.536  0.00  0.00    +0.000 A 
ATOM     16  C   UNL     1       3.760   6.254  17.509  0.00  0.00    +0.000 A 
ATOM     17  C   UNL     1       4.737   6.806  16.668  0.00  0.00    +0.000 A 
ATOM     18  C   UNL     1       5.536   5.985  15.871  0.00  0.00    +0.000 A 
ENDBRANCH   7  16
ENDBRANCH   1  10
BRANCH   5  19
ATOM     19  S   UNL     1      -2.930  10.716  17.125  0.00  0.00    +0.000 S 
ATOM     20  O   UNL     1      -2.540  10.676  15.730  0.00  0.00    +0.000 OA
ATOM     21  O   UNL     1      -3.761   9.673  17.691  0.00  0.00    +0.000 OA
BRANCH  19  22
ATOM     22  N   UNL     1      -3.710  12.175  17.452  0.00  0.00    +0.000 N 
ATOM     23  C   UNL     1      -4.908  12.073  18.183  0.00  0.00    +0.000 A 
ATOM     24  C   UNL     1      -4.928  11.956  19.562  0.00  0.00    +0.000 A 
ATOM     25  C   UNL     1      -6.169  11.865  20.184  0.00  0.00    +0.000 A 
ATOM     26  C   UNL     1      -7.323  11.864  19.404  0.00  0.00    +0.000 A 
ATOM     27  C   UNL     1      -7.185  11.963  18.028  0.00  0.00    +0.000 A 
ATOM     28  N   UNL     1      -5.997  12.077  17.396  0.00  0.00    +0.000 NA
ATOM     29  H   UNL     1      -3.883  12.674  16.583  0.00  0.00    +0.000 HD
ENDBRANCH  19  22
ENDBRANCH   5  19
TORSDOF 4
ENDMDL
MODEL 6
REMARK VINA RESULT:      -8.7      1.305      1.666
REMARK  Name = 
REMARK  5 active torsions:
REMARK  status: ('A' for Active; 'I' for Inactive)
REMARK    1  A    between atoms: C_1  and  C_2
REMARK    2  A    between atoms: C_5  and  C_6
REMARK    3  A    between atoms: C_9  and  C_10
REMARK    4  A    between atoms: C_14  and  S_15
REMARK    5  A    between atoms: S_15  and  N_18
REMARK                            x       y       z     vdW  Elec       q    Type
REMARK                         _______ _______ _______ _____ _____    ______ ____
ROOT
ATOM      1  C   UNL     1       3.510   5.515  19.253  0.00  0.00    +0.000 A 
ATOM      2  C   UNL     1       3.305   4.140  19.460  0.00  0.00    +0.000 A 
ATOM      3  C   UNL     1       4.232   3.200  19.006  0.00  0.00    +0.000 A 
ATOM      4  C   UNL     1       5.377   3.618  18.329  0.00  0.00    +0.000 A 
ATOM      5  C   UNL     1       5.581   4.982  18.099  0.00  0.00    +0.000 A 
ATOM      6  C   UNL     1       4.664   5.929  18.570  0.00  0.00    +0.000 A 
ENDROOT
BRANCH   1  10
ATOM      7  C   UNL     1       1.382   8.190  20.189  0.00  0.00    +0.000 A 
ATOM      8  N   UNL     1       1.074   7.317  21.164  0.00  0.00    +0.000 NA
ATOM      9  O   UNL     1       1.863   6.208  20.874  0.00  0.00    +0.000 OA
ATOM     10  C   UNL     1       2.572   6.513  19.748  0.00  0.00    +0.000 A 
ATOM     11  N   UNL     1       2.300   7.709  19.281  0.00  0.00    +0.000 NA
BRANCH   7  16
ATOM     12  C   UNL     1      -0.746  13.538  19.702  0.00  0.00    +0.000 C 
ATOM     13  C   UNL     1      -0.206  12.146  19.845  0.00  0.00    +0.000 A 
ATOM     14  C   UNL     1       0.004  11.579  21.107  0.00  0.00    +0.000 A 
ATOM     15  C   UNL     1       0.517  10.285  21.227  0.00  0.00    +0.000 A 
ATOM     16  C   UNL     1       0.829   9.534  20.085  0.00  0.00    +0.000 A 
ATOM     17  C   UNL     1       0.612  10.105  18.822  0.00  0.00    +0.000 A 
ATOM     18  C   UNL     1       0.099  11.398  18.705  0.00  0.00    +0.000 A 
ENDBRANCH   7  16
ENDBRANCH   1  10
BRANCH   5  19
ATOM     19  S   UNL     1       7.071   5.519  17.281  0.00  0.00    +0.000 S 
ATOM     20  O   UNL     1       7.691   6.543  18.098  0.00  0.00    +0.000 OA
ATOM     21  O   UNL     1       7.799   4.322  16.914  0.00  0.00    +0.000 OA
BRANCH  19  22
ATOM     22  N   UNL     1       6.521   6.202  15.841  0.00  0.00    +0.000 N 
ATOM     23  C   UNL     1       6.523   5.347  14.723  0.00  0.00    +0.000 A 
ATOM     24  C   UNL     1       5.504   4.443  14.478  0.00  0.00    +0.000 A 
ATOM     25  C   UNL     1       5.605   3.647  13.342  0.00  0.00    +0.000 A 
ATOM     26  C   UNL     1       6.727   3.768  12.525  0.00  0.00    +0.000 A 
ATOM     27  C   UNL     1       7.701   4.690  12.878  0.00  0.00    +0.000 A 
ATOM     28  N   UNL     1       7.620   5.494  13.961  0.00  0.00    +0.000 NA
ATOM     29  H   UNL     1       7.060   7.038  15.630  0.00  0.00    +0.000 HD
ENDBRANCH  19  22
ENDBRANCH   5  19
TORSDOF 4
ENDMDL
MODEL 7
REMARK VINA RESULT:      -8.7      4.463      7.627
REMARK  Name = 
REMARK  5 active torsions:
REMARK  status: ('A' for Active; 'I' for Inactive)
REMARK    1  A    between atoms: C_1  and  C_2
REMARK    2  A    between atoms: C_5  and  C_6
REMARK    3  A    between atoms: C_9  and  C_10
REMARK    4  A    between atoms: C_14  and  S_15
REMARK    5  A    between atoms: S_15  and  N_18
REMARK                            x       y       z     vdW  Elec       q    Type
REMARK                         _______ _______ _______ _____ _____    ______ ____
ROOT
ATOM      1  C   UNL     1       6.459   5.959  17.050  0.00  0.00    +0.000 A 
ATOM      2  C   UNL     1       6.415   5.774  15.657  0.00  0.00    +0.000 A 
ATOM      3  C   UNL     1       5.617   4.777  15.091  0.00  0.00    +0.000 A 
ATOM      4  C   UNL     1       4.856   3.943  15.908  0.00  0.00    +0.000 A 
ATOM      5  C   UNL     1       4.908   4.104  17.296  0.00  0.00    +0.000 A 
ATOM      6  C   UNL     1       5.691   5.115  17.866  0.00  0.00    +0.000 A 
ENDROOT
BRANCH   1  10
ATOM      7  C   UNL     1       8.285   8.756  18.232  0.00  0.00    +0.000 A 
ATOM      8  N   UNL     1       8.750   7.821  19.078  0.00  0.00    +0.000 NA
ATOM      9  O   UNL     1       8.073   6.666  18.697  0.00  0.00    +0.000 OA
ATOM     10  C   UNL     1       7.258   7.013  17.658  0.00  0.00    +0.000 A 
ATOM     11  N   UNL     1       7.339   8.286  17.347  0.00  0.00    +0.000 NA
BRANCH   7  16
ATOM     12  C   UNL     1      10.069  14.250  18.264  0.00  0.00    +0.000 C 
ATOM     13  C   UNL     1       9.601  12.825  18.235  0.00  0.00    +0.000 A 
ATOM     14  C   UNL     1       8.474  12.451  17.496  0.00  0.00    +0.000 A 
ATOM     15  C   UNL     1       8.042  11.122  17.485  0.00  0.00    +0.000 A 
ATOM     16  C   UNL     1       8.731  10.144  18.215  0.00  0.00    +0.000 A 
ATOM     17  C   UNL     1       9.863  10.523  18.952  0.00  0.00    +0.000 A 
ATOM     18  C   UNL     1      10.293  11.851  18.960  0.00  0.00    +0.000 A 
ENDBRANCH   7  16
ENDBRANCH   1  10
BRANCH   5  19
ATOM     19  S   UNL     1       3.894   3.073  18.337  0.00  0.00    +0.000 S 
ATOM     20  O   UNL     1       3.853   1.746  17.756  0.00  0.00    +0.000 OA
ATOM     21  O   UNL     1       4.353   3.272  19.696  0.00  0.00    +0.000 OA
BRANCH  19  22
ATOM     22  N   UNL     1       2.365   3.778  18.243  0.00  0.00    +0.000 N 
ATOM     23  C   UNL     1       2.257   5.069  18.792  0.00  0.00    +0.000 A 
ATOM     24  C   UNL     1       2.630   6.205  18.094  0.00  0.00    +0.000 A 
ATOM     25  C   UNL     1       2.478   7.433  18.732  0.00  0.00    +0.000 A 
ATOM     26  C   UNL     1       1.994   7.466  20.037  0.00  0.00    +0.000 A 
ATOM     27  C   UNL     1       1.673   6.264  20.650  0.00  0.00    +0.000 A 
ATOM     28  N   UNL     1       1.786   5.060  20.050  0.00  0.00    +0.000 NA
ATOM     29  H   UNL     1       1.678   3.166  18.676  0.00  0.00    +0.000 HD
ENDBRANCH  19  22
ENDBRANCH   5  19
TORSDOF 4
ENDMDL
MODEL 8
REMARK VINA RESULT:      -8.7      2.187      2.804
REMARK  Name = 
REMARK  5 active torsions:
REMARK  status: ('A' for Active; 'I' for Inactive)
REMARK    1  A    between atoms: C_1  and  C_2
REMARK    2  A    between atoms: C_5  and  C_6
REMARK    3  A    between atoms: C_9  and  C_10
REMARK    4  A    between atoms: C_14  and  S_15
REMARK    5  A    between atoms: S_15  and  N_18
REMARK                            x       y       z     vdW  Elec       q    Type
REMARK                         _______ _______ _______ _____ _____    ______ ____
ROOT
ATOM      1  C   UNL     1       1.722   5.463  20.315  0.00  0.00    +0.000 A 
ATOM      2  C   UNL     1       0.751   4.566  20.792  0.00  0.00    +0.000 A 
ATOM      3  C   UNL     1       0.966   3.187  20.753  0.00  0.00    +0.000 A 
ATOM      4  C   UNL     1       2.154   2.680  20.228  0.00  0.00    +0.000 A 
ATOM      5  C   UNL     1       3.118   3.562  19.730  0.00  0.00    +0.000 A 
ATOM      6  C   UNL     1       2.914   4.946  19.787  0.00  0.00    +0.000 A 
ENDROOT
BRANCH   1  10
ATOM      7  C   UNL     1       0.995   8.903  20.756  0.00  0.00    +0.000 A 
ATOM      8  N   UNL     1       1.764   8.984  19.656  0.00  0.00    +0.000 NA
ATOM      9  O   UNL     1       2.117   7.661  19.403  0.00  0.00    +0.000 OA
ATOM     10  C   UNL     1       1.531   6.905  20.378  0.00  0.00    +0.000 A 
ATOM     11  N   UNL     1       0.847   7.621  21.239  0.00  0.00    +0.000 NA
BRANCH   7  16
ATOM     12  C   UNL     1      -1.478  13.477  23.271  0.00  0.00    +0.000 C 
ATOM     13  C   UNL     1      -0.854  12.278  22.621  0.00  0.00    +0.000 A 
ATOM     14  C   UNL     1      -1.090  10.988  23.108  0.00  0.00    +0.000 A 
ATOM     15  C   UNL     1      -0.494   9.880  22.500  0.00  0.00    +0.000 A 
ATOM     16  C   UNL     1       0.349  10.044  21.392  0.00  0.00    +0.000 A 
ATOM     17  C   UNL     1       0.579  11.339  20.904  0.00  0.00    +0.000 A 
ATOM     18  C   UNL     1      -0.018  12.444  21.513  0.00  0.00    +0.000 A 
ENDBRANCH   7  16
ENDBRANCH   1  10
BRANCH   5  19
ATOM     19  S   UNL     1       4.658   2.916  19.108  0.00  0.00    +0.000 S 
ATOM     20  O   UNL     1       5.226   2.047  20.120  0.00  0.00    +0.000 OA
ATOM     21  O   UNL     1       4.394   2.423  17.772  0.00  0.00    +0.000 OA
BRANCH  19  22
ATOM     22  N   UNL     1       5.629   4.282  18.927  0.00  0.00    +0.000 N 
ATOM     23  C   UNL     1       5.841   4.706  17.602  0.00  0.00    +0.000 A 
ATOM     24  C   UNL     1       4.923   5.484  16.917  0.00  0.00    +0.000 A 
ATOM     25  C   UNL     1       5.235   5.850  15.611  0.00  0.00    +0.000 A 
ATOM     26  C   UNL     1       6.424   5.399  15.044  0.00  0.00    +0.000 A 
ATOM     27  C   UNL     1       7.259   4.604  15.814  0.00  0.00    +0.000 A 
ATOM     28  N   UNL     1       6.997   4.253  17.091  0.00  0.00    +0.000 NA
ATOM     29  H   UNL     1       6.526   4.129  19.382  0.00  0.00    +0.000 HD
ENDBRANCH  19  22
ENDBRANCH   5  19
TORSDOF 4
ENDMDL
MODEL 9
REMARK VINA RESULT:      -8.6      1.269      1.900
REMARK  Name = 
REMARK  5 active torsions:
REMARK  status: ('A' for Active; 'I' for Inactive)
REMARK    1  A    between atoms: C_1  and  C_2
REMARK    2  A    between atoms: C_5  and  C_6
REMARK    3  A    between atoms: C_9  and  C_10
REMARK    4  A    between atoms: C_14  and  S_15
REMARK    5  A    between atoms: S_15  and  N_18
REMARK                            x       y       z     vdW  Elec       q    Type
REMARK                         _______ _______ _______ _____ _____    ______ ____
ROOT
ATOM      1  C   UNL     1       2.589   7.276  18.680  0.00  0.00    +0.000 A 
ATOM      2  C   UNL     1       2.504   6.058  19.376  0.00  0.00    +0.000 A 
ATOM      3  C   UNL     1       3.391   5.014  19.105  0.00  0.00    +0.000 A 
ATOM      4  C   UNL     1       4.373   5.167  18.127  0.00  0.00    +0.000 A 
ATOM      5  C   UNL     1       4.453   6.367  17.414  0.00  0.00    +0.000 A 
ATOM      6  C   UNL     1       3.579   7.424  17.697  0.00  0.00    +0.000 A 
ENDROOT
BRANCH   1  10
ATOM      7  C   UNL     1       0.396   9.844  19.757  0.00  0.00    +0.000 A 
ATOM      8  N   UNL     1       0.408  10.108  18.439  0.00  0.00    +0.000 NA
ATOM      9  O   UNL     1       1.266   9.144  17.917  0.00  0.00    +0.000 OA
ATOM     10  C   UNL     1       1.696   8.389  18.971  0.00  0.00    +0.000 A 
ATOM     11  N   UNL     1       1.204   8.789  20.121  0.00  0.00    +0.000 NA
BRANCH   7  16
ATOM     12  C   UNL     1      -2.786  12.653  23.674  0.00  0.00    +0.000 C 
ATOM     13  C   UNL     1      -1.957  11.942  22.647  0.00  0.00    +0.000 A 
ATOM     14  C   UNL     1      -2.000  12.316  21.300  0.00  0.00    +0.000 A 
ATOM     15  C   UNL     1      -1.229  11.638  20.351  0.00  0.00    +0.000 A 
ATOM     16  C   UNL     1      -0.401  10.575  20.735  0.00  0.00    +0.000 A 
ATOM     17  C   UNL     1      -0.357  10.207  22.087  0.00  0.00    +0.000 A 
ATOM     18  C   UNL     1      -1.127  10.885  23.034  0.00  0.00    +0.000 A 
ENDBRANCH   7  16
ENDBRANCH   1  10
BRANCH   5  19
ATOM     19  S   UNL     1       5.742   6.581  16.202  0.00  0.00    +0.000 S 
ATOM     20  O   UNL     1       5.136   7.067  14.978  0.00  0.00    +0.000 OA
ATOM     21  O   UNL     1       6.803   7.326  16.849  0.00  0.00    +0.000 OA
BRANCH  19  22
ATOM     22  N   UNL     1       6.335   5.022  15.959  0.00  0.00    +0.000 N 
ATOM     23  C   UNL     1       6.444   4.616  14.615  0.00  0.00    +0.000 A 
ATOM     24  C   UNL     1       7.524   4.961  13.821  0.00  0.00    +0.000 A 
ATOM     25  C   UNL     1       7.532   4.503  12.508  0.00  0.00    +0.000 A 
ATOM     26  C   UNL     1       6.454   3.754  12.043  0.00  0.00    +0.000 A 
ATOM     27  C   UNL     1       5.413   3.487  12.918  0.00  0.00    +0.000 A 
ATOM     28  N   UNL     1       5.387   3.896  14.205  0.00  0.00    +0.000 NA
ATOM     29  H   UNL     1       5.765   4.354  16.471  0.00  0.00    +0.000 HD
ENDBRANCH  19  22
ENDBRANCH   5  19
TORSDOF 4
ENDMDL
