MODEL 1
REMARK VINA RESULT:      -4.6      0.000      0.000
REMARK  Name = 
REMARK  6 active torsions:
REMARK  status: ('A' for Active; 'I' for Inactive)
REMARK    1  A    between atoms: C_1  and  O_2
REMARK    2  A    between atoms: O_2  and  C_3
REMARK    3  A    between atoms: C_3  and  C_4
REMARK    4  A    between atoms: C_4  and  C_5
REMARK    5  A    between atoms: C_4  and  O_6
REMARK    6  A    between atoms: C_4  and  C_7
REMARK                            x       y       z     vdW  Elec       q    Type
REMARK                         _______ _______ _______ _____ _____    ______ ____
ROOT
ATOM      1  C   UNL     1       3.948   2.495  19.559  0.00  0.00    +0.000 C 
ATOM      2  C   UNL     1       3.477   1.614  18.392  0.00  0.00    +0.000 C 
ENDROOT
BRANCH   1   3
ATOM      3  C   UNL     1       2.787   2.733  20.571  0.00  0.00    +0.000 C 
ATOM      4  F   UNL     1       3.102   2.312  21.818  0.00  0.00    +0.000 F 
ATOM      5  F   UNL     1       2.488   4.051  20.678  0.00  0.00    +0.000 F 
ATOM      6  F   UNL     1       1.650   2.098  20.205  0.00  0.00    +0.000 F 
ENDBRANCH   1   3
BRANCH   1   7
ATOM      7  O   UNL     1       5.059   1.750  20.136  0.00  0.00    +0.000 OA
ATOM      8  H   UNL     1       4.720   1.276  20.918  0.00  0.00    +0.000 HD
ENDBRANCH   1   7
BRANCH   1   9
ATOM      9  C   UNL     1       4.455   3.841  18.999  0.00  0.00    +0.000 C 
BRANCH   9  11
ATOM     10  C   UNL     1       6.248   5.364  19.171  0.00  0.00    +0.000 C 
ATOM     11  O   UNL     1       5.844   4.003  19.281  0.00  0.00    +0.000 OA
ENDBRANCH   9  11
ENDBRANCH   1   9
TORSDOF 4
ENDMDL
MODEL 2
REMARK VINA RESULT:      -4.5      3.922      5.524
REMARK  Name = 
REMARK  6 active torsions:
REMARK  status: ('A' for Active; 'I' for Inactive)
REMARK    1  A    between atoms: C_1  and  O_2
REMARK    2  A    between atoms: O_2  and  C_3
REMARK    3  A    between atoms: C_3  and  C_4
REMARK    4  A    between atoms: C_4  and  C_5
REMARK    5  A    between atoms: C_4  and  O_6
REMARK    6  A    between atoms: C_4  and  C_7
REMARK                            x       y       z     vdW  Elec       q    Type
REMARK                         _______ _______ _______ _____ _____    ______ ____
ROOT
ATOM      1  C   UNL     1       7.077   5.276  18.159  0.00  0.00    +0.000 C 
ATOM      2  C   UNL     1       7.912   5.847  19.315  0.00  0.00    +0.000 C 
ENDROOT
BRANCH   1   3
ATOM      3  C   UNL     1       7.021   6.283  16.971  0.00  0.00    +0.000 C 
ATOM      4  F   UNL     1       7.308   5.693  15.787  0.00  0.00    +0.000 F 
ATOM      5  F   UNL     1       5.785   6.824  16.839  0.00  0.00    +0.000 F 
ATOM      6  F   UNL     1       7.887   7.312  17.130  0.00  0.00    +0.000 F 
ENDBRANCH   1   3
BRANCH   1   7
ATOM      7  O   UNL     1       7.753   4.032  17.816  0.00  0.00    +0.000 OA
ATOM      8  H   UNL     1       8.621   4.038  18.261  0.00  0.00    +0.000 HD
ENDBRANCH   1   7
BRANCH   1   9
ATOM      9  C   UNL     1       5.653   4.973  18.671  0.00  0.00    +0.000 C 
BRANCH   9  11
ATOM     10  C   UNL     1       4.360   3.116  19.337  0.00  0.00    +0.000 C 
ATOM     11  O   UNL     1       5.637   3.742  19.393  0.00  0.00    +0.000 OA
ENDBRANCH   9  11
ENDBRANCH   1   9
TORSDOF 4
ENDMDL
MODEL 3
REMARK VINA RESULT:      -4.5      4.542      5.610
REMARK  Name = 
REMARK  6 active torsions:
REMARK  status: ('A' for Active; 'I' for Inactive)
REMARK    1  A    between atoms: C_1  and  O_2
REMARK    2  A    between atoms: O_2  and  C_3
REMARK    3  A    between atoms: C_3  and  C_4
REMARK    4  A    between atoms: C_4  and  C_5
REMARK    5  A    between atoms: C_4  and  O_6
REMARK    6  A    between atoms: C_4  and  C_7
REMARK                            x       y       z     vdW  Elec       q    Type
REMARK                         _______ _______ _______ _____ _____    ______ ____
ROOT
ATOM      1  C   UNL     1       6.875   4.870  16.876  0.00  0.00    +0.000 C 
ATOM      2  C   UNL     1       7.235   6.337  17.151  0.00  0.00    +0.000 C 
ENDROOT
BRANCH   1   3
ATOM      3  C   UNL     1       6.470   4.673  15.384  0.00  0.00    +0.000 C 
ATOM      4  F   UNL     1       7.465   5.020  14.534  0.00  0.00    +0.000 F 
ATOM      5  F   UNL     1       6.176   3.377  15.119  0.00  0.00    +0.000 F 
ATOM      6  F   UNL     1       5.380   5.401  15.049  0.00  0.00    +0.000 F 
ENDBRANCH   1   3
BRANCH   1   7
ATOM      7  O   UNL     1       8.081   4.137  17.237  0.00  0.00    +0.000 OA
ATOM      8  H   UNL     1       8.016   3.250  16.838  0.00  0.00    +0.000 HD
ENDBRANCH   1   7
BRANCH   1   9
ATOM      9  C   UNL     1       5.715   4.455  17.805  0.00  0.00    +0.000 C 
BRANCH   9  11
ATOM     10  C   UNL     1       4.219   5.374  19.381  0.00  0.00    +0.000 C 
ATOM     11  O   UNL     1       4.943   5.597  18.176  0.00  0.00    +0.000 OA
ENDBRANCH   9  11
ENDBRANCH   1   9
TORSDOF 4
ENDMDL
MODEL 4
REMARK VINA RESULT:      -4.5      3.915      5.229
REMARK  Name = 
REMARK  6 active torsions:
REMARK  status: ('A' for Active; 'I' for Inactive)
REMARK    1  A    between atoms: C_1  and  O_2
REMARK    2  A    between atoms: O_2  and  C_3
REMARK    3  A    between atoms: C_3  and  C_4
REMARK    4  A    between atoms: C_4  and  C_5
REMARK    5  A    between atoms: C_4  and  O_6
REMARK    6  A    between atoms: C_4  and  C_7
REMARK                            x       y       z     vdW  Elec       q    Type
REMARK                         _______ _______ _______ _____ _____    ______ ____
ROOT
ATOM      1  C   UNL     1       6.822   5.016  17.482  0.00  0.00    +0.000 C 
ATOM      2  C   UNL     1       7.472   6.405  17.566  0.00  0.00    +0.000 C 
ENDROOT
BRANCH   1   3
ATOM      3  C   UNL     1       6.373   4.706  16.022  0.00  0.00    +0.000 C 
ATOM      4  F   UNL     1       5.272   5.410  15.667  0.00  0.00    +0.000 F 
ATOM      5  F   UNL     1       7.339   5.030  15.128  0.00  0.00    +0.000 F 
ATOM      6  F   UNL     1       6.091   3.395  15.840  0.00  0.00    +0.000 F 
ENDBRANCH   1   3
BRANCH   1   7
ATOM      7  O   UNL     1       7.860   4.112  17.958  0.00  0.00    +0.000 OA
ATOM      8  H   UNL     1       8.248   3.673  17.178  0.00  0.00    +0.000 HD
ENDBRANCH   1   7
BRANCH   1   9
ATOM      9  C   UNL     1       5.611   4.970  18.437  0.00  0.00    +0.000 C 
BRANCH   9  11
ATOM     10  C   UNL     1       4.451   3.095  19.276  0.00  0.00    +0.000 C 
ATOM     11  O   UNL     1       5.680   3.814  19.270  0.00  0.00    +0.000 OA
ENDBRANCH   9  11
ENDBRANCH   1   9
TORSDOF 4
ENDMDL
MODEL 5
REMARK VINA RESULT:      -4.4      2.009      2.211
REMARK  Name = 
REMARK  6 active torsions:
REMARK  status: ('A' for Active; 'I' for Inactive)
REMARK    1  A    between atoms: C_1  and  O_2
REMARK    2  A    between atoms: O_2  and  C_3
REMARK    3  A    between atoms: C_3  and  C_4
REMARK    4  A    between atoms: C_4  and  C_5
REMARK    5  A    between atoms: C_4  and  O_6
REMARK    6  A    between atoms: C_4  and  C_7
REMARK                            x       y       z     vdW  Elec       q    Type
REMARK                         _______ _______ _______ _____ _____    ______ ____
ROOT
ATOM      1  C   UNL     1       2.059   3.020  19.357  0.00  0.00    +0.000 C 
ATOM      2  C   UNL     1       1.477   3.816  18.180  0.00  0.00    +0.000 C 
ENDROOT
BRANCH   1   3
ATOM      3  C   UNL     1       1.475   3.530  20.708  0.00  0.00    +0.000 C 
ATOM      4  F   UNL     1       2.411   4.142  21.471  0.00  0.00    +0.000 F 
ATOM      5  F   UNL     1       0.491   4.440  20.509  0.00  0.00    +0.000 F 
ATOM      6  F   UNL     1       0.943   2.529  21.448  0.00  0.00    +0.000 F 
ENDBRANCH   1   3
BRANCH   1   7
ATOM      7  O   UNL     1       1.692   1.641  19.066  0.00  0.00    +0.000 OA
ATOM      8  H   UNL     1       2.056   1.419  18.189  0.00  0.00    +0.000 HD
ENDBRANCH   1   7
BRANCH   1   9
ATOM      9  C   UNL     1       3.596   3.164  19.349  0.00  0.00    +0.000 C 
BRANCH   9  11
ATOM     10  C   UNL     1       5.138   4.185  17.885  0.00  0.00    +0.000 C 
ATOM     11  O   UNL     1       4.081   3.240  18.010  0.00  0.00    +0.000 OA
ENDBRANCH   9  11
ENDBRANCH   1   9
TORSDOF 4
ENDMDL
MODEL 6
REMARK VINA RESULT:      -4.4      2.019      2.401
REMARK  Name = 
REMARK  6 active torsions:
REMARK  status: ('A' for Active; 'I' for Inactive)
REMARK    1  A    between atoms: C_1  and  O_2
REMARK    2  A    between atoms: O_2  and  C_3
REMARK    3  A    between atoms: C_3  and  C_4
REMARK    4  A    between atoms: C_4  and  C_5
REMARK    5  A    between atoms: C_4  and  O_6
REMARK    6  A    between atoms: C_4  and  C_7
REMARK                            x       y       z     vdW  Elec       q    Type
REMARK                         _______ _______ _______ _____ _____    ______ ____
ROOT
ATOM      1  C   UNL     1       2.292   3.013  18.721  0.00  0.00    +0.000 C 
ATOM      2  C   UNL     1       1.981   4.044  17.626  0.00  0.00    +0.000 C 
ENDROOT
BRANCH   1   3
ATOM      3  C   UNL     1       1.124   2.934  19.750  0.00  0.00    +0.000 C 
ATOM      4  F   UNL     1       0.729   4.159  20.169  0.00  0.00    +0.000 F 
ATOM      5  F   UNL     1       0.030   2.344  19.211  0.00  0.00    +0.000 F 
ATOM      6  F   UNL     1       1.458   2.219  20.849  0.00  0.00    +0.000 F 
ENDBRANCH   1   3
BRANCH   1   7
ATOM      7  O   UNL     1       2.486   1.769  17.988  0.00  0.00    +0.000 OA
ATOM      8  H   UNL     1       2.229   1.931  17.061  0.00  0.00    +0.000 HD
ENDBRANCH   1   7
BRANCH   1   9
ATOM      9  C   UNL     1       3.604   3.412  19.429  0.00  0.00    +0.000 C 
BRANCH   9  11
ATOM     10  C   UNL     1       5.182   5.156  19.255  0.00  0.00    +0.000 C 
ATOM     11  O   UNL     1       3.801   4.823  19.349  0.00  0.00    +0.000 OA
ENDBRANCH   9  11
ENDBRANCH   1   9
TORSDOF 4
ENDMDL
MODEL 7
REMARK VINA RESULT:      -4.4      3.705      5.054
REMARK  Name = 
REMARK  6 active torsions:
REMARK  status: ('A' for Active; 'I' for Inactive)
REMARK    1  A    between atoms: C_1  and  O_2
REMARK    2  A    between atoms: O_2  and  C_3
REMARK    3  A    between atoms: C_3  and  C_4
REMARK    4  A    between atoms: C_4  and  C_5
REMARK    5  A    between atoms: C_4  and  O_6
REMARK    6  A    between atoms: C_4  and  C_7
REMARK                            x       y       z     vdW  Elec       q    Type
REMARK                         _______ _______ _______ _____ _____    ______ ____
ROOT
ATOM      1  C   UNL     1       6.754   5.050  17.543  0.00  0.00    +0.000 C 
ATOM      2  C   UNL     1       7.444   6.422  17.514  0.00  0.00    +0.000 C 
ENDROOT
BRANCH   1   3
ATOM      3  C   UNL     1       6.059   4.755  16.180  0.00  0.00    +0.000 C 
ATOM      4  F   UNL     1       5.994   3.429  15.915  0.00  0.00    +0.000 F 
ATOM      5  F   UNL     1       4.782   5.209  16.167  0.00  0.00    +0.000 F 
ATOM      6  F   UNL     1       6.697   5.343  15.141  0.00  0.00    +0.000 F 
ENDBRANCH   1   3
BRANCH   1   7
ATOM      7  O   UNL     1       7.833   4.119  17.842  0.00  0.00    +0.000 OA
ATOM      8  H   UNL     1       7.433   3.328  18.249  0.00  0.00    +0.000 HD
ENDBRANCH   1   7
BRANCH   1   9
ATOM      9  C   UNL     1       5.717   5.034  18.686  0.00  0.00    +0.000 C 
BRANCH   9  11
ATOM     10  C   UNL     1       4.336   3.193  19.202  0.00  0.00    +0.000 C 
ATOM     11  O   UNL     1       5.649   3.736  19.276  0.00  0.00    +0.000 OA
ENDBRANCH   9  11
ENDBRANCH   1   9
TORSDOF 4
ENDMDL
MODEL 8
REMARK VINA RESULT:      -4.4      3.588      4.984
REMARK  Name = 
REMARK  6 active torsions:
REMARK  status: ('A' for Active; 'I' for Inactive)
REMARK    1  A    between atoms: C_1  and  O_2
REMARK    2  A    between atoms: O_2  and  C_3
REMARK    3  A    between atoms: C_3  and  C_4
REMARK    4  A    between atoms: C_4  and  C_5
REMARK    5  A    between atoms: C_4  and  O_6
REMARK    6  A    between atoms: C_4  and  C_7
REMARK                            x       y       z     vdW  Elec       q    Type
REMARK                         _______ _______ _______ _____ _____    ______ ____
ROOT
ATOM      1  C   UNL     1       6.699   5.019  17.600  0.00  0.00    +0.000 C 
ATOM      2  C   UNL     1       7.386   6.390  17.512  0.00  0.00    +0.000 C 
ENDROOT
BRANCH   1   3
ATOM      3  C   UNL     1       5.901   4.719  16.296  0.00  0.00    +0.000 C 
ATOM      4  F   UNL     1       6.285   5.511  15.268  0.00  0.00    +0.000 F 
ATOM      5  F   UNL     1       6.088   3.441  15.885  0.00  0.00    +0.000 F 
ATOM      6  F   UNL     1       4.568   4.889  16.460  0.00  0.00    +0.000 F 
ENDBRANCH   1   3
BRANCH   1   7
ATOM      7  O   UNL     1       7.797   4.088  17.819  0.00  0.00    +0.000 OA
ATOM      8  H   UNL     1       7.460   3.363  18.378  0.00  0.00    +0.000 HD
ENDBRANCH   1   7
BRANCH   1   9
ATOM      9  C   UNL     1       5.754   5.009  18.820  0.00  0.00    +0.000 C 
BRANCH   9  11
ATOM     10  C   UNL     1       4.276   3.258  19.380  0.00  0.00    +0.000 C 
ATOM     11  O   UNL     1       5.632   3.687  19.343  0.00  0.00    +0.000 OA
ENDBRANCH   9  11
ENDBRANCH   1   9
TORSDOF 4
ENDMDL
MODEL 9
REMARK VINA RESULT:      -4.4      3.983      5.151
REMARK  Name = 
REMARK  6 active torsions:
REMARK  status: ('A' for Active; 'I' for Inactive)
REMARK    1  A    between atoms: C_1  and  O_2
REMARK    2  A    between atoms: O_2  and  C_3
REMARK    3  A    between atoms: C_3  and  C_4
REMARK    4  A    between atoms: C_4  and  C_5
REMARK    5  A    between atoms: C_4  and  O_6
REMARK    6  A    between atoms: C_4  and  C_7
REMARK                            x       y       z     vdW  Elec       q    Type
REMARK                         _______ _______ _______ _____ _____    ______ ____
ROOT
ATOM      1  C   UNL     1       6.768   4.872  17.113  0.00  0.00    +0.000 C 
ATOM      2  C   UNL     1       7.202   6.345  17.165  0.00  0.00    +0.000 C 
ENDROOT
BRANCH   1   3
ATOM      3  C   UNL     1       5.945   4.587  15.821  0.00  0.00    +0.000 C 
ATOM      4  F   UNL     1       4.860   3.815  16.066  0.00  0.00    +0.000 F 
ATOM      5  F   UNL     1       5.481   5.733  15.267  0.00  0.00    +0.000 F 
ATOM      6  F   UNL     1       6.681   3.961  14.873  0.00  0.00    +0.000 F 
ENDBRANCH   1   3
BRANCH   1   7
ATOM      7  O   UNL     1       8.021   4.133  17.162  0.00  0.00    +0.000 OA
ATOM      8  H   UNL     1       8.335   4.148  18.086  0.00  0.00    +0.000 HD
ENDBRANCH   1   7
BRANCH   1   9
ATOM      9  C   UNL     1       5.924   4.554  18.366  0.00  0.00    +0.000 C 
BRANCH   9  11
ATOM     10  C   UNL     1       3.964   5.268  19.467  0.00  0.00    +0.000 C 
ATOM     11  O   UNL     1       5.098   5.667  18.704  0.00  0.00    +0.000 OA
ENDBRANCH   9  11
ENDBRANCH   1   9
TORSDOF 4
ENDMDL
