MODEL 1
REMARK VINA RESULT:      -8.7      0.000      0.000
REMARK  Name = 
REMARK  10 active torsions:
REMARK  status: ('A' for Active; 'I' for Inactive)
REMARK    1  A    between atoms: C_1  and  O_2
REMARK    2  A    between atoms: O_2  and  C_3
REMARK    3  A    between atoms: C_5  and  C_6
REMARK    4  A    between atoms: C_10  and  C_11
REMARK    5  A    between atoms: C_12  and  C_13
REMARK    6  A    between atoms: C_13  and  O_14
REMARK    7  A    between atoms: C_15  and  C_16
REMARK    8  A    between atoms: C_16  and  C_17
REMARK    9  A    between atoms: C_16  and  C_18
REMARK   10  A    between atoms: C_16  and  O_19
REMARK                            x       y       z     vdW  Elec       q    Type
REMARK                         _______ _______ _______ _____ _____    ______ ____
ROOT
ATOM      1  C   UNL     1       3.284   5.842  18.212  0.00  0.00    +0.000 A 
ATOM      2  C   UNL     1       4.404   5.965  17.315  0.00  0.00    +0.000 A 
ATOM      3  C   UNL     1       4.806   4.661  16.984  0.00  0.00    +0.000 A 
ATOM      4  N   UNL     1       3.954   3.802  17.647  0.00  0.00    +0.000 N 
ATOM      5  N   UNL     1       4.010   2.455  17.579  0.00  0.00    +0.000 NA
ATOM      6  C   UNL     1       3.120   1.838  18.286  0.00  0.00    +0.000 A 
ATOM      7  N   UNL     1       2.120   2.412  19.016  0.00  0.00    +0.000 NA
ATOM      8  C   UNL     1       2.024   3.709  19.051  0.00  0.00    +0.000 A 
ATOM      9  N   UNL     1       0.953   4.175  19.739  0.00  0.00    +0.000 N 
ATOM     10  C   UNL     1       3.019   4.493  18.368  0.00  0.00    +0.000 A 
ATOM     11  H   UNL     1       0.397   3.505  20.253  0.00  0.00    +0.000 HD
ATOM     12  H   UNL     1       0.678   5.145  19.761  0.00  0.00    +0.000 HD
ENDROOT
BRANCH   1  20
ATOM     13  C   UNL     1       0.700  10.321  19.621  0.00  0.00    +0.000 A 
ATOM     14  C   UNL     1       0.079  10.613  20.845  0.00  0.00    +0.000 A 
ATOM     15  C   UNL     1       0.121   9.716  21.913  0.00  0.00    +0.000 A 
ATOM     16  C   UNL     1      -0.566  10.032  23.210  0.00  0.00    +0.000 C 
ATOM     17  C   UNL     1       0.809   8.505  21.772  0.00  0.00    +0.000 A 
ATOM     18  C   UNL     1       1.433   8.170  20.550  0.00  0.00    +0.000 A 
ATOM     19  C   UNL     1       2.217   7.022  20.200  0.00  0.00    +0.000 A 
ATOM     20  C   UNL     1       2.550   6.977  18.868  0.00  0.00    +0.000 A 
ATOM     21  S   UNL     1       2.083   8.412  18.076  0.00  0.00    +0.000 S 
ATOM     22  C   UNL     1       1.335   9.067  19.483  0.00  0.00    +0.000 A 
BRANCH  13  24
ATOM     23  C   UNL     1       1.617  12.245  18.604  0.00  0.00    +0.000 C 
ATOM     24  O   UNL     1       0.678  11.174  18.545  0.00  0.00    +0.000 OA
ENDBRANCH  13  24
ENDBRANCH   1  20
BRANCH   3  25
ATOM     25  C   UNL     1       5.964   4.203  16.099  0.00  0.00    +0.000 C 
ATOM     26  C   UNL     1       5.918   4.871  14.721  0.00  0.00    +0.000 C 
ATOM     27  C   UNL     1       7.312   4.403  16.799  0.00  0.00    +0.000 C 
BRANCH  25  28
ATOM     28  O   UNL     1       5.898   2.799  15.822  0.00  0.00    +0.000 OA
ATOM     29  H   UNL     1       6.725   2.537  15.375  0.00  0.00    +0.000 HD
ENDBRANCH  25  28
ENDBRANCH   3  25
BRANCH   2  30
ATOM     30  C   UNL     1       5.053   7.247  16.874  0.00  0.00    +0.000 C 
BRANCH  30  31
ATOM     31  O   UNL     1       6.343   7.430  17.447  0.00  0.00    +0.000 OA
ATOM     32  H   UNL     1       6.982   7.350  16.717  0.00  0.00    +0.000 HD
ENDBRANCH  30  31
ENDBRANCH   2  30
TORSDOF 6
ENDMDL
MODEL 2
REMARK VINA RESULT:      -8.3      1.149      2.061
REMARK  Name = 
REMARK  10 active torsions:
REMARK  status: ('A' for Active; 'I' for Inactive)
REMARK    1  A    between atoms: C_1  and  O_2
REMARK    2  A    between atoms: O_2  and  C_3
REMARK    3  A    between atoms: C_5  and  C_6
REMARK    4  A    between atoms: C_10  and  C_11
REMARK    5  A    between atoms: C_12  and  C_13
REMARK    6  A    between atoms: C_13  and  O_14
REMARK    7  A    between atoms: C_15  and  C_16
REMARK    8  A    between atoms: C_16  and  C_17
REMARK    9  A    between atoms: C_16  and  C_18
REMARK   10  A    between atoms: C_16  and  O_19
REMARK                            x       y       z     vdW  Elec       q    Type
REMARK                         _______ _______ _______ _____ _____    ______ ____
ROOT
ATOM      1  C   UNL     1       3.263   5.844  18.060  0.00  0.00    +0.000 A 
ATOM      2  C   UNL     1       4.363   5.929  17.135  0.00  0.00    +0.000 A 
ATOM      3  C   UNL     1       4.784   4.614  16.879  0.00  0.00    +0.000 A 
ATOM      4  N   UNL     1       3.960   3.784  17.612  0.00  0.00    +0.000 N 
ATOM      5  N   UNL     1       4.041   2.436  17.629  0.00  0.00    +0.000 NA
ATOM      6  C   UNL     1       3.175   1.850  18.391  0.00  0.00    +0.000 A 
ATOM      7  N   UNL     1       2.179   2.452  19.102  0.00  0.00    +0.000 NA
ATOM      8  C   UNL     1       2.059   3.747  19.057  0.00  0.00    +0.000 A 
ATOM      9  N   UNL     1       0.992   4.237  19.735  0.00  0.00    +0.000 N 
ATOM     10  C   UNL     1       3.026   4.503  18.307  0.00  0.00    +0.000 A 
ATOM     11  H   UNL     1       0.458   3.591  20.302  0.00  0.00    +0.000 HD
ATOM     12  H   UNL     1       0.699   5.200  19.701  0.00  0.00    +0.000 HD
ENDROOT
BRANCH   1  20
ATOM     13  C   UNL     1       0.755   9.497  21.076  0.00  0.00    +0.000 A 
ATOM     14  C   UNL     1       0.256  10.748  20.683  0.00  0.00    +0.000 A 
ATOM     15  C   UNL     1       0.326  11.173  19.356  0.00  0.00    +0.000 A 
ATOM     16  C   UNL     1      -0.193  12.523  18.954  0.00  0.00    +0.000 C 
ATOM     17  C   UNL     1       0.889  10.332  18.389  0.00  0.00    +0.000 A 
ATOM     18  C   UNL     1       1.415   9.072  18.750  0.00  0.00    +0.000 A 
ATOM     19  C   UNL     1       1.991   8.046  17.931  0.00  0.00    +0.000 A 
ATOM     20  C   UNL     1       2.519   7.005  18.657  0.00  0.00    +0.000 A 
ATOM     21  S   UNL     1       2.153   7.171  20.313  0.00  0.00    +0.000 S 
ATOM     22  C   UNL     1       1.374   8.692  20.093  0.00  0.00    +0.000 A 
BRANCH  13  24
ATOM     23  C   UNL     1      -0.226   9.709  23.214  0.00  0.00    +0.000 C 
ATOM     24  O   UNL     1       0.710   9.042  22.371  0.00  0.00    +0.000 OA
ENDBRANCH  13  24
ENDBRANCH   1  20
BRANCH   3  25
ATOM     25  C   UNL     1       5.933   4.121  16.002  0.00  0.00    +0.000 C 
ATOM     26  C   UNL     1       5.851   4.701  14.587  0.00  0.00    +0.000 C 
ATOM     27  C   UNL     1       7.290   4.387  16.663  0.00  0.00    +0.000 C 
BRANCH  25  28
ATOM     28  O   UNL     1       5.888   2.702  15.814  0.00  0.00    +0.000 OA
ATOM     29  H   UNL     1       6.753   2.411  15.471  0.00  0.00    +0.000 HD
ENDBRANCH  25  28
ENDBRANCH   3  25
BRANCH   2  30
ATOM     30  C   UNL     1       4.979   7.192  16.601  0.00  0.00    +0.000 C 
BRANCH  30  31
ATOM     31  O   UNL     1       6.279   7.430  17.131  0.00  0.00    +0.000 OA
ATOM     32  H   UNL     1       6.894   6.892  16.602  0.00  0.00    +0.000 HD
ENDBRANCH  30  31
ENDBRANCH   2  30
TORSDOF 6
ENDMDL
MODEL 3
REMARK VINA RESULT:      -7.9      0.864      1.090
REMARK  Name = 
REMARK  10 active torsions:
REMARK  status: ('A' for Active; 'I' for Inactive)
REMARK    1  A    between atoms: C_1  and  O_2
REMARK    2  A    between atoms: O_2  and  C_3
REMARK    3  A    between atoms: C_5  and  C_6
REMARK    4  A    between atoms: C_10  and  C_11
REMARK    5  A    between atoms: C_12  and  C_13
REMARK    6  A    between atoms: C_13  and  O_14
REMARK    7  A    between atoms: C_15  and  C_16
REMARK    8  A    between atoms: C_16  and  C_17
REMARK    9  A    between atoms: C_16  and  C_18
REMARK   10  A    between atoms: C_16  and  O_19
REMARK                            x       y       z     vdW  Elec       q    Type
REMARK                         _______ _______ _______ _____ _____    ______ ____
ROOT
ATOM      1  C   UNL     1       3.384   6.118  18.100  0.00  0.00    +0.000 A 
ATOM      2  C   UNL     1       4.539   6.336  17.269  0.00  0.00    +0.000 A 
ATOM      3  C   UNL     1       5.017   5.069  16.896  0.00  0.00    +0.000 A 
ATOM      4  N   UNL     1       4.175   4.140  17.472  0.00  0.00    +0.000 N 
ATOM      5  N   UNL     1       4.297   2.802  17.342  0.00  0.00    +0.000 NA
ATOM      6  C   UNL     1       3.403   2.112  17.972  0.00  0.00    +0.000 A 
ATOM      7  N   UNL     1       2.343   2.604  18.676  0.00  0.00    +0.000 NA
ATOM      8  C   UNL     1       2.184   3.892  18.769  0.00  0.00    +0.000 A 
ATOM      9  N   UNL     1       1.060   4.275  19.422  0.00  0.00    +0.000 N 
ATOM     10  C   UNL     1       3.174   4.752  18.177  0.00  0.00    +0.000 A 
ATOM     11  H   UNL     1       0.511   3.556  19.875  0.00  0.00    +0.000 HD
ATOM     12  H   UNL     1       0.739   5.228  19.477  0.00  0.00    +0.000 HD
ENDROOT
BRANCH   1  20
ATOM     13  C   UNL     1       0.406  10.330  19.554  0.00  0.00    +0.000 A 
ATOM     14  C   UNL     1      -0.178  10.586  20.804  0.00  0.00    +0.000 A 
ATOM     15  C   UNL     1       0.016   9.728  21.886  0.00  0.00    +0.000 A 
ATOM     16  C   UNL     1      -0.633  10.003  23.212  0.00  0.00    +0.000 C 
ATOM     17  C   UNL     1       0.823   8.594  21.733  0.00  0.00    +0.000 A 
ATOM     18  C   UNL     1       1.415   8.296  20.486  0.00  0.00    +0.000 A 
ATOM     19  C   UNL     1       2.299   7.229  20.118  0.00  0.00    +0.000 A 
ATOM     20  C   UNL     1       2.565   7.185  18.771  0.00  0.00    +0.000 A 
ATOM     21  S   UNL     1       1.906   8.540  17.976  0.00  0.00    +0.000 S 
ATOM     22  C   UNL     1       1.165   9.148  19.408  0.00  0.00    +0.000 A 
BRANCH  13  24
ATOM     23  C   UNL     1      -1.024  11.808  18.393  0.00  0.00    +0.000 C 
ATOM     24  O   UNL     1       0.237  11.147  18.463  0.00  0.00    +0.000 OA
ENDBRANCH  13  24
ENDBRANCH   1  20
BRANCH   3  25
ATOM     25  C   UNL     1       6.238   4.707  16.051  0.00  0.00    +0.000 C 
ATOM     26  C   UNL     1       7.456   4.397  16.925  0.00  0.00    +0.000 C 
ATOM     27  C   UNL     1       5.919   3.573  15.071  0.00  0.00    +0.000 C 
BRANCH  25  28
ATOM     28  O   UNL     1       6.656   5.800  15.225  0.00  0.00    +0.000 OA
ATOM     29  H   UNL     1       5.904   6.063  14.662  0.00  0.00    +0.000 HD
ENDBRANCH  25  28
ENDBRANCH   3  25
BRANCH   2  30
ATOM     30  C   UNL     1       5.149   7.666  16.924  0.00  0.00    +0.000 C 
BRANCH  30  31
ATOM     31  O   UNL     1       6.538   7.724  17.229  0.00  0.00    +0.000 OA
ATOM     32  H   UNL     1       6.642   8.419  17.903  0.00  0.00    +0.000 HD
ENDBRANCH  30  31
ENDBRANCH   2  30
TORSDOF 6
ENDMDL
MODEL 4
REMARK VINA RESULT:      -7.5      1.720      2.439
REMARK  Name = 
REMARK  10 active torsions:
REMARK  status: ('A' for Active; 'I' for Inactive)
REMARK    1  A    between atoms: C_1  and  O_2
REMARK    2  A    between atoms: O_2  and  C_3
REMARK    3  A    between atoms: C_5  and  C_6
REMARK    4  A    between atoms: C_10  and  C_11
REMARK    5  A    between atoms: C_12  and  C_13
REMARK    6  A    between atoms: C_13  and  O_14
REMARK    7  A    between atoms: C_15  and  C_16
REMARK    8  A    between atoms: C_16  and  C_17
REMARK    9  A    between atoms: C_16  and  C_18
REMARK   10  A    between atoms: C_16  and  O_19
REMARK                            x       y       z     vdW  Elec       q    Type
REMARK                         _______ _______ _______ _____ _____    ______ ____
ROOT
ATOM      1  C   UNL     1       3.434   6.226  18.755  0.00  0.00    +0.000 A 
ATOM      2  C   UNL     1       4.535   6.340  17.833  0.00  0.00    +0.000 A 
ATOM      3  C   UNL     1       5.250   5.134  17.902  0.00  0.00    +0.000 A 
ATOM      4  N   UNL     1       4.596   4.334  18.817  0.00  0.00    +0.000 N 
ATOM      5  N   UNL     1       4.974   3.084  19.159  0.00  0.00    +0.000 NA
ATOM      6  C   UNL     1       4.222   2.513  20.043  0.00  0.00    +0.000 A 
ATOM      7  N   UNL     1       3.081   3.021  20.591  0.00  0.00    +0.000 NA
ATOM      8  C   UNL     1       2.677   4.205  20.234  0.00  0.00    +0.000 A 
ATOM      9  N   UNL     1       1.494   4.584  20.777  0.00  0.00    +0.000 N 
ATOM     10  C   UNL     1       3.489   4.963  19.320  0.00  0.00    +0.000 A 
ATOM     11  H   UNL     1       1.089   3.986  21.484  0.00  0.00    +0.000 HD
ATOM     12  H   UNL     1       0.996   5.418  20.511  0.00  0.00    +0.000 HD
ENDROOT
BRANCH   1  20
ATOM     13  C   UNL     1      -0.045   9.752  20.801  0.00  0.00    +0.000 A 
ATOM     14  C   UNL     1      -0.729  10.779  20.134  0.00  0.00    +0.000 A 
ATOM     15  C   UNL     1      -0.598  10.964  18.757  0.00  0.00    +0.000 A 
ATOM     16  C   UNL     1      -1.319  12.081  18.059  0.00  0.00    +0.000 C 
ATOM     17  C   UNL     1       0.219  10.100  18.019  0.00  0.00    +0.000 A 
ATOM     18  C   UNL     1       0.935   9.065  18.658  0.00  0.00    +0.000 A 
ATOM     19  C   UNL     1       1.784   8.052  18.102  0.00  0.00    +0.000 A 
ATOM     20  C   UNL     1       2.420   7.293  19.055  0.00  0.00    +0.000 A 
ATOM     21  S   UNL     1       1.849   7.673  20.616  0.00  0.00    +0.000 S 
ATOM     22  C   UNL     1       0.821   8.932  20.044  0.00  0.00    +0.000 A 
BRANCH  13  24
ATOM     23  C   UNL     1      -0.765  10.589  22.889  0.00  0.00    +0.000 C 
ATOM     24  O   UNL     1      -0.144   9.538  22.154  0.00  0.00    +0.000 OA
ENDBRANCH  13  24
ENDBRANCH   1  20
BRANCH   3  25
ATOM     25  C   UNL     1       6.526   4.724  17.167  0.00  0.00    +0.000 C 
ATOM     26  C   UNL     1       6.211   3.933  15.894  0.00  0.00    +0.000 C 
ATOM     27  C   UNL     1       7.423   5.935  16.894  0.00  0.00    +0.000 C 
BRANCH  25  28
ATOM     28  O   UNL     1       7.331   3.839  17.953  0.00  0.00    +0.000 OA
ATOM     29  H   UNL     1       6.747   3.360  18.570  0.00  0.00    +0.000 HD
ENDBRANCH  25  28
ENDBRANCH   3  25
BRANCH   2  30
ATOM     30  C   UNL     1       4.881   7.547  17.007  0.00  0.00    +0.000 C 
BRANCH  30  31
ATOM     31  O   UNL     1       4.814   7.287  15.610  0.00  0.00    +0.000 OA
ATOM     32  H   UNL     1       3.955   6.856  15.451  0.00  0.00    +0.000 HD
ENDBRANCH  30  31
ENDBRANCH   2  30
TORSDOF 6
ENDMDL
MODEL 5
REMARK VINA RESULT:      -7.5      1.404      2.308
REMARK  Name = 
REMARK  10 active torsions:
REMARK  status: ('A' for Active; 'I' for Inactive)
REMARK    1  A    between atoms: C_1  and  O_2
REMARK    2  A    between atoms: O_2  and  C_3
REMARK    3  A    between atoms: C_5  and  C_6
REMARK    4  A    between atoms: C_10  and  C_11
REMARK    5  A    between atoms: C_12  and  C_13
REMARK    6  A    between atoms: C_13  and  O_14
REMARK    7  A    between atoms: C_15  and  C_16
REMARK    8  A    between atoms: C_16  and  C_17
REMARK    9  A    between atoms: C_16  and  C_18
REMARK   10  A    between atoms: C_16  and  O_19
REMARK                            x       y       z     vdW  Elec       q    Type
REMARK                         _______ _______ _______ _____ _____    ______ ____
ROOT
ATOM      1  C   UNL     1       3.512   6.156  18.019  0.00  0.00    +0.000 A 
ATOM      2  C   UNL     1       4.753   6.374  17.321  0.00  0.00    +0.000 A 
ATOM      3  C   UNL     1       5.270   5.108  17.003  0.00  0.00    +0.000 A 
ATOM      4  N   UNL     1       4.368   4.178  17.481  0.00  0.00    +0.000 N 
ATOM      5  N   UNL     1       4.503   2.841  17.364  0.00  0.00    +0.000 NA
ATOM      6  C   UNL     1       3.544   2.150  17.889  0.00  0.00    +0.000 A 
ATOM      7  N   UNL     1       2.413   2.642  18.472  0.00  0.00    +0.000 NA
ATOM      8  C   UNL     1       2.245   3.930  18.548  0.00  0.00    +0.000 A 
ATOM      9  N   UNL     1       1.056   4.312  19.073  0.00  0.00    +0.000 N 
ATOM     10  C   UNL     1       3.295   4.790  18.070  0.00  0.00    +0.000 A 
ATOM     11  H   UNL     1       0.460   3.593  19.460  0.00  0.00    +0.000 HD
ATOM     12  H   UNL     1       0.731   5.266  19.092  0.00  0.00    +0.000 HD
ENDROOT
BRANCH   1  20
ATOM     13  C   UNL     1       0.494   9.467  20.961  0.00  0.00    +0.000 A 
ATOM     14  C   UNL     1      -0.107  10.670  20.565  0.00  0.00    +0.000 A 
ATOM     15  C   UNL     1      -0.012  11.133  19.252  0.00  0.00    +0.000 A 
ATOM     16  C   UNL     1      -0.643  12.433  18.847  0.00  0.00    +0.000 C 
ATOM     17  C   UNL     1       0.683  10.376  18.302  0.00  0.00    +0.000 A 
ATOM     18  C   UNL     1       1.315   9.166  18.667  0.00  0.00    +0.000 A 
ATOM     19  C   UNL     1       2.033   8.222  17.862  0.00  0.00    +0.000 A 
ATOM     20  C   UNL     1       2.625   7.222  18.596  0.00  0.00    +0.000 A 
ATOM     21  S   UNL     1       2.158   7.311  20.232  0.00  0.00    +0.000 S 
ATOM     22  C   UNL     1       1.242   8.752  19.999  0.00  0.00    +0.000 A 
BRANCH  13  24
ATOM     23  C   UNL     1      -0.366   9.748  23.143  0.00  0.00    +0.000 C 
ATOM     24  O   UNL     1       0.428   8.979  22.243  0.00  0.00    +0.000 OA
ENDBRANCH  13  24
ENDBRANCH   1  20
BRANCH   3  25
ATOM     25  C   UNL     1       6.576   4.746  16.298  0.00  0.00    +0.000 C 
ATOM     26  C   UNL     1       7.665   4.353  17.300  0.00  0.00    +0.000 C 
ATOM     27  C   UNL     1       6.352   3.672  15.229  0.00  0.00    +0.000 C 
BRANCH  25  28
ATOM     28  O   UNL     1       7.125   5.863  15.589  0.00  0.00    +0.000 OA
ATOM     29  H   UNL     1       8.079   5.707  15.463  0.00  0.00    +0.000 HD
ENDBRANCH  25  28
ENDBRANCH   3  25
BRANCH   2  30
ATOM     30  C   UNL     1       5.398   7.704  17.048  0.00  0.00    +0.000 C 
BRANCH  30  31
ATOM     31  O   UNL     1       6.722   7.784  17.564  0.00  0.00    +0.000 OA
ATOM     32  H   UNL     1       6.878   6.955  18.050  0.00  0.00    +0.000 HD
ENDBRANCH  30  31
ENDBRANCH   2  30
TORSDOF 6
ENDMDL
MODEL 6
REMARK VINA RESULT:      -7.4      1.374      1.482
REMARK  Name = 
REMARK  10 active torsions:
REMARK  status: ('A' for Active; 'I' for Inactive)
REMARK    1  A    between atoms: C_1  and  O_2
REMARK    2  A    between atoms: O_2  and  C_3
REMARK    3  A    between atoms: C_5  and  C_6
REMARK    4  A    between atoms: C_10  and  C_11
REMARK    5  A    between atoms: C_12  and  C_13
REMARK    6  A    between atoms: C_13  and  O_14
REMARK    7  A    between atoms: C_15  and  C_16
REMARK    8  A    between atoms: C_16  and  C_17
REMARK    9  A    between atoms: C_16  and  C_18
REMARK   10  A    between atoms: C_16  and  O_19
REMARK                            x       y       z     vdW  Elec       q    Type
REMARK                         _______ _______ _______ _____ _____    ______ ____
ROOT
ATOM      1  C   UNL     1       3.471   6.157  18.889  0.00  0.00    +0.000 A 
ATOM      2  C   UNL     1       4.515   6.282  17.905  0.00  0.00    +0.000 A 
ATOM      3  C   UNL     1       5.199   5.055  17.878  0.00  0.00    +0.000 A 
ATOM      4  N   UNL     1       4.580   4.234  18.799  0.00  0.00    +0.000 N 
ATOM      5  N   UNL     1       4.942   2.961  19.064  0.00  0.00    +0.000 NA
ATOM      6  C   UNL     1       4.231   2.372  19.970  0.00  0.00    +0.000 A 
ATOM      7  N   UNL     1       3.141   2.886  20.609  0.00  0.00    +0.000 NA
ATOM      8  C   UNL     1       2.750   4.095  20.328  0.00  0.00    +0.000 A 
ATOM      9  N   UNL     1       1.614   4.480  20.960  0.00  0.00    +0.000 N 
ATOM     10  C   UNL     1       3.525   4.870  19.396  0.00  0.00    +0.000 A 
ATOM     11  H   UNL     1       1.237   3.863  21.666  0.00  0.00    +0.000 HD
ATOM     12  H   UNL     1       1.125   5.338  20.761  0.00  0.00    +0.000 HD
ENDROOT
BRANCH   1  20
ATOM     13  C   UNL     1      -0.079  10.147  19.335  0.00  0.00    +0.000 A 
ATOM     14  C   UNL     1      -0.694  10.631  20.499  0.00  0.00    +0.000 A 
ATOM     15  C   UNL     1      -0.378  10.115  21.756  0.00  0.00    +0.000 A 
ATOM     16  C   UNL     1      -1.059  10.629  22.991  0.00  0.00    +0.000 C 
ATOM     17  C   UNL     1       0.583   9.103  21.866  0.00  0.00    +0.000 A 
ATOM     18  C   UNL     1       1.211   8.580  20.715  0.00  0.00    +0.000 A 
ATOM     19  C   UNL     1       2.239   7.587  20.597  0.00  0.00    +0.000 A 
ATOM     20  C   UNL     1       2.509   7.236  19.297  0.00  0.00    +0.000 A 
ATOM     21  S   UNL     1       1.661   8.237  18.208  0.00  0.00    +0.000 S 
ATOM     22  C   UNL     1       0.842   9.083  19.466  0.00  0.00    +0.000 A 
BRANCH  13  24
ATOM     23  C   UNL     1      -1.581  10.146  17.512  0.00  0.00    +0.000 C 
ATOM     24  O   UNL     1      -0.364  10.624  18.079  0.00  0.00    +0.000 OA
ENDBRANCH  13  24
ENDBRANCH   1  20
BRANCH   3  25
ATOM     25  C   UNL     1       6.414   4.644  17.047  0.00  0.00    +0.000 C 
ATOM     26  C   UNL     1       6.004   3.826  15.819  0.00  0.00    +0.000 C 
ATOM     27  C   UNL     1       7.272   5.859  16.680  0.00  0.00    +0.000 C 
BRANCH  25  28
ATOM     28  O   UNL     1       7.291   3.782  17.780  0.00  0.00    +0.000 OA
ATOM     29  H   UNL     1       7.092   2.860  17.531  0.00  0.00    +0.000 HD
ENDBRANCH  25  28
ENDBRANCH   3  25
BRANCH   2  30
ATOM     30  C   UNL     1       4.844   7.514  17.109  0.00  0.00    +0.000 C 
BRANCH  30  31
ATOM     31  O   UNL     1       4.721   7.304  15.706  0.00  0.00    +0.000 OA
ATOM     32  H   UNL     1       3.767   7.272  15.516  0.00  0.00    +0.000 HD
ENDBRANCH  30  31
ENDBRANCH   2  30
TORSDOF 6
ENDMDL
MODEL 7
REMARK VINA RESULT:      -7.3      2.238      3.994
REMARK  Name = 
REMARK  10 active torsions:
REMARK  status: ('A' for Active; 'I' for Inactive)
REMARK    1  A    between atoms: C_1  and  O_2
REMARK    2  A    between atoms: O_2  and  C_3
REMARK    3  A    between atoms: C_5  and  C_6
REMARK    4  A    between atoms: C_10  and  C_11
REMARK    5  A    between atoms: C_12  and  C_13
REMARK    6  A    between atoms: C_13  and  O_14
REMARK    7  A    between atoms: C_15  and  C_16
REMARK    8  A    between atoms: C_16  and  C_17
REMARK    9  A    between atoms: C_16  and  C_18
REMARK   10  A    between atoms: C_16  and  O_19
REMARK                            x       y       z     vdW  Elec       q    Type
REMARK                         _______ _______ _______ _____ _____    ______ ____
ROOT
ATOM      1  C   UNL     1       2.813   6.024  18.870  0.00  0.00    +0.000 A 
ATOM      2  C   UNL     1       2.521   4.730  19.433  0.00  0.00    +0.000 A 
ATOM      3  C   UNL     1       3.338   3.803  18.766  0.00  0.00    +0.000 A 
ATOM      4  N   UNL     1       4.090   4.516  17.856  0.00  0.00    +0.000 N 
ATOM      5  N   UNL     1       5.007   3.980  17.023  0.00  0.00    +0.000 NA
ATOM      6  C   UNL     1       5.595   4.828  16.244  0.00  0.00    +0.000 A 
ATOM      7  N   UNL     1       5.424   6.182  16.238  0.00  0.00    +0.000 NA
ATOM      8  C   UNL     1       4.579   6.718  17.070  0.00  0.00    +0.000 A 
ATOM      9  N   UNL     1       4.541   8.073  17.037  0.00  0.00    +0.000 N 
ATOM     10  C   UNL     1       3.807   5.854  17.922  0.00  0.00    +0.000 A 
ATOM     11  H   UNL     1       5.068   8.541  16.312  0.00  0.00    +0.000 HD
ATOM     12  H   UNL     1       4.027   8.637  17.695  0.00  0.00    +0.000 HD
ENDROOT
BRANCH   1  20
ATOM     13  C   UNL     1       0.542  10.307  21.154  0.00  0.00    +0.000 A 
ATOM     14  C   UNL     1       0.133  11.500  20.540  0.00  0.00    +0.000 A 
ATOM     15  C   UNL     1       0.240  11.681  19.160  0.00  0.00    +0.000 A 
ATOM     16  C   UNL     1      -0.182  12.971  18.518  0.00  0.00    +0.000 C 
ATOM     17  C   UNL     1       0.750  10.647  18.366  0.00  0.00    +0.000 A 
ATOM     18  C   UNL     1       1.187   9.438  18.951  0.00  0.00    +0.000 A 
ATOM     19  C   UNL     1       1.696   8.248  18.335  0.00  0.00    +0.000 A 
ATOM     20  C   UNL     1       2.147   7.318  19.241  0.00  0.00    +0.000 A 
ATOM     21  S   UNL     1       1.782   7.796  20.835  0.00  0.00    +0.000 S 
ATOM     22  C   UNL     1       1.111   9.304  20.339  0.00  0.00    +0.000 A 
BRANCH  13  24
ATOM     23  C   UNL     1      -0.819  10.357  23.084  0.00  0.00    +0.000 C 
ATOM     24  O   UNL     1       0.457  10.091  22.508  0.00  0.00    +0.000 OA
ENDBRANCH  13  24
ENDBRANCH   1  20
BRANCH   3  25
ATOM     25  C   UNL     1       3.414   2.286  18.936  0.00  0.00    +0.000 C 
ATOM     26  C   UNL     1       4.337   1.896  20.094  0.00  0.00    +0.000 C 
ATOM     27  C   UNL     1       2.017   1.671  19.070  0.00  0.00    +0.000 C 
BRANCH  25  28
ATOM     28  O   UNL     1       3.987   1.651  17.788  0.00  0.00    +0.000 OA
ATOM     29  H   UNL     1       4.918   1.934  17.714  0.00  0.00    +0.000 HD
ENDBRANCH  25  28
ENDBRANCH   3  25
BRANCH   2  30
ATOM     30  C   UNL     1       1.491   4.431  20.486  0.00  0.00    +0.000 C 
BRANCH  30  31
ATOM     31  O   UNL     1       2.076   4.032  21.720  0.00  0.00    +0.000 OA
ATOM     32  H   UNL     1       1.351   3.687  22.270  0.00  0.00    +0.000 HD
ENDBRANCH  30  31
ENDBRANCH   2  30
TORSDOF 6
ENDMDL
MODEL 8
REMARK VINA RESULT:      -7.1      1.985      3.421
REMARK  Name = 
REMARK  10 active torsions:
REMARK  status: ('A' for Active; 'I' for Inactive)
REMARK    1  A    between atoms: C_1  and  O_2
REMARK    2  A    between atoms: O_2  and  C_3
REMARK    3  A    between atoms: C_5  and  C_6
REMARK    4  A    between atoms: C_10  and  C_11
REMARK    5  A    between atoms: C_12  and  C_13
REMARK    6  A    between atoms: C_13  and  O_14
REMARK    7  A    between atoms: C_15  and  C_16
REMARK    8  A    between atoms: C_16  and  C_17
REMARK    9  A    between atoms: C_16  and  C_18
REMARK   10  A    between atoms: C_16  and  O_19
REMARK                            x       y       z     vdW  Elec       q    Type
REMARK                         _______ _______ _______ _____ _____    ______ ____
ROOT
ATOM      1  C   UNL     1       2.749   5.980  19.053  0.00  0.00    +0.000 A 
ATOM      2  C   UNL     1       2.508   4.653  19.558  0.00  0.00    +0.000 A 
ATOM      3  C   UNL     1       3.329   3.781  18.824  0.00  0.00    +0.000 A 
ATOM      4  N   UNL     1       4.036   4.559  17.930  0.00  0.00    +0.000 N 
ATOM      5  N   UNL     1       4.941   4.090  17.046  0.00  0.00    +0.000 NA
ATOM      6  C   UNL     1       5.484   4.991  16.294  0.00  0.00    +0.000 A 
ATOM      7  N   UNL     1       5.277   6.338  16.361  0.00  0.00    +0.000 NA
ATOM      8  C   UNL     1       4.444   6.810  17.241  0.00  0.00    +0.000 A 
ATOM      9  N   UNL     1       4.369   8.163  17.277  0.00  0.00    +0.000 N 
ATOM     10  C   UNL     1       3.720   5.884  18.070  0.00  0.00    +0.000 A 
ATOM     11  H   UNL     1       4.862   8.680  16.561  0.00  0.00    +0.000 HD
ATOM     12  H   UNL     1       3.859   8.679  17.976  0.00  0.00    +0.000 HD
ENDROOT
BRANCH   1  20
ATOM     13  C   UNL     1       0.444  10.774  19.704  0.00  0.00    +0.000 A 
ATOM     14  C   UNL     1      -0.253  11.254  20.823  0.00  0.00    +0.000 A 
ATOM     15  C   UNL     1      -0.378  10.489  21.984  0.00  0.00    +0.000 A 
ATOM     16  C   UNL     1      -1.144  11.007  23.166  0.00  0.00    +0.000 C 
ATOM     17  C   UNL     1       0.214   9.222  22.044  0.00  0.00    +0.000 A 
ATOM     18  C   UNL     1       0.909   8.699  20.931  0.00  0.00    +0.000 A 
ATOM     19  C   UNL     1       1.620   7.462  20.787  0.00  0.00    +0.000 A 
ATOM     20  C   UNL     1       2.060   7.235  19.505  0.00  0.00    +0.000 A 
ATOM     21  S   UNL     1       1.787   8.598  18.518  0.00  0.00    +0.000 S 
ATOM     22  C   UNL     1       0.979   9.468  19.767  0.00  0.00    +0.000 A 
BRANCH  13  24
ATOM     23  C   UNL     1       1.553  12.539  18.594  0.00  0.00    +0.000 C 
ATOM     24  O   UNL     1       0.587  11.492  18.542  0.00  0.00    +0.000 OA
ENDBRANCH  13  24
ENDBRANCH   1  20
BRANCH   3  25
ATOM     25  C   UNL     1       3.450   2.261  18.916  0.00  0.00    +0.000 C 
ATOM     26  C   UNL     1       4.382   1.839  20.056  0.00  0.00    +0.000 C 
ATOM     27  C   UNL     1       2.072   1.599  19.014  0.00  0.00    +0.000 C 
BRANCH  25  28
ATOM     28  O   UNL     1       4.044   1.703  17.739  0.00  0.00    +0.000 OA
ATOM     29  H   UNL     1       3.448   1.871  16.986  0.00  0.00    +0.000 HD
ENDBRANCH  25  28
ENDBRANCH   3  25
BRANCH   2  30
ATOM     30  C   UNL     1       1.517   4.274  20.623  0.00  0.00    +0.000 C 
BRANCH  30  31
ATOM     31  O   UNL     1       2.148   3.827  21.819  0.00  0.00    +0.000 OA
ATOM     32  H   UNL     1       1.527   4.016  22.544  0.00  0.00    +0.000 HD
ENDBRANCH  30  31
ENDBRANCH   2  30
TORSDOF 6
ENDMDL
MODEL 9
REMARK VINA RESULT:      -6.7      3.825      8.759
REMARK  Name = 
REMARK  10 active torsions:
REMARK  status: ('A' for Active; 'I' for Inactive)
REMARK    1  A    between atoms: C_1  and  O_2
REMARK    2  A    between atoms: O_2  and  C_3
REMARK    3  A    between atoms: C_5  and  C_6
REMARK    4  A    between atoms: C_10  and  C_11
REMARK    5  A    between atoms: C_12  and  C_13
REMARK    6  A    between atoms: C_13  and  O_14
REMARK    7  A    between atoms: C_15  and  C_16
REMARK    8  A    between atoms: C_16  and  C_17
REMARK    9  A    between atoms: C_16  and  C_18
REMARK   10  A    between atoms: C_16  and  O_19
REMARK                            x       y       z     vdW  Elec       q    Type
REMARK                         _______ _______ _______ _____ _____    ______ ____
ROOT
ATOM      1  C   UNL     1      -0.098  10.124  19.910  0.00  0.00    +0.000 A 
ATOM      2  C   UNL     1      -0.198  10.780  21.189  0.00  0.00    +0.000 A 
ATOM      3  C   UNL     1      -1.269  11.684  21.100  0.00  0.00    +0.000 A 
ATOM      4  N   UNL     1      -1.789  11.562  19.828  0.00  0.00    +0.000 N 
ATOM      5  N   UNL     1      -2.841  12.262  19.353  0.00  0.00    +0.000 NA
ATOM      6  C   UNL     1      -3.161  11.997  18.128  0.00  0.00    +0.000 A 
ATOM      7  N   UNL     1      -2.591  11.054  17.324  0.00  0.00    +0.000 NA
ATOM      8  C   UNL     1      -1.608  10.337  17.785  0.00  0.00    +0.000 A 
ATOM      9  N   UNL     1      -1.165   9.378  16.935  0.00  0.00    +0.000 N 
ATOM     10  C   UNL     1      -1.116  10.612  19.108  0.00  0.00    +0.000 A 
ATOM     11  H   UNL     1      -1.541   9.372  15.996  0.00  0.00    +0.000 HD
ATOM     12  H   UNL     1      -0.492   8.672  17.187  0.00  0.00    +0.000 HD
ENDROOT
BRANCH   1  20
ATOM     13  C   UNL     1       3.252   5.980  19.340  0.00  0.00    +0.000 A 
ATOM     14  C   UNL     1       4.128   5.715  18.277  0.00  0.00    +0.000 A 
ATOM     15  C   UNL     1       4.258   6.600  17.206  0.00  0.00    +0.000 A 
ATOM     16  C   UNL     1       5.183   6.294  16.064  0.00  0.00    +0.000 C 
ATOM     17  C   UNL     1       3.514   7.786  17.195  0.00  0.00    +0.000 A 
ATOM     18  C   UNL     1       2.610   8.078  18.240  0.00  0.00    +0.000 A 
ATOM     19  C   UNL     1       1.790   9.235  18.452  0.00  0.00    +0.000 A 
ATOM     20  C   UNL     1       0.934   9.105  19.519  0.00  0.00    +0.000 A 
ATOM     21  S   UNL     1       1.250   7.670  20.382  0.00  0.00    +0.000 S 
ATOM     22  C   UNL     1       2.467   7.152  19.276  0.00  0.00    +0.000 A 
BRANCH  13  24
ATOM     23  C   UNL     1       2.653   3.819  20.081  0.00  0.00    +0.000 C 
ATOM     24  O   UNL     1       3.091   5.134  20.411  0.00  0.00    +0.000 OA
ENDBRANCH  13  24
ENDBRANCH   1  20
BRANCH   3  25
ATOM     25  C   UNL     1      -1.795  12.664  22.148  0.00  0.00    +0.000 C 
ATOM     26  C   UNL     1      -2.581  11.944  23.247  0.00  0.00    +0.000 C 
ATOM     27  C   UNL     1      -0.666  13.534  22.711  0.00  0.00    +0.000 C 
BRANCH  25  28
ATOM     28  O   UNL     1      -2.729  13.593  21.586  0.00  0.00    +0.000 OA
ATOM     29  H   UNL     1      -2.466  13.771  20.663  0.00  0.00    +0.000 HD
ENDBRANCH  25  28
ENDBRANCH   3  25
BRANCH   2  30
ATOM     30  C   UNL     1       0.714  10.577  22.366  0.00  0.00    +0.000 C 
BRANCH  30  31
ATOM     31  O   UNL     1       0.068   9.913  23.446  0.00  0.00    +0.000 OA
ATOM     32  H   UNL     1      -0.751   9.531  23.084  0.00  0.00    +0.000 HD
ENDBRANCH  30  31
ENDBRANCH   2  30
TORSDOF 6
ENDMDL
