MODEL 1
REMARK VINA RESULT:      -8.0      0.000      0.000
REMARK  Name = 
REMARK  9 active torsions:
REMARK  status: ('A' for Active; 'I' for Inactive)
REMARK    1  A    between atoms: C_1  and  C_2
REMARK    2  A    between atoms: C_2  and  C_3
REMARK    3  A    between atoms: C_2  and  C_4
REMARK    4  A    between atoms: C_6  and  O_7
REMARK    5  A    between atoms: O_7  and  C_8
REMARK    6  A    between atoms: C_8  and  C_9
REMARK    7  A    between atoms: C_9  and  C_10
REMARK    8  A    between atoms: C_10  and  N_11
REMARK    9  A    between atoms: C_18  and  C_19
REMARK                            x       y       z     vdW  Elec       q    Type
REMARK                         _______ _______ _______ _____ _____    ______ ____
ROOT
ATOM      1  C   UNL     1       2.921   3.547  19.726  0.00  0.00    +0.000 A 
ATOM      2  C   UNL     1       4.278   3.359  19.557  0.00  0.00    +0.000 A 
ATOM      3  C   UNL     1       5.006   4.486  19.262  0.00  0.00    +0.000 A 
ATOM      4  N   UNL     1       4.472   5.704  19.109  0.00  0.00    +0.000 NA
ATOM      5  C   UNL     1       3.146   5.801  19.283  0.00  0.00    +0.000 A 
ATOM      6  N   UNL     1       2.345   4.762  19.594  0.00  0.00    +0.000 NA
ENDROOT
BRANCH   5   7
ATOM      7  C   UNL     1       2.542   7.139  19.134  0.00  0.00    +0.000 A 
ATOM      8  C   UNL     1       1.828   7.741  20.190  0.00  0.00    +0.000 A 
ATOM      9  C   UNL     1       1.237   9.000  20.053  0.00  0.00    +0.000 A 
ATOM     10  C   UNL     1       1.346   9.691  18.852  0.00  0.00    +0.000 A 
ATOM     11  C   UNL     1       2.053   9.128  17.793  0.00  0.00    +0.000 A 
ATOM     12  C   UNL     1       2.645   7.868  17.934  0.00  0.00    +0.000 A 
ENDBRANCH   5   7
BRANCH   1  14
ATOM     13  C   UNL     1       1.523   2.445  21.501  0.00  0.00    +0.000 C 
ATOM     14  C   UNL     1       2.020   2.373  20.056  0.00  0.00    +0.000 C 
ATOM     15  C   UNL     1       0.842   2.316  19.081  0.00  0.00    +0.000 C 
ENDBRANCH   1  14
BRANCH   3  16
ATOM     16  O   UNL     1       6.365   4.321  19.069  0.00  0.00    +0.000 OA
BRANCH  16  17
ATOM     17  C   UNL     1       6.912   5.334  18.212  0.00  0.00    +0.000 C 
BRANCH  17  18
ATOM     18  C   UNL     1       6.885   4.808  16.782  0.00  0.00    +0.000 C 
BRANCH  18  19
ATOM     19  C   UNL     1       6.097   5.719  15.833  0.00  0.00    +0.000 C 
BRANCH  19  20
ATOM     20  N   UNL     1       6.133   5.311  14.416  0.00  0.00    +0.000 NA
ATOM     21  C   UNL     1       7.502   5.307  13.875  0.00  0.00    +0.000 C 
ATOM     22  C   UNL     1       7.525   4.903  12.401  0.00  0.00    +0.000 C 
ATOM     23  C   UNL     1       6.869   3.545  12.189  0.00  0.00    +0.000 C 
ATOM     24  C   UNL     1       5.473   3.540  12.797  0.00  0.00    +0.000 C 
ATOM     25  C   UNL     1       5.503   3.988  14.261  0.00  0.00    +0.000 C 
ENDBRANCH  19  20
ENDBRANCH  18  19
ENDBRANCH  17  18
ENDBRANCH  16  17
ENDBRANCH   3  16
TORSDOF 7
ENDMDL
MODEL 2
REMARK VINA RESULT:      -7.8      4.794      7.644
REMARK  Name = 
REMARK  9 active torsions:
REMARK  status: ('A' for Active; 'I' for Inactive)
REMARK    1  A    between atoms: C_1  and  C_2
REMARK    2  A    between atoms: C_2  and  C_3
REMARK    3  A    between atoms: C_2  and  C_4
REMARK    4  A    between atoms: C_6  and  O_7
REMARK    5  A    between atoms: O_7  and  C_8
REMARK    6  A    between atoms: C_8  and  C_9
REMARK    7  A    between atoms: C_9  and  C_10
REMARK    8  A    between atoms: C_10  and  N_11
REMARK    9  A    between atoms: C_18  and  C_19
REMARK                            x       y       z     vdW  Elec       q    Type
REMARK                         _______ _______ _______ _____ _____    ______ ____
ROOT
ATOM      1  C   UNL     1       5.531   5.010  18.032  0.00  0.00    +0.000 A 
ATOM      2  C   UNL     1       6.389   5.935  18.591  0.00  0.00    +0.000 A 
ATOM      3  C   UNL     1       7.334   6.462  17.746  0.00  0.00    +0.000 A 
ATOM      4  N   UNL     1       7.472   6.108  16.462  0.00  0.00    +0.000 NA
ATOM      5  C   UNL     1       6.604   5.198  15.997  0.00  0.00    +0.000 A 
ATOM      6  N   UNL     1       5.626   4.636  16.737  0.00  0.00    +0.000 NA
ENDROOT
BRANCH   5   7
ATOM      7  C   UNL     1       6.729   4.807  14.580  0.00  0.00    +0.000 A 
ATOM      8  C   UNL     1       7.659   5.437  13.727  0.00  0.00    +0.000 A 
ATOM      9  C   UNL     1       7.773   5.087  12.379  0.00  0.00    +0.000 A 
ATOM     10  C   UNL     1       6.959   4.093  11.849  0.00  0.00    +0.000 A 
ATOM     11  C   UNL     1       6.038   3.445  12.667  0.00  0.00    +0.000 A 
ATOM     12  C   UNL     1       5.926   3.797  14.016  0.00  0.00    +0.000 A 
ENDBRANCH   5   7
BRANCH   1  14
ATOM     13  C   UNL     1       3.516   5.416  19.479  0.00  0.00    +0.000 C 
ATOM     14  C   UNL     1       4.446   4.365  18.872  0.00  0.00    +0.000 C 
ATOM     15  C   UNL     1       3.653   3.358  18.037  0.00  0.00    +0.000 C 
ENDBRANCH   1  14
BRANCH   3  16
ATOM     16  O   UNL     1       8.218   7.377  18.286  0.00  0.00    +0.000 OA
BRANCH  16  17
ATOM     17  C   UNL     1       7.966   8.709  17.817  0.00  0.00    +0.000 C 
BRANCH  17  18
ATOM     18  C   UNL     1       8.808   9.670  18.650  0.00  0.00    +0.000 C 
BRANCH  18  19
ATOM     19  C   UNL     1       8.960  11.046  17.990  0.00  0.00    +0.000 C 
BRANCH  19  20
ATOM     20  N   UNL     1       9.826  11.988  18.721  0.00  0.00    +0.000 NA
ATOM     21  C   UNL     1      11.090  11.364  19.146  0.00  0.00    +0.000 C 
ATOM     22  C   UNL     1      11.971  12.344  19.921  0.00  0.00    +0.000 C 
ATOM     23  C   UNL     1      12.250  13.600  19.107  0.00  0.00    +0.000 C 
ATOM     24  C   UNL     1      10.941  14.212  18.626  0.00  0.00    +0.000 C 
ATOM     25  C   UNL     1      10.083  13.179  17.891  0.00  0.00    +0.000 C 
ENDBRANCH  19  20
ENDBRANCH  18  19
ENDBRANCH  17  18
ENDBRANCH  16  17
ENDBRANCH   3  16
TORSDOF 7
ENDMDL
MODEL 3
REMARK VINA RESULT:      -7.8      4.622      7.587
REMARK  Name = 
REMARK  9 active torsions:
REMARK  status: ('A' for Active; 'I' for Inactive)
REMARK    1  A    between atoms: C_1  and  C_2
REMARK    2  A    between atoms: C_2  and  C_3
REMARK    3  A    between atoms: C_2  and  C_4
REMARK    4  A    between atoms: C_6  and  O_7
REMARK    5  A    between atoms: O_7  and  C_8
REMARK    6  A    between atoms: C_8  and  C_9
REMARK    7  A    between atoms: C_9  and  C_10
REMARK    8  A    between atoms: C_10  and  N_11
REMARK    9  A    between atoms: C_18  and  C_19
REMARK                            x       y       z     vdW  Elec       q    Type
REMARK                         _______ _______ _______ _____ _____    ______ ____
ROOT
ATOM      1  C   UNL     1       5.159   4.919  17.808  0.00  0.00    +0.000 A 
ATOM      2  C   UNL     1       6.000   5.813  18.439  0.00  0.00    +0.000 A 
ATOM      3  C   UNL     1       7.014   6.327  17.670  0.00  0.00    +0.000 A 
ATOM      4  N   UNL     1       7.230   5.988  16.393  0.00  0.00    +0.000 NA
ATOM      5  C   UNL     1       6.373   5.108  15.855  0.00  0.00    +0.000 A 
ATOM      6  N   UNL     1       5.334   4.561  16.517  0.00  0.00    +0.000 NA
ENDROOT
BRANCH   5   7
ATOM      7  C   UNL     1       6.586   4.735  14.443  0.00  0.00    +0.000 A 
ATOM      8  C   UNL     1       7.570   5.371  13.658  0.00  0.00    +0.000 A 
ATOM      9  C   UNL     1       7.768   5.038  12.316  0.00  0.00    +0.000 A 
ATOM     10  C   UNL     1       6.984   4.055  11.722  0.00  0.00    +0.000 A 
ATOM     11  C   UNL     1       6.010   3.402  12.473  0.00  0.00    +0.000 A 
ATOM     12  C   UNL     1       5.816   3.737  13.816  0.00  0.00    +0.000 A 
ENDBRANCH   5   7
BRANCH   1  14
ATOM     13  C   UNL     1       2.878   3.880  17.609  0.00  0.00    +0.000 C 
ATOM     14  C   UNL     1       4.003   4.290  18.561  0.00  0.00    +0.000 C 
ATOM     15  C   UNL     1       4.488   3.088  19.375  0.00  0.00    +0.000 C 
ENDBRANCH   1  14
BRANCH   3  16
ATOM     16  O   UNL     1       7.882   7.209  18.285  0.00  0.00    +0.000 OA
BRANCH  16  17
ATOM     17  C   UNL     1       7.923   8.477  17.614  0.00  0.00    +0.000 C 
BRANCH  17  18
ATOM     18  C   UNL     1       8.713   9.447  18.485  0.00  0.00    +0.000 C 
BRANCH  18  19
ATOM     19  C   UNL     1       8.675  10.884  17.952  0.00  0.00    +0.000 C 
BRANCH  19  20
ATOM     20  N   UNL     1       9.812  11.726  18.369  0.00  0.00    +0.000 NA
ATOM     21  C   UNL     1       9.445  13.150  18.453  0.00  0.00    +0.000 C 
ATOM     22  C   UNL     1      10.635  14.016  18.865  0.00  0.00    +0.000 C 
ATOM     23  C   UNL     1      11.230  13.546  20.186  0.00  0.00    +0.000 C 
ATOM     24  C   UNL     1      11.559  12.060  20.110  0.00  0.00    +0.000 C 
ATOM     25  C   UNL     1      10.345  11.246  19.656  0.00  0.00    +0.000 C 
ENDBRANCH  19  20
ENDBRANCH  18  19
ENDBRANCH  17  18
ENDBRANCH  16  17
ENDBRANCH   3  16
TORSDOF 7
ENDMDL
MODEL 4
REMARK VINA RESULT:      -7.8      4.026      7.075
REMARK  Name = 
REMARK  9 active torsions:
REMARK  status: ('A' for Active; 'I' for Inactive)
REMARK    1  A    between atoms: C_1  and  C_2
REMARK    2  A    between atoms: C_2  and  C_3
REMARK    3  A    between atoms: C_2  and  C_4
REMARK    4  A    between atoms: C_6  and  O_7
REMARK    5  A    between atoms: O_7  and  C_8
REMARK    6  A    between atoms: C_8  and  C_9
REMARK    7  A    between atoms: C_9  and  C_10
REMARK    8  A    between atoms: C_10  and  N_11
REMARK    9  A    between atoms: C_18  and  C_19
REMARK                            x       y       z     vdW  Elec       q    Type
REMARK                         _______ _______ _______ _____ _____    ______ ____
ROOT
ATOM      1  C   UNL     1       6.213   4.294  14.423  0.00  0.00    +0.000 A 
ATOM      2  C   UNL     1       7.116   5.211  14.921  0.00  0.00    +0.000 A 
ATOM      3  C   UNL     1       6.865   5.671  16.190  0.00  0.00    +0.000 A 
ATOM      4  N   UNL     1       5.807   5.303  16.924  0.00  0.00    +0.000 NA
ATOM      5  C   UNL     1       4.973   4.413  16.366  0.00  0.00    +0.000 A 
ATOM      6  N   UNL     1       5.141   3.886  15.136  0.00  0.00    +0.000 NA
ENDROOT
BRANCH   5   7
ATOM      7  C   UNL     1       3.810   3.984  17.166  0.00  0.00    +0.000 A 
ATOM      8  C   UNL     1       3.557   2.619  17.415  0.00  0.00    +0.000 A 
ATOM      9  C   UNL     1       2.449   2.201  18.156  0.00  0.00    +0.000 A 
ATOM     10  C   UNL     1       1.563   3.141  18.670  0.00  0.00    +0.000 A 
ATOM     11  C   UNL     1       1.790   4.496  18.450  0.00  0.00    +0.000 A 
ATOM     12  C   UNL     1       2.901   4.912  17.709  0.00  0.00    +0.000 A 
ENDBRANCH   5   7
BRANCH   1  14
ATOM     13  C   UNL     1       5.048   3.556  12.322  0.00  0.00    +0.000 C 
ATOM     14  C   UNL     1       6.393   3.718  13.032  0.00  0.00    +0.000 C 
ATOM     15  C   UNL     1       7.337   4.598  12.209  0.00  0.00    +0.000 C 
ENDBRANCH   1  14
BRANCH   3  16
ATOM     16  O   UNL     1       7.744   6.605  16.704  0.00  0.00    +0.000 OA
BRANCH  16  17
ATOM     17  C   UNL     1       7.078   7.572  17.530  0.00  0.00    +0.000 C 
BRANCH  17  18
ATOM     18  C   UNL     1       7.928   8.837  17.556  0.00  0.00    +0.000 C 
BRANCH  18  19
ATOM     19  C   UNL     1       8.786   8.946  18.822  0.00  0.00    +0.000 C 
BRANCH  19  20
ATOM     20  N   UNL     1       9.486  10.233  18.983  0.00  0.00    +0.000 NA
ATOM     21  C   UNL     1       9.037  11.235  18.001  0.00  0.00    +0.000 C 
ATOM     22  C   UNL     1       9.784  12.559  18.164  0.00  0.00    +0.000 C 
ATOM     23  C   UNL     1       9.640  13.105  19.578  0.00  0.00    +0.000 C 
ATOM     24  C   UNL     1      10.056  12.046  20.591  0.00  0.00    +0.000 C 
ATOM     25  C   UNL     1       9.307  10.731  20.359  0.00  0.00    +0.000 C 
ENDBRANCH  19  20
ENDBRANCH  18  19
ENDBRANCH  17  18
ENDBRANCH  16  17
ENDBRANCH   3  16
TORSDOF 7
ENDMDL
MODEL 5
REMARK VINA RESULT:      -7.7      4.148      7.211
REMARK  Name = 
REMARK  9 active torsions:
REMARK  status: ('A' for Active; 'I' for Inactive)
REMARK    1  A    between atoms: C_1  and  C_2
REMARK    2  A    between atoms: C_2  and  C_3
REMARK    3  A    between atoms: C_2  and  C_4
REMARK    4  A    between atoms: C_6  and  O_7
REMARK    5  A    between atoms: O_7  and  C_8
REMARK    6  A    between atoms: C_8  and  C_9
REMARK    7  A    between atoms: C_9  and  C_10
REMARK    8  A    between atoms: C_10  and  N_11
REMARK    9  A    between atoms: C_18  and  C_19
REMARK                            x       y       z     vdW  Elec       q    Type
REMARK                         _______ _______ _______ _____ _____    ______ ____
ROOT
ATOM      1  C   UNL     1       4.356   4.533  17.473  0.00  0.00    +0.000 A 
ATOM      2  C   UNL     1       4.933   5.594  18.141  0.00  0.00    +0.000 A 
ATOM      3  C   UNL     1       5.908   6.275  17.454  0.00  0.00    +0.000 A 
ATOM      4  N   UNL     1       6.326   5.947  16.225  0.00  0.00    +0.000 NA
ATOM      5  C   UNL     1       5.720   4.899  15.648  0.00  0.00    +0.000 A 
ATOM      6  N   UNL     1       4.739   4.177  16.227  0.00  0.00    +0.000 NA
ENDROOT
BRANCH   5   7
ATOM      7  C   UNL     1       6.156   4.533  14.287  0.00  0.00    +0.000 A 
ATOM      8  C   UNL     1       5.443   3.589  13.519  0.00  0.00    +0.000 A 
ATOM      9  C   UNL     1       5.858   3.222  12.236  0.00  0.00    +0.000 A 
ATOM     10  C   UNL     1       7.000   3.792  11.687  0.00  0.00    +0.000 A 
ATOM     11  C   UNL     1       7.722   4.733  12.415  0.00  0.00    +0.000 A 
ATOM     12  C   UNL     1       7.303   5.100  13.699  0.00  0.00    +0.000 A 
ENDBRANCH   5   7
BRANCH   1  14
ATOM     13  C   UNL     1       1.881   4.131  17.646  0.00  0.00    +0.000 C 
ATOM     14  C   UNL     1       3.268   3.711  18.136  0.00  0.00    +0.000 C 
ATOM     15  C   UNL     1       3.500   2.219  17.886  0.00  0.00    +0.000 C 
ENDBRANCH   1  14
BRANCH   3  16
ATOM     16  O   UNL     1       6.515   7.331  18.108  0.00  0.00    +0.000 OA
BRANCH  16  17
ATOM     17  C   UNL     1       7.715   7.755  17.445  0.00  0.00    +0.000 C 
BRANCH  17  18
ATOM     18  C   UNL     1       8.433   8.744  18.356  0.00  0.00    +0.000 C 
BRANCH  18  19
ATOM     19  C   UNL     1       8.388  10.180  17.820  0.00  0.00    +0.000 C 
BRANCH  19  20
ATOM     20  N   UNL     1       9.224  11.141  18.561  0.00  0.00    +0.000 NA
ATOM     21  C   UNL     1       9.457  10.716  19.951  0.00  0.00    +0.000 C 
ATOM     22  C   UNL     1      10.308  11.730  20.717  0.00  0.00    +0.000 C 
ATOM     23  C   UNL     1      11.635  11.982  20.012  0.00  0.00    +0.000 C 
ATOM     24  C   UNL     1      11.389  12.370  18.560  0.00  0.00    +0.000 C 
ATOM     25  C   UNL     1      10.502  11.342  17.853  0.00  0.00    +0.000 C 
ENDBRANCH  19  20
ENDBRANCH  18  19
ENDBRANCH  17  18
ENDBRANCH  16  17
ENDBRANCH   3  16
TORSDOF 7
ENDMDL
MODEL 6
REMARK VINA RESULT:      -7.6      2.568      7.286
REMARK  Name = 
REMARK  9 active torsions:
REMARK  status: ('A' for Active; 'I' for Inactive)
REMARK    1  A    between atoms: C_1  and  C_2
REMARK    2  A    between atoms: C_2  and  C_3
REMARK    3  A    between atoms: C_2  and  C_4
REMARK    4  A    between atoms: C_6  and  O_7
REMARK    5  A    between atoms: O_7  and  C_8
REMARK    6  A    between atoms: C_8  and  C_9
REMARK    7  A    between atoms: C_9  and  C_10
REMARK    8  A    between atoms: C_10  and  N_11
REMARK    9  A    between atoms: C_18  and  C_19
REMARK                            x       y       z     vdW  Elec       q    Type
REMARK                         _______ _______ _______ _____ _____    ______ ____
ROOT
ATOM      1  C   UNL     1       1.904   4.398  19.762  0.00  0.00    +0.000 A 
ATOM      2  C   UNL     1       1.570   5.676  20.162  0.00  0.00    +0.000 A 
ATOM      3  C   UNL     1       2.362   6.684  19.668  0.00  0.00    +0.000 A 
ATOM      4  N   UNL     1       3.419   6.483  18.871  0.00  0.00    +0.000 NA
ATOM      5  C   UNL     1       3.681   5.212  18.535  0.00  0.00    +0.000 A 
ATOM      6  N   UNL     1       2.954   4.154  18.948  0.00  0.00    +0.000 NA
ENDROOT
BRANCH   5   7
ATOM      7  C   UNL     1       4.832   4.973  17.644  0.00  0.00    +0.000 A 
ATOM      8  C   UNL     1       4.674   4.323  16.402  0.00  0.00    +0.000 A 
ATOM      9  C   UNL     1       5.761   4.076  15.559  0.00  0.00    +0.000 A 
ATOM     10  C   UNL     1       7.038   4.475  15.938  0.00  0.00    +0.000 A 
ATOM     11  C   UNL     1       7.226   5.127  17.153  0.00  0.00    +0.000 A 
ATOM     12  C   UNL     1       6.136   5.374  17.994  0.00  0.00    +0.000 A 
ENDBRANCH   5   7
BRANCH   1  14
ATOM     13  C   UNL     1       1.038   2.111  19.182  0.00  0.00    +0.000 C 
ATOM     14  C   UNL     1       1.098   3.208  20.246  0.00  0.00    +0.000 C 
ATOM     15  C   UNL     1       1.680   2.665  21.552  0.00  0.00    +0.000 C 
ENDBRANCH   1  14
BRANCH   3  16
ATOM     16  O   UNL     1       2.060   7.971  20.069  0.00  0.00    +0.000 OA
BRANCH  16  17
ATOM     17  C   UNL     1       1.175   7.989  21.199  0.00  0.00    +0.000 C 
BRANCH  17  18
ATOM     18  C   UNL     1       0.769   9.435  21.459  0.00  0.00    +0.000 C 
BRANCH  18  19
ATOM     19  C   UNL     1       0.774  10.288  20.184  0.00  0.00    +0.000 C 
BRANCH  19  20
ATOM     20  N   UNL     1      -0.526  10.371  19.494  0.00  0.00    +0.000 NA
ATOM     21  C   UNL     1      -1.154  11.693  19.652  0.00  0.00    +0.000 C 
ATOM     22  C   UNL     1      -2.510  11.762  18.949  0.00  0.00    +0.000 C 
ATOM     23  C   UNL     1      -2.386  11.410  17.473  0.00  0.00    +0.000 C 
ATOM     24  C   UNL     1      -1.689  10.065  17.314  0.00  0.00    +0.000 C 
ATOM     25  C   UNL     1      -0.357  10.039  18.067  0.00  0.00    +0.000 C 
ENDBRANCH  19  20
ENDBRANCH  18  19
ENDBRANCH  17  18
ENDBRANCH  16  17
ENDBRANCH   3  16
TORSDOF 7
ENDMDL
MODEL 7
REMARK VINA RESULT:      -7.6      4.606      7.621
REMARK  Name = 
REMARK  9 active torsions:
REMARK  status: ('A' for Active; 'I' for Inactive)
REMARK    1  A    between atoms: C_1  and  C_2
REMARK    2  A    between atoms: C_2  and  C_3
REMARK    3  A    between atoms: C_2  and  C_4
REMARK    4  A    between atoms: C_6  and  O_7
REMARK    5  A    between atoms: O_7  and  C_8
REMARK    6  A    between atoms: C_8  and  C_9
REMARK    7  A    between atoms: C_9  and  C_10
REMARK    8  A    between atoms: C_10  and  N_11
REMARK    9  A    between atoms: C_18  and  C_19
REMARK                            x       y       z     vdW  Elec       q    Type
REMARK                         _______ _______ _______ _____ _____    ______ ____
ROOT
ATOM      1  C   UNL     1       4.974   5.028  17.526  0.00  0.00    +0.000 A 
ATOM      2  C   UNL     1       5.876   5.831  18.193  0.00  0.00    +0.000 A 
ATOM      3  C   UNL     1       6.971   6.232  17.468  0.00  0.00    +0.000 A 
ATOM      4  N   UNL     1       7.205   5.867  16.202  0.00  0.00    +0.000 NA
ATOM      5  C   UNL     1       6.284   5.079  15.627  0.00  0.00    +0.000 A 
ATOM      6  N   UNL     1       5.166   4.648  16.244  0.00  0.00    +0.000 NA
ENDROOT
BRANCH   5   7
ATOM      7  C   UNL     1       6.518   4.679  14.226  0.00  0.00    +0.000 A 
ATOM      8  C   UNL     1       5.755   3.659  13.620  0.00  0.00    +0.000 A 
ATOM      9  C   UNL     1       5.980   3.261  12.300  0.00  0.00    +0.000 A 
ATOM     10  C   UNL     1       6.976   3.875  11.549  0.00  0.00    +0.000 A 
ATOM     11  C   UNL     1       7.739   4.892  12.116  0.00  0.00    +0.000 A 
ATOM     12  C   UNL     1       7.511   5.290  13.437  0.00  0.00    +0.000 A 
ENDBRANCH   5   7
BRANCH   1  14
ATOM     13  C   UNL     1       2.879   3.657  17.300  0.00  0.00    +0.000 C 
ATOM     14  C   UNL     1       3.727   4.527  18.229  0.00  0.00    +0.000 C 
ATOM     15  C   UNL     1       4.103   3.757  19.497  0.00  0.00    +0.000 C 
ENDBRANCH   1  14
BRANCH   3  16
ATOM     16  O   UNL     1       7.900   7.022  18.120  0.00  0.00    +0.000 OA
BRANCH  16  17
ATOM     17  C   UNL     1       7.848   8.387  17.678  0.00  0.00    +0.000 C 
BRANCH  17  18
ATOM     18  C   UNL     1       8.642   9.233  18.667  0.00  0.00    +0.000 C 
BRANCH  18  19
ATOM     19  C   UNL     1       9.085  10.575  18.073  0.00  0.00    +0.000 C 
BRANCH  19  20
ATOM     20  N   UNL     1      10.142  11.267  18.833  0.00  0.00    +0.000 NA
ATOM     21  C   UNL     1      10.894  12.218  17.997  0.00  0.00    +0.000 C 
ATOM     22  C   UNL     1      12.000  12.914  18.790  0.00  0.00    +0.000 C 
ATOM     23  C   UNL     1      11.440  13.620  20.018  0.00  0.00    +0.000 C 
ATOM     24  C   UNL     1      10.619  12.645  20.851  0.00  0.00    +0.000 C 
ATOM     25  C   UNL     1       9.553  11.948  20.001  0.00  0.00    +0.000 C 
ENDBRANCH  19  20
ENDBRANCH  18  19
ENDBRANCH  17  18
ENDBRANCH  16  17
ENDBRANCH   3  16
TORSDOF 7
ENDMDL
MODEL 8
REMARK VINA RESULT:      -7.6      4.228      6.877
REMARK  Name = 
REMARK  9 active torsions:
REMARK  status: ('A' for Active; 'I' for Inactive)
REMARK    1  A    between atoms: C_1  and  C_2
REMARK    2  A    between atoms: C_2  and  C_3
REMARK    3  A    between atoms: C_2  and  C_4
REMARK    4  A    between atoms: C_6  and  O_7
REMARK    5  A    between atoms: O_7  and  C_8
REMARK    6  A    between atoms: C_8  and  C_9
REMARK    7  A    between atoms: C_9  and  C_10
REMARK    8  A    between atoms: C_10  and  N_11
REMARK    9  A    between atoms: C_18  and  C_19
REMARK                            x       y       z     vdW  Elec       q    Type
REMARK                         _______ _______ _______ _____ _____    ______ ____
ROOT
ATOM      1  C   UNL     1       5.795   4.685  15.599  0.00  0.00    +0.000 A 
ATOM      2  C   UNL     1       6.364   5.847  16.080  0.00  0.00    +0.000 A 
ATOM      3  C   UNL     1       5.800   6.362  17.222  0.00  0.00    +0.000 A 
ATOM      4  N   UNL     1       4.746   5.822  17.845  0.00  0.00    +0.000 NA
ATOM      5  C   UNL     1       4.247   4.698  17.311  0.00  0.00    +0.000 A 
ATOM      6  N   UNL     1       4.739   4.101  16.207  0.00  0.00    +0.000 NA
ENDROOT
BRANCH   5   7
ATOM      7  C   UNL     1       3.094   4.079  17.994  0.00  0.00    +0.000 A 
ATOM      8  C   UNL     1       2.347   4.789  18.957  0.00  0.00    +0.000 A 
ATOM      9  C   UNL     1       1.265   4.207  19.622  0.00  0.00    +0.000 A 
ATOM     10  C   UNL     1       0.901   2.895  19.339  0.00  0.00    +0.000 A 
ATOM     11  C   UNL     1       1.613   2.171  18.387  0.00  0.00    +0.000 A 
ATOM     12  C   UNL     1       2.694   2.757  17.722  0.00  0.00    +0.000 A 
ENDBRANCH   5   7
BRANCH   1  14
ATOM     13  C   UNL     1       5.211   3.684  13.369  0.00  0.00    +0.000 C 
ATOM     14  C   UNL     1       6.338   4.028  14.346  0.00  0.00    +0.000 C 
ATOM     15  C   UNL     1       7.377   4.930  13.677  0.00  0.00    +0.000 C 
ENDBRANCH   1  14
BRANCH   3  16
ATOM     16  O   UNL     1       6.340   7.535  17.713  0.00  0.00    +0.000 OA
BRANCH  16  17
ATOM     17  C   UNL     1       7.716   7.693  17.336  0.00  0.00    +0.000 C 
BRANCH  17  18
ATOM     18  C   UNL     1       8.412   8.509  18.420  0.00  0.00    +0.000 C 
BRANCH  18  19
ATOM     19  C   UNL     1       8.526   9.995  18.060  0.00  0.00    +0.000 C 
BRANCH  19  20
ATOM     20  N   UNL     1       9.711  10.674  18.613  0.00  0.00    +0.000 NA
ATOM     21  C   UNL     1      10.118  11.830  17.796  0.00  0.00    +0.000 C 
ATOM     22  C   UNL     1      11.360  12.515  18.367  0.00  0.00    +0.000 C 
ATOM     23  C   UNL     1      11.141  12.942  19.813  0.00  0.00    +0.000 C 
ATOM     24  C   UNL     1      10.670  11.753  20.641  0.00  0.00    +0.000 C 
ATOM     25  C   UNL     1       9.450  11.083  20.005  0.00  0.00    +0.000 C 
ENDBRANCH  19  20
ENDBRANCH  18  19
ENDBRANCH  17  18
ENDBRANCH  16  17
ENDBRANCH   3  16
TORSDOF 7
ENDMDL
MODEL 9
REMARK VINA RESULT:      -7.6      4.607      7.000
REMARK  Name = 
REMARK  9 active torsions:
REMARK  status: ('A' for Active; 'I' for Inactive)
REMARK    1  A    between atoms: C_1  and  C_2
REMARK    2  A    between atoms: C_2  and  C_3
REMARK    3  A    between atoms: C_2  and  C_4
REMARK    4  A    between atoms: C_6  and  O_7
REMARK    5  A    between atoms: O_7  and  C_8
REMARK    6  A    between atoms: C_8  and  C_9
REMARK    7  A    between atoms: C_9  and  C_10
REMARK    8  A    between atoms: C_10  and  N_11
REMARK    9  A    between atoms: C_18  and  C_19
REMARK                            x       y       z     vdW  Elec       q    Type
REMARK                         _______ _______ _______ _____ _____    ______ ____
ROOT
ATOM      1  C   UNL     1       6.406   4.798  16.393  0.00  0.00    +0.000 A 
ATOM      2  C   UNL     1       7.345   5.709  16.834  0.00  0.00    +0.000 A 
ATOM      3  C   UNL     1       7.185   6.158  18.122  0.00  0.00    +0.000 A 
ATOM      4  N   UNL     1       6.181   5.785  18.925  0.00  0.00    +0.000 NA
ATOM      5  C   UNL     1       5.307   4.902  18.420  0.00  0.00    +0.000 A 
ATOM      6  N   UNL     1       5.386   4.386  17.177  0.00  0.00    +0.000 NA
ENDROOT
BRANCH   5   7
ATOM      7  C   UNL     1       4.203   4.468  19.297  0.00  0.00    +0.000 A 
ATOM      8  C   UNL     1       4.032   3.111  19.641  0.00  0.00    +0.000 A 
ATOM      9  C   UNL     1       2.978   2.688  20.455  0.00  0.00    +0.000 A 
ATOM     10  C   UNL     1       2.068   3.614  20.950  0.00  0.00    +0.000 A 
ATOM     11  C   UNL     1       2.215   4.962  20.637  0.00  0.00    +0.000 A 
ATOM     12  C   UNL     1       3.270   5.383  19.822  0.00  0.00    +0.000 A 
ENDBRANCH   5   7
BRANCH   1  14
ATOM     13  C   UNL     1       5.099   4.150  14.346  0.00  0.00    +0.000 C 
ATOM     14  C   UNL     1       6.485   4.234  14.988  0.00  0.00    +0.000 C 
ATOM     15  C   UNL     1       7.430   5.076  14.128  0.00  0.00    +0.000 C 
ENDBRANCH   1  14
BRANCH   3  16
ATOM     16  O   UNL     1       8.101   7.086  18.580  0.00  0.00    +0.000 OA
BRANCH  16  17
ATOM     17  C   UNL     1       8.017   8.324  17.860  0.00  0.00    +0.000 C 
BRANCH  17  18
ATOM     18  C   UNL     1       8.788   9.380  18.644  0.00  0.00    +0.000 C 
BRANCH  18  19
ATOM     19  C   UNL     1       8.886  10.715  17.897  0.00  0.00    +0.000 C 
BRANCH  19  20
ATOM     20  N   UNL     1      10.152  11.444  18.100  0.00  0.00    +0.000 NA
ATOM     21  C   UNL     1      10.016  12.882  17.813  0.00  0.00    +0.000 C 
ATOM     22  C   UNL     1      11.338  13.624  18.007  0.00  0.00    +0.000 C 
ATOM     23  C   UNL     1      11.888  13.416  19.412  0.00  0.00    +0.000 C 
ATOM     24  C   UNL     1      11.977  11.927  19.722  0.00  0.00    +0.000 C 
ATOM     25  C   UNL     1      10.638  11.228  19.475  0.00  0.00    +0.000 C 
ENDBRANCH  19  20
ENDBRANCH  18  19
ENDBRANCH  17  18
ENDBRANCH  16  17
ENDBRANCH   3  16
TORSDOF 7
ENDMDL
