MODEL 1
REMARK VINA RESULT:      -8.5      0.000      0.000
REMARK  Name = 
REMARK  7 active torsions:
REMARK  status: ('A' for Active; 'I' for Inactive)
REMARK    1  A    between atoms: C_1  and  C_2
REMARK    2  A    between atoms: C_2  and  C_3
REMARK    3  A    between atoms: C_3  and  N_4
REMARK    4  A    between atoms: C_5  and  C_7
REMARK    5  A    between atoms: C_8  and  N_9
REMARK    6  A    between atoms: C_10  and  C_12
REMARK    7  A    between atoms: C_16  and  C_17
REMARK                            x       y       z     vdW  Elec       q    Type
REMARK                         _______ _______ _______ _____ _____    ______ ____
ROOT
ATOM      1  C   UNL     1       3.213   5.312  17.710  0.00  0.00    +0.000 A 
ATOM      2  C   UNL     1       3.338   6.654  18.044  0.00  0.00    +0.000 A 
ATOM      3  N   UNL     1       4.493   7.183  17.553  0.00  0.00    +0.000 NA
ATOM      4  C   UNL     1       5.119   6.196  16.965  0.00  0.00    +0.000 A 
ATOM      5  C   UNL     1       6.375   6.164  16.295  0.00  0.00    +0.000 A 
ATOM      6  C   UNL     1       6.810   5.016  15.742  0.00  0.00    +0.000 A 
ATOM      7  C   UNL     1       6.021   3.799  15.814  0.00  0.00    +0.000 A 
ATOM      8  C   UNL     1       4.837   3.824  16.449  0.00  0.00    +0.000 A 
ATOM      9  N   UNL     1       4.389   5.016  17.032  0.00  0.00    +0.000 N 
ENDROOT
BRANCH   1  11
ATOM     10  N   UNL     1       2.389   3.483  18.971  0.00  0.00    +0.000 N 
ATOM     11  C   UNL     1       2.147   4.376  17.943  0.00  0.00    +0.000 C 
ATOM     12  O   UNL     1       1.089   4.383  17.324  0.00  0.00    +0.000 OA
ATOM     13  H   UNL     1       3.099   3.770  19.636  0.00  0.00    +0.000 HD
BRANCH  10  14
ATOM     14  C   UNL     1       1.332   2.620  19.467  0.00  0.00    +0.000 C 
BRANCH  14  16
ATOM     15  C   UNL     1       2.205   3.418  21.721  0.00  0.00    +0.000 C 
ATOM     16  C   UNL     1       1.018   2.878  20.937  0.00  0.00    +0.000 C 
ENDBRANCH  14  16
ENDBRANCH  10  14
ENDBRANCH   1  11
BRANCH   2  17
ATOM     17  N   UNL     1       2.457   7.396  18.811  0.00  0.00    +0.000 N 
ATOM     18  C   UNL     1       1.924   8.602  18.387  0.00  0.00    +0.000 C 
ATOM     19  O   UNL     1       2.039   9.094  17.267  0.00  0.00    +0.000 OA
ATOM     20  H   UNL     1       2.279   7.054  19.742  0.00  0.00    +0.000 HD
BRANCH  18  21
ATOM     21  C   UNL     1       1.100   9.363  19.376  0.00  0.00    +0.000 A 
ATOM     22  C   UNL     1       0.292  10.401  18.883  0.00  0.00    +0.000 A 
ATOM     23  C   UNL     1      -0.549  11.115  19.734  0.00  0.00    +0.000 A 
ATOM     24  C   UNL     1      -0.608  10.784  21.087  0.00  0.00    +0.000 A 
ATOM     25  C   UNL     1       0.174   9.740  21.596  0.00  0.00    +0.000 A 
ATOM     26  C   UNL     1       0.055   9.328  23.035  0.00  0.00    +0.000 C 
ATOM     27  C   UNL     1       1.041   9.040  20.738  0.00  0.00    +0.000 A 
ENDBRANCH  18  21
ENDBRANCH   2  17
TORSDOF 5
ENDMDL
MODEL 2
REMARK VINA RESULT:      -8.3      0.480      1.336
REMARK  Name = 
REMARK  7 active torsions:
REMARK  status: ('A' for Active; 'I' for Inactive)
REMARK    1  A    between atoms: C_1  and  C_2
REMARK    2  A    between atoms: C_2  and  C_3
REMARK    3  A    between atoms: C_3  and  N_4
REMARK    4  A    between atoms: C_5  and  C_7
REMARK    5  A    between atoms: C_8  and  N_9
REMARK    6  A    between atoms: C_10  and  C_12
REMARK    7  A    between atoms: C_16  and  C_17
REMARK                            x       y       z     vdW  Elec       q    Type
REMARK                         _______ _______ _______ _____ _____    ______ ____
ROOT
ATOM      1  C   UNL     1       3.360   5.114  17.618  0.00  0.00    +0.000 A 
ATOM      2  C   UNL     1       3.447   6.446  18.000  0.00  0.00    +0.000 A 
ATOM      3  N   UNL     1       4.549   7.045  17.469  0.00  0.00    +0.000 NA
ATOM      4  C   UNL     1       5.182   6.110  16.808  0.00  0.00    +0.000 A 
ATOM      5  C   UNL     1       6.399   6.160  16.070  0.00  0.00    +0.000 A 
ATOM      6  C   UNL     1       6.850   5.055  15.447  0.00  0.00    +0.000 A 
ATOM      7  C   UNL     1       6.118   3.802  15.511  0.00  0.00    +0.000 A 
ATOM      8  C   UNL     1       4.971   3.750  16.211  0.00  0.00    +0.000 A 
ATOM      9  N   UNL     1       4.507   4.897  16.865  0.00  0.00    +0.000 N 
ENDROOT
BRANCH   1  11
ATOM     10  N   UNL     1       2.677   3.215  18.860  0.00  0.00    +0.000 N 
ATOM     11  C   UNL     1       2.349   4.124  17.870  0.00  0.00    +0.000 C 
ATOM     12  O   UNL     1       1.265   4.099  17.298  0.00  0.00    +0.000 OA
ATOM     13  H   UNL     1       3.403   3.517  19.502  0.00  0.00    +0.000 HD
BRANCH  10  14
ATOM     14  C   UNL     1       1.683   2.291  19.376  0.00  0.00    +0.000 C 
BRANCH  14  16
ATOM     15  C   UNL     1       2.057   3.087  21.765  0.00  0.00    +0.000 C 
ATOM     16  C   UNL     1       1.045   2.792  20.668  0.00  0.00    +0.000 C 
ENDBRANCH  14  16
ENDBRANCH  10  14
ENDBRANCH   1  11
BRANCH   2  17
ATOM     17  N   UNL     1       2.580   7.119  18.844  0.00  0.00    +0.000 N 
ATOM     18  C   UNL     1       2.025   8.347  18.527  0.00  0.00    +0.000 C 
ATOM     19  O   UNL     1       2.105   8.924  17.445  0.00  0.00    +0.000 OA
ATOM     20  H   UNL     1       2.430   6.705  19.751  0.00  0.00    +0.000 HD
BRANCH  18  21
ATOM     21  C   UNL     1       1.221   9.022  19.592  0.00  0.00    +0.000 A 
ATOM     22  C   UNL     1       1.319   8.512  20.897  0.00  0.00    +0.000 A 
ATOM     23  C   UNL     1       0.647   9.124  21.953  0.00  0.00    +0.000 A 
ATOM     24  C   UNL     1      -0.115  10.267  21.720  0.00  0.00    +0.000 A 
ATOM     25  C   UNL     1      -0.211  10.804  20.430  0.00  0.00    +0.000 A 
ATOM     26  C   UNL     1      -0.964  12.080  20.188  0.00  0.00    +0.000 C 
ATOM     27  C   UNL     1       0.448  10.167  19.363  0.00  0.00    +0.000 A 
ENDBRANCH  18  21
ENDBRANCH   2  17
TORSDOF 5
ENDMDL
MODEL 3
REMARK VINA RESULT:      -8.2      4.172      7.941
REMARK  Name = 
REMARK  7 active torsions:
REMARK  status: ('A' for Active; 'I' for Inactive)
REMARK    1  A    between atoms: C_1  and  C_2
REMARK    2  A    between atoms: C_2  and  C_3
REMARK    3  A    between atoms: C_3  and  N_4
REMARK    4  A    between atoms: C_5  and  C_7
REMARK    5  A    between atoms: C_8  and  N_9
REMARK    6  A    between atoms: C_10  and  C_12
REMARK    7  A    between atoms: C_16  and  C_17
REMARK                            x       y       z     vdW  Elec       q    Type
REMARK                         _______ _______ _______ _____ _____    ______ ____
ROOT
ATOM      1  C   UNL     1       4.318   4.170  18.783  0.00  0.00    +0.000 A 
ATOM      2  C   UNL     1       4.116   3.401  17.644  0.00  0.00    +0.000 A 
ATOM      3  N   UNL     1       3.059   2.556  17.796  0.00  0.00    +0.000 NA
ATOM      4  C   UNL     1       2.626   2.738  19.018  0.00  0.00    +0.000 A 
ATOM      5  C   UNL     1       1.558   2.114  19.724  0.00  0.00    +0.000 A 
ATOM      6  C   UNL     1       1.285   2.486  20.989  0.00  0.00    +0.000 A 
ATOM      7  C   UNL     1       2.061   3.518  21.655  0.00  0.00    +0.000 A 
ATOM      8  C   UNL     1       3.072   4.105  20.993  0.00  0.00    +0.000 A 
ATOM      9  N   UNL     1       3.362   3.712  19.680  0.00  0.00    +0.000 N 
ENDROOT
BRANCH   1  11
ATOM     10  N   UNL     1       6.580   4.848  18.988  0.00  0.00    +0.000 N 
ATOM     11  C   UNL     1       5.251   5.229  19.054  0.00  0.00    +0.000 C 
ATOM     12  O   UNL     1       4.918   6.387  19.281  0.00  0.00    +0.000 OA
ATOM     13  H   UNL     1       6.761   4.001  18.460  0.00  0.00    +0.000 HD
BRANCH  10  14
ATOM     14  C   UNL     1       7.638   5.842  19.025  0.00  0.00    +0.000 C 
BRANCH  14  16
ATOM     15  C   UNL     1       8.061   8.122  17.974  0.00  0.00    +0.000 C 
ATOM     16  C   UNL     1       7.706   6.661  17.740  0.00  0.00    +0.000 C 
ENDBRANCH  14  16
ENDBRANCH  10  14
ENDBRANCH   1  11
BRANCH   2  17
ATOM     17  N   UNL     1       4.883   3.419  16.493  0.00  0.00    +0.000 N 
ATOM     18  C   UNL     1       5.065   4.559  15.727  0.00  0.00    +0.000 C 
ATOM     19  O   UNL     1       4.706   5.696  16.021  0.00  0.00    +0.000 OA
ATOM     20  H   UNL     1       5.246   2.530  16.186  0.00  0.00    +0.000 HD
BRANCH  18  21
ATOM     21  C   UNL     1       5.799   4.396  14.435  0.00  0.00    +0.000 A 
ATOM     22  C   UNL     1       6.966   5.157  14.254  0.00  0.00    +0.000 A 
ATOM     23  C   UNL     1       7.737   5.016  13.102  0.00  0.00    +0.000 A 
ATOM     24  C   UNL     1       7.361   4.095  12.126  0.00  0.00    +0.000 A 
ATOM     25  C   UNL     1       6.213   3.312  12.295  0.00  0.00    +0.000 A 
ATOM     26  C   UNL     1       5.849   2.263  11.285  0.00  0.00    +0.000 C 
ATOM     27  C   UNL     1       5.424   3.477  13.447  0.00  0.00    +0.000 A 
ENDBRANCH  18  21
ENDBRANCH   2  17
TORSDOF 5
ENDMDL
MODEL 4
REMARK VINA RESULT:      -8.1      3.816      8.088
REMARK  Name = 
REMARK  7 active torsions:
REMARK  status: ('A' for Active; 'I' for Inactive)
REMARK    1  A    between atoms: C_1  and  C_2
REMARK    2  A    between atoms: C_2  and  C_3
REMARK    3  A    between atoms: C_3  and  N_4
REMARK    4  A    between atoms: C_5  and  C_7
REMARK    5  A    between atoms: C_8  and  N_9
REMARK    6  A    between atoms: C_10  and  C_12
REMARK    7  A    between atoms: C_16  and  C_17
REMARK                            x       y       z     vdW  Elec       q    Type
REMARK                         _______ _______ _______ _____ _____    ______ ____
ROOT
ATOM      1  C   UNL     1       4.505   4.491  18.464  0.00  0.00    +0.000 A 
ATOM      2  C   UNL     1       4.076   4.005  17.237  0.00  0.00    +0.000 A 
ATOM      3  N   UNL     1       2.758   3.662  17.271  0.00  0.00    +0.000 NA
ATOM      4  C   UNL     1       2.364   3.872  18.501  0.00  0.00    +0.000 A 
ATOM      5  C   UNL     1       1.093   3.673  19.113  0.00  0.00    +0.000 A 
ATOM      6  C   UNL     1       0.920   3.985  20.411  0.00  0.00    +0.000 A 
ATOM      7  C   UNL     1       2.007   4.523  21.209  0.00  0.00    +0.000 A 
ATOM      8  C   UNL     1       3.209   4.708  20.636  0.00  0.00    +0.000 A 
ATOM      9  N   UNL     1       3.392   4.376  19.288  0.00  0.00    +0.000 N 
ENDROOT
BRANCH   1  11
ATOM     10  N   UNL     1       6.238   6.060  18.074  0.00  0.00    +0.000 N 
ATOM     11  C   UNL     1       5.771   5.033  18.876  0.00  0.00    +0.000 C 
ATOM     12  O   UNL     1       6.377   4.662  19.875  0.00  0.00    +0.000 OA
ATOM     13  H   UNL     1       5.533   6.526  17.512  0.00  0.00    +0.000 HD
BRANCH  10  14
ATOM     14  C   UNL     1       7.388   6.849  18.477  0.00  0.00    +0.000 C 
BRANCH  14  16
ATOM     15  C   UNL     1       8.308   9.191  18.088  0.00  0.00    +0.000 C 
ATOM     16  C   UNL     1       7.730   7.933  17.458  0.00  0.00    +0.000 C 
ENDBRANCH  14  16
ENDBRANCH  10  14
ENDBRANCH   1  11
BRANCH   2  17
ATOM     17  N   UNL     1       4.852   3.829  16.105  0.00  0.00    +0.000 N 
ATOM     18  C   UNL     1       5.240   4.878  15.288  0.00  0.00    +0.000 C 
ATOM     19  O   UNL     1       5.080   6.074  15.517  0.00  0.00    +0.000 OA
ATOM     20  H   UNL     1       5.060   2.875  15.851  0.00  0.00    +0.000 HD
BRANCH  18  21
ATOM     21  C   UNL     1       5.955   4.523  14.024  0.00  0.00    +0.000 A 
ATOM     22  C   UNL     1       7.118   5.247  13.713  0.00  0.00    +0.000 A 
ATOM     23  C   UNL     1       7.871   4.934  12.583  0.00  0.00    +0.000 A 
ATOM     24  C   UNL     1       7.482   3.877  11.762  0.00  0.00    +0.000 A 
ATOM     25  C   UNL     1       6.337   3.130  12.064  0.00  0.00    +0.000 A 
ATOM     26  C   UNL     1       5.959   1.941  11.229  0.00  0.00    +0.000 C 
ATOM     27  C   UNL     1       5.566   3.467  13.191  0.00  0.00    +0.000 A 
ENDBRANCH  18  21
ENDBRANCH   2  17
TORSDOF 5
ENDMDL
MODEL 5
REMARK VINA RESULT:      -8.1      4.185      7.868
REMARK  Name = 
REMARK  7 active torsions:
REMARK  status: ('A' for Active; 'I' for Inactive)
REMARK    1  A    between atoms: C_1  and  C_2
REMARK    2  A    between atoms: C_2  and  C_3
REMARK    3  A    between atoms: C_3  and  N_4
REMARK    4  A    between atoms: C_5  and  C_7
REMARK    5  A    between atoms: C_8  and  N_9
REMARK    6  A    between atoms: C_10  and  C_12
REMARK    7  A    between atoms: C_16  and  C_17
REMARK                            x       y       z     vdW  Elec       q    Type
REMARK                         _______ _______ _______ _____ _____    ______ ____
ROOT
ATOM      1  C   UNL     1       4.296   4.138  18.788  0.00  0.00    +0.000 A 
ATOM      2  C   UNL     1       4.147   3.383  17.633  0.00  0.00    +0.000 A 
ATOM      3  N   UNL     1       3.094   2.524  17.733  0.00  0.00    +0.000 NA
ATOM      4  C   UNL     1       2.612   2.685  18.939  0.00  0.00    +0.000 A 
ATOM      5  C   UNL     1       1.525   2.042  19.595  0.00  0.00    +0.000 A 
ATOM      6  C   UNL     1       1.198   2.395  20.853  0.00  0.00    +0.000 A 
ATOM      7  C   UNL     1       1.936   3.425  21.562  0.00  0.00    +0.000 A 
ATOM      8  C   UNL     1       2.966   4.032  20.947  0.00  0.00    +0.000 A 
ATOM      9  N   UNL     1       3.310   3.659  19.642  0.00  0.00    +0.000 N 
ENDROOT
BRANCH   1  11
ATOM     10  N   UNL     1       6.542   4.850  19.043  0.00  0.00    +0.000 N 
ATOM     11  C   UNL     1       5.206   5.204  19.109  0.00  0.00    +0.000 C 
ATOM     12  O   UNL     1       4.848   6.346  19.375  0.00  0.00    +0.000 OA
ATOM     13  H   UNL     1       6.745   4.027  18.486  0.00  0.00    +0.000 HD
BRANCH  10  14
ATOM     14  C   UNL     1       7.580   5.862  19.129  0.00  0.00    +0.000 C 
BRANCH  14  16
ATOM     15  C   UNL     1       8.087   8.115  18.057  0.00  0.00    +0.000 C 
ATOM     16  C   UNL     1       7.722   6.655  17.833  0.00  0.00    +0.000 C 
ENDBRANCH  14  16
ENDBRANCH  10  14
ENDBRANCH   1  11
BRANCH   2  17
ATOM     17  N   UNL     1       4.959   3.423  16.513  0.00  0.00    +0.000 N 
ATOM     18  C   UNL     1       5.130   4.566  15.749  0.00  0.00    +0.000 C 
ATOM     19  O   UNL     1       4.720   5.691  16.023  0.00  0.00    +0.000 OA
ATOM     20  H   UNL     1       5.365   2.546  16.225  0.00  0.00    +0.000 HD
BRANCH  18  21
ATOM     21  C   UNL     1       5.921   4.424  14.488  0.00  0.00    +0.000 A 
ATOM     22  C   UNL     1       5.429   3.543  13.512  0.00  0.00    +0.000 A 
ATOM     23  C   UNL     1       6.078   3.403  12.286  0.00  0.00    +0.000 A 
ATOM     24  C   UNL     1       7.215   4.161  12.014  0.00  0.00    +0.000 A 
ATOM     25  C   UNL     1       7.711   5.061  12.966  0.00  0.00    +0.000 A 
ATOM     26  C   UNL     1       8.888   5.937  12.647  0.00  0.00    +0.000 C 
ATOM     27  C   UNL     1       7.068   5.178  14.211  0.00  0.00    +0.000 A 
ENDBRANCH  18  21
ENDBRANCH   2  17
TORSDOF 5
ENDMDL
MODEL 6
REMARK VINA RESULT:      -7.9      3.378      8.081
REMARK  Name = 
REMARK  7 active torsions:
REMARK  status: ('A' for Active; 'I' for Inactive)
REMARK    1  A    between atoms: C_1  and  C_2
REMARK    2  A    between atoms: C_2  and  C_3
REMARK    3  A    between atoms: C_3  and  N_4
REMARK    4  A    between atoms: C_5  and  C_7
REMARK    5  A    between atoms: C_8  and  N_9
REMARK    6  A    between atoms: C_10  and  C_12
REMARK    7  A    between atoms: C_16  and  C_17
REMARK                            x       y       z     vdW  Elec       q    Type
REMARK                         _______ _______ _______ _____ _____    ______ ____
ROOT
ATOM      1  C   UNL     1       3.664   4.925  18.050  0.00  0.00    +0.000 A 
ATOM      2  C   UNL     1       3.703   3.845  17.178  0.00  0.00    +0.000 A 
ATOM      3  N   UNL     1       3.069   2.759  17.702  0.00  0.00    +0.000 NA
ATOM      4  C   UNL     1       2.680   3.113  18.900  0.00  0.00    +0.000 A 
ATOM      5  C   UNL     1       1.987   2.379  19.904  0.00  0.00    +0.000 A 
ATOM      6  C   UNL     1       1.673   2.972  21.071  0.00  0.00    +0.000 A 
ATOM      7  C   UNL     1       2.028   4.356  21.332  0.00  0.00    +0.000 A 
ATOM      8  C   UNL     1       2.687   5.051  20.389  0.00  0.00    +0.000 A 
ATOM      9  N   UNL     1       3.021   4.431  19.178  0.00  0.00    +0.000 N 
ENDROOT
BRANCH   1  11
ATOM     10  N   UNL     1       5.504   6.408  17.876  0.00  0.00    +0.000 N 
ATOM     11  C   UNL     1       4.126   6.277  17.900  0.00  0.00    +0.000 C 
ATOM     12  O   UNL     1       3.380   7.240  17.759  0.00  0.00    +0.000 OA
ATOM     13  H   UNL     1       6.015   5.563  17.642  0.00  0.00    +0.000 HD
BRANCH  10  14
ATOM     14  C   UNL     1       6.121   7.673  17.519  0.00  0.00    +0.000 C 
BRANCH  14  16
ATOM     15  C   UNL     1       8.277   8.939  18.001  0.00  0.00    +0.000 C 
ATOM     16  C   UNL     1       7.644   7.615  17.600  0.00  0.00    +0.000 C 
ENDBRANCH  14  16
ENDBRANCH  10  14
ENDBRANCH   1  11
BRANCH   2  17
ATOM     17  N   UNL     1       4.327   3.807  15.943  0.00  0.00    +0.000 N 
ATOM     18  C   UNL     1       5.693   3.968  15.785  0.00  0.00    +0.000 C 
ATOM     19  O   UNL     1       6.527   4.023  16.686  0.00  0.00    +0.000 OA
ATOM     20  H   UNL     1       3.720   3.736  15.140  0.00  0.00    +0.000 HD
BRANCH  18  21
ATOM     21  C   UNL     1       6.208   4.047  14.384  0.00  0.00    +0.000 A 
ATOM     22  C   UNL     1       7.162   5.038  14.100  0.00  0.00    +0.000 A 
ATOM     23  C   UNL     1       7.733   5.135  12.833  0.00  0.00    +0.000 A 
ATOM     24  C   UNL     1       7.372   4.228  11.839  0.00  0.00    +0.000 A 
ATOM     25  C   UNL     1       6.438   3.219  12.106  0.00  0.00    +0.000 A 
ATOM     26  C   UNL     1       6.106   2.191  11.064  0.00  0.00    +0.000 C 
ATOM     27  C   UNL     1       5.845   3.142  13.378  0.00  0.00    +0.000 A 
ENDBRANCH  18  21
ENDBRANCH   2  17
TORSDOF 5
ENDMDL
MODEL 7
REMARK VINA RESULT:      -7.9      3.382      7.986
REMARK  Name = 
REMARK  7 active torsions:
REMARK  status: ('A' for Active; 'I' for Inactive)
REMARK    1  A    between atoms: C_1  and  C_2
REMARK    2  A    between atoms: C_2  and  C_3
REMARK    3  A    between atoms: C_3  and  N_4
REMARK    4  A    between atoms: C_5  and  C_7
REMARK    5  A    between atoms: C_8  and  N_9
REMARK    6  A    between atoms: C_10  and  C_12
REMARK    7  A    between atoms: C_16  and  C_17
REMARK                            x       y       z     vdW  Elec       q    Type
REMARK                         _______ _______ _______ _____ _____    ______ ____
ROOT
ATOM      1  C   UNL     1       3.631   4.927  18.017  0.00  0.00    +0.000 A 
ATOM      2  C   UNL     1       3.678   3.879  17.108  0.00  0.00    +0.000 A 
ATOM      3  N   UNL     1       3.007   2.788  17.571  0.00  0.00    +0.000 NA
ATOM      4  C   UNL     1       2.585   3.107  18.768  0.00  0.00    +0.000 A 
ATOM      5  C   UNL     1       1.845   2.352  19.721  0.00  0.00    +0.000 A 
ATOM      6  C   UNL     1       1.504   2.909  20.898  0.00  0.00    +0.000 A 
ATOM      7  C   UNL     1       1.877   4.276  21.221  0.00  0.00    +0.000 A 
ATOM      8  C   UNL     1       2.580   4.990  20.326  0.00  0.00    +0.000 A 
ATOM      9  N   UNL     1       2.941   4.407  19.105  0.00  0.00    +0.000 N 
ENDROOT
BRANCH   1  11
ATOM     10  N   UNL     1       5.500   6.369  17.812  0.00  0.00    +0.000 N 
ATOM     11  C   UNL     1       4.125   6.274  17.931  0.00  0.00    +0.000 C 
ATOM     12  O   UNL     1       3.401   7.264  17.917  0.00  0.00    +0.000 OA
ATOM     13  H   UNL     1       5.965   5.531  17.480  0.00  0.00    +0.000 HD
BRANCH  10  14
ATOM     14  C   UNL     1       6.130   7.641  17.503  0.00  0.00    +0.000 C 
BRANCH  14  16
ATOM     15  C   UNL     1       8.245   8.980  17.967  0.00  0.00    +0.000 C 
ATOM     16  C   UNL     1       7.639   7.606  17.723  0.00  0.00    +0.000 C 
ENDBRANCH  14  16
ENDBRANCH  10  14
ENDBRANCH   1  11
BRANCH   2  17
ATOM     17  N   UNL     1       4.342   3.872  15.893  0.00  0.00    +0.000 N 
ATOM     18  C   UNL     1       5.721   3.944  15.789  0.00  0.00    +0.000 C 
ATOM     19  O   UNL     1       6.524   3.884  16.717  0.00  0.00    +0.000 OA
ATOM     20  H   UNL     1       3.761   3.893  15.068  0.00  0.00    +0.000 HD
BRANCH  18  21
ATOM     21  C   UNL     1       6.290   4.071  14.413  0.00  0.00    +0.000 A 
ATOM     22  C   UNL     1       5.714   3.287  13.399  0.00  0.00    +0.000 A 
ATOM     23  C   UNL     1       6.151   3.396  12.080  0.00  0.00    +0.000 A 
ATOM     24  C   UNL     1       7.154   4.306  11.755  0.00  0.00    +0.000 A 
ATOM     25  C   UNL     1       7.728   5.112  12.746  0.00  0.00    +0.000 A 
ATOM     26  C   UNL     1       8.752   6.150  12.388  0.00  0.00    +0.000 C 
ATOM     27  C   UNL     1       7.303   4.980  14.080  0.00  0.00    +0.000 A 
ENDBRANCH  18  21
ENDBRANCH   2  17
TORSDOF 5
ENDMDL
MODEL 8
REMARK VINA RESULT:      -7.8      2.329      7.813
REMARK  Name = 
REMARK  7 active torsions:
REMARK  status: ('A' for Active; 'I' for Inactive)
REMARK    1  A    between atoms: C_1  and  C_2
REMARK    2  A    between atoms: C_2  and  C_3
REMARK    3  A    between atoms: C_3  and  N_4
REMARK    4  A    between atoms: C_5  and  C_7
REMARK    5  A    between atoms: C_8  and  N_9
REMARK    6  A    between atoms: C_10  and  C_12
REMARK    7  A    between atoms: C_16  and  C_17
REMARK                            x       y       z     vdW  Elec       q    Type
REMARK                         _______ _______ _______ _____ _____    ______ ____
ROOT
ATOM      1  C   UNL     1       3.529   4.986  18.141  0.00  0.00    +0.000 A 
ATOM      2  C   UNL     1       3.875   3.853  17.417  0.00  0.00    +0.000 A 
ATOM      3  N   UNL     1       3.597   2.715  18.112  0.00  0.00    +0.000 NA
ATOM      4  C   UNL     1       3.134   3.106  19.272  0.00  0.00    +0.000 A 
ATOM      5  C   UNL     1       2.700   2.351  20.399  0.00  0.00    +0.000 A 
ATOM      6  C   UNL     1       2.239   2.986  21.492  0.00  0.00    +0.000 A 
ATOM      7  C   UNL     1       2.172   4.436  21.551  0.00  0.00    +0.000 A 
ATOM      8  C   UNL     1       2.586   5.152  20.491  0.00  0.00    +0.000 A 
ATOM      9  N   UNL     1       3.073   4.491  19.356  0.00  0.00    +0.000 N 
ENDROOT
BRANCH   1  11
ATOM     10  N   UNL     1       2.361   7.037  17.928  0.00  0.00    +0.000 N 
ATOM     11  C   UNL     1       3.571   6.380  17.790  0.00  0.00    +0.000 C 
ATOM     12  O   UNL     1       4.591   6.963  17.443  0.00  0.00    +0.000 OA
ATOM     13  H   UNL     1       1.690   6.585  18.541  0.00  0.00    +0.000 HD
BRANCH  10  14
ATOM     14  C   UNL     1       2.288   8.483  17.820  0.00  0.00    +0.000 C 
BRANCH  14  16
ATOM     15  C   UNL     1       0.620  10.278  18.513  0.00  0.00    +0.000 C 
ATOM     16  C   UNL     1       1.484   9.106  18.957  0.00  0.00    +0.000 C 
ENDBRANCH  14  16
ENDBRANCH  10  14
ENDBRANCH   1  11
BRANCH   2  17
ATOM     17  N   UNL     1       4.468   3.824  16.167  0.00  0.00    +0.000 N 
ATOM     18  C   UNL     1       5.797   4.152  15.957  0.00  0.00    +0.000 C 
ATOM     19  O   UNL     1       6.638   4.368  16.826  0.00  0.00    +0.000 OA
ATOM     20  H   UNL     1       3.858   3.627  15.389  0.00  0.00    +0.000 HD
BRANCH  18  21
ATOM     21  C   UNL     1       6.263   4.214  14.538  0.00  0.00    +0.000 A 
ATOM     22  C   UNL     1       7.272   5.141  14.229  0.00  0.00    +0.000 A 
ATOM     23  C   UNL     1       7.800   5.216  12.941  0.00  0.00    +0.000 A 
ATOM     24  C   UNL     1       7.340   4.349  11.952  0.00  0.00    +0.000 A 
ATOM     25  C   UNL     1       6.348   3.404  12.244  0.00  0.00    +0.000 A 
ATOM     26  C   UNL     1       5.907   2.416  11.204  0.00  0.00    +0.000 C 
ATOM     27  C   UNL     1       5.800   3.351  13.538  0.00  0.00    +0.000 A 
ENDBRANCH  18  21
ENDBRANCH   2  17
TORSDOF 5
ENDMDL
MODEL 9
REMARK VINA RESULT:      -7.8      1.022      1.047
REMARK  Name = 
REMARK  7 active torsions:
REMARK  status: ('A' for Active; 'I' for Inactive)
REMARK    1  A    between atoms: C_1  and  C_2
REMARK    2  A    between atoms: C_2  and  C_3
REMARK    3  A    between atoms: C_3  and  N_4
REMARK    4  A    between atoms: C_5  and  C_7
REMARK    5  A    between atoms: C_8  and  N_9
REMARK    6  A    between atoms: C_10  and  C_12
REMARK    7  A    between atoms: C_16  and  C_17
REMARK                            x       y       z     vdW  Elec       q    Type
REMARK                         _______ _______ _______ _____ _____    ______ ____
ROOT
ATOM      1  C   UNL     1       3.205   5.446  17.606  0.00  0.00    +0.000 A 
ATOM      2  C   UNL     1       3.475   6.802  17.729  0.00  0.00    +0.000 A 
ATOM      3  N   UNL     1       4.681   7.121  17.184  0.00  0.00    +0.000 NA
ATOM      4  C   UNL     1       5.198   5.993  16.769  0.00  0.00    +0.000 A 
ATOM      5  C   UNL     1       6.445   5.721  16.136  0.00  0.00    +0.000 A 
ATOM      6  C   UNL     1       6.753   4.461  15.778  0.00  0.00    +0.000 A 
ATOM      7  C   UNL     1       5.836   3.362  16.023  0.00  0.00    +0.000 A 
ATOM      8  C   UNL     1       4.661   3.613  16.624  0.00  0.00    +0.000 A 
ATOM      9  N   UNL     1       4.343   4.923  17.004  0.00  0.00    +0.000 N 
ENDROOT
BRANCH   1  11
ATOM     10  N   UNL     1       2.087   4.136  19.234  0.00  0.00    +0.000 N 
ATOM     11  C   UNL     1       2.043   4.677  17.961  0.00  0.00    +0.000 C 
ATOM     12  O   UNL     1       1.069   4.541  17.229  0.00  0.00    +0.000 OA
ATOM     13  H   UNL     1       2.736   4.582  19.872  0.00  0.00    +0.000 HD
BRANCH  10  14
ATOM     14  C   UNL     1       0.908   3.519  19.815  0.00  0.00    +0.000 C 
BRANCH  14  16
ATOM     15  C   UNL     1       2.694   2.818  21.489  0.00  0.00    +0.000 C 
ATOM     16  C   UNL     1       1.212   2.836  21.145  0.00  0.00    +0.000 C 
ENDBRANCH  14  16
ENDBRANCH  10  14
ENDBRANCH   1  11
BRANCH   2  17
ATOM     17  N   UNL     1       2.678   7.746  18.353  0.00  0.00    +0.000 N 
ATOM     18  C   UNL     1       2.228   7.608  19.656  0.00  0.00    +0.000 C 
ATOM     19  O   UNL     1       2.570   6.739  20.455  0.00  0.00    +0.000 OA
ATOM     20  H   UNL     1       2.367   8.515  17.780  0.00  0.00    +0.000 HD
BRANCH  18  21
ATOM     21  C   UNL     1       1.259   8.634  20.150  0.00  0.00    +0.000 A 
ATOM     22  C   UNL     1       0.656   9.467  19.193  0.00  0.00    +0.000 A 
ATOM     23  C   UNL     1      -0.302  10.407  19.570  0.00  0.00    +0.000 A 
ATOM     24  C   UNL     1      -0.684  10.509  20.906  0.00  0.00    +0.000 A 
ATOM     25  C   UNL     1      -0.110   9.674  21.873  0.00  0.00    +0.000 A 
ATOM     26  C   UNL     1      -0.576   9.725  23.299  0.00  0.00    +0.000 C 
ATOM     27  C   UNL     1       0.875   8.746  21.492  0.00  0.00    +0.000 A 
ENDBRANCH  18  21
ENDBRANCH   2  17
TORSDOF 5
ENDMDL
