MODEL 1
REMARK VINA RESULT:      -7.2      0.000      0.000
REMARK  Name = 
REMARK  4 active torsions:
REMARK  status: ('A' for Active; 'I' for Inactive)
REMARK    1  A    between atoms: C_2  and  C_17
REMARK    2  A    between atoms: N_3  and  C_4
REMARK    3  A    between atoms: C_7  and  C_8
REMARK    4  A    between atoms: C_8  and  N_9
REMARK                            x       y       z     vdW  Elec       q    Type
REMARK                         _______ _______ _______ _____ _____    ______ ____
ROOT
ATOM      1  C   UNL     1       1.560   8.315  19.717  0.00  0.00    +0.000 A 
ATOM      2  C   UNL     1       1.909   7.081  20.286  0.00  0.00    +0.000 A 
ATOM      3  C   UNL     1       2.740   6.180  19.599  0.00  0.00    +0.000 A 
ATOM      4  C   UNL     1       3.249   6.495  18.330  0.00  0.00    +0.000 A 
ATOM      5  C   UNL     1       2.942   7.755  17.798  0.00  0.00    +0.000 A 
ATOM      6  C   UNL     1       2.094   8.641  18.471  0.00  0.00    +0.000 A 
ENDROOT
BRANCH   1   9
ATOM      7  O   UNL     1       1.594   9.449  22.439  0.00  0.00    +0.000 OA
ATOM      8  C   UNL     1       0.730   9.734  21.607  0.00  0.00    +0.000 C 
ATOM      9  N   UNL     1       0.694   9.252  20.310  0.00  0.00    +0.000 N 
ATOM     10  H   UNL     1      -0.027   9.657  19.726  0.00  0.00    +0.000 HD
BRANCH   8  11
ATOM     11  C   UNL     1      -0.339  10.666  21.917  0.00  0.00    +0.000 A 
ATOM     12  C   UNL     1      -1.011  10.896  23.106  0.00  0.00    +0.000 A 
ATOM     13  C   UNL     1      -1.969  11.902  22.851  0.00  0.00    +0.000 A 
ATOM     14  C   UNL     1      -1.840  12.221  21.521  0.00  0.00    +0.000 A 
ATOM     15  O   UNL     1      -0.848  11.491  20.944  0.00  0.00    +0.000 OA
ENDBRANCH   8  11
ENDBRANCH   1   9
BRANCH   4  16
ATOM     16  C   UNL     1       4.173   5.561  17.576  0.00  0.00    +0.000 C 
BRANCH  16  17
ATOM     17  N   UNL     1       5.402   6.086  16.981  0.00  0.00    +0.000 NA
ATOM     18  C   UNL     1       5.755   5.665  15.624  0.00  0.00    +0.000 C 
ATOM     19  C   UNL     1       6.659   4.422  15.545  0.00  0.00    +0.000 C 
ATOM     20  O   UNL     1       7.812   4.533  16.389  0.00  0.00    +0.000 OA
ATOM     21  C   UNL     1       7.460   4.844  17.742  0.00  0.00    +0.000 C 
ATOM     22  C   UNL     1       6.595   6.103  17.830  0.00  0.00    +0.000 C 
ENDBRANCH  16  17
ENDBRANCH   4  16
TORSDOF 4
ENDMDL
MODEL 2
REMARK VINA RESULT:      -7.0      0.629      1.345
REMARK  Name = 
REMARK  4 active torsions:
REMARK  status: ('A' for Active; 'I' for Inactive)
REMARK    1  A    between atoms: C_2  and  C_17
REMARK    2  A    between atoms: N_3  and  C_4
REMARK    3  A    between atoms: C_7  and  C_8
REMARK    4  A    between atoms: C_8  and  N_9
REMARK                            x       y       z     vdW  Elec       q    Type
REMARK                         _______ _______ _______ _____ _____    ______ ____
ROOT
ATOM      1  C   UNL     1       1.558   8.630  19.431  0.00  0.00    +0.000 A 
ATOM      2  C   UNL     1       2.113   8.853  18.162  0.00  0.00    +0.000 A 
ATOM      3  C   UNL     1       2.991   7.921  17.585  0.00  0.00    +0.000 A 
ATOM      4  C   UNL     1       3.329   6.738  18.261  0.00  0.00    +0.000 A 
ATOM      5  C   UNL     1       2.722   6.498  19.501  0.00  0.00    +0.000 A 
ATOM      6  C   UNL     1       1.868   7.438  20.087  0.00  0.00    +0.000 A 
ENDROOT
BRANCH   1   9
ATOM      7  O   UNL     1       1.648   9.564  22.227  0.00  0.00    +0.000 OA
ATOM      8  C   UNL     1       0.775   9.919  21.431  0.00  0.00    +0.000 C 
ATOM      9  N   UNL     1       0.714   9.532  20.104  0.00  0.00    +0.000 N 
ATOM     10  H   UNL     1      -0.011   9.989  19.562  0.00  0.00    +0.000 HD
BRANCH   8  11
ATOM     11  C   UNL     1      -0.276  10.839  21.825  0.00  0.00    +0.000 A 
ATOM     12  C   UNL     1      -1.139  11.598  21.052  0.00  0.00    +0.000 A 
ATOM     13  C   UNL     1      -1.956  12.331  21.942  0.00  0.00    +0.000 A 
ATOM     14  C   UNL     1      -1.540  11.990  23.207  0.00  0.00    +0.000 A 
ATOM     15  O   UNL     1      -0.532  11.077  23.152  0.00  0.00    +0.000 OA
ENDBRANCH   8  11
ENDBRANCH   1   9
BRANCH   4  16
ATOM     16  C   UNL     1       4.247   5.696  17.654  0.00  0.00    +0.000 C 
BRANCH  16  17
ATOM     17  N   UNL     1       5.462   6.120  16.960  0.00  0.00    +0.000 NA
ATOM     18  C   UNL     1       5.733   5.572  15.630  0.00  0.00    +0.000 C 
ATOM     19  C   UNL     1       6.588   4.293  15.618  0.00  0.00    +0.000 C 
ATOM     20  O   UNL     1       7.785   4.430  16.395  0.00  0.00    +0.000 OA
ATOM     21  C   UNL     1       7.511   4.869  17.731  0.00  0.00    +0.000 C 
ATOM     22  C   UNL     1       6.695   6.164  17.748  0.00  0.00    +0.000 C 
ENDBRANCH  16  17
ENDBRANCH   4  16
TORSDOF 4
ENDMDL
MODEL 3
REMARK VINA RESULT:      -6.9      0.875      1.325
REMARK  Name = 
REMARK  4 active torsions:
REMARK  status: ('A' for Active; 'I' for Inactive)
REMARK    1  A    between atoms: C_2  and  C_17
REMARK    2  A    between atoms: N_3  and  C_4
REMARK    3  A    between atoms: C_7  and  C_8
REMARK    4  A    between atoms: C_8  and  N_9
REMARK                            x       y       z     vdW  Elec       q    Type
REMARK                         _______ _______ _______ _____ _____    ______ ____
ROOT
ATOM      1  C   UNL     1       1.604   8.167  19.849  0.00  0.00    +0.000 A 
ATOM      2  C   UNL     1       1.888   6.886  20.345  0.00  0.00    +0.000 A 
ATOM      3  C   UNL     1       2.588   5.950  19.568  0.00  0.00    +0.000 A 
ATOM      4  C   UNL     1       3.031   6.275  18.276  0.00  0.00    +0.000 A 
ATOM      5  C   UNL     1       2.794   7.577  17.814  0.00  0.00    +0.000 A 
ATOM      6  C   UNL     1       2.074   8.500  18.579  0.00  0.00    +0.000 A 
ENDROOT
BRANCH   1   9
ATOM      7  O   UNL     1       1.985   9.247  22.566  0.00  0.00    +0.000 OA
ATOM      8  C   UNL     1       1.062   9.601  21.830  0.00  0.00    +0.000 C 
ATOM      9  N   UNL     1       0.865   9.145  20.538  0.00  0.00    +0.000 N 
ATOM     10  H   UNL     1       0.116   9.606  20.035  0.00  0.00    +0.000 HD
BRANCH   8  11
ATOM     11  C   UNL     1       0.092  10.592  22.258  0.00  0.00    +0.000 A 
ATOM     12  C   UNL     1      -1.037  10.459  23.049  0.00  0.00    +0.000 A 
ATOM     13  C   UNL     1      -1.631  11.738  23.141  0.00  0.00    +0.000 A 
ATOM     14  C   UNL     1      -0.841  12.578  22.392  0.00  0.00    +0.000 A 
ATOM     15  O   UNL     1       0.213  11.901  21.862  0.00  0.00    +0.000 OA
ENDBRANCH   8  11
ENDBRANCH   1   9
BRANCH   4  16
ATOM     16  C   UNL     1       3.817   5.301  17.422  0.00  0.00    +0.000 C 
BRANCH  16  17
ATOM     17  N   UNL     1       5.220   5.034  17.737  0.00  0.00    +0.000 NA
ATOM     18  C   UNL     1       6.025   6.115  18.308  0.00  0.00    +0.000 C 
ATOM     19  C   UNL     1       6.780   6.973  17.277  0.00  0.00    +0.000 C 
ATOM     20  O   UNL     1       7.531   6.177  16.352  0.00  0.00    +0.000 OA
ATOM     21  C   UNL     1       6.718   5.183  15.716  0.00  0.00    +0.000 C 
ATOM     22  C   UNL     1       5.996   4.300  16.737  0.00  0.00    +0.000 C 
ENDBRANCH  16  17
ENDBRANCH   4  16
TORSDOF 4
ENDMDL
MODEL 4
REMARK VINA RESULT:      -6.9      5.257      7.539
REMARK  Name = 
REMARK  4 active torsions:
REMARK  status: ('A' for Active; 'I' for Inactive)
REMARK    1  A    between atoms: C_2  and  C_17
REMARK    2  A    between atoms: N_3  and  C_4
REMARK    3  A    between atoms: C_7  and  C_8
REMARK    4  A    between atoms: C_8  and  N_9
REMARK                            x       y       z     vdW  Elec       q    Type
REMARK                         _______ _______ _______ _____ _____    ______ ____
ROOT
ATOM      1  C   UNL     1       8.010   7.294  18.438  0.00  0.00    +0.000 A 
ATOM      2  C   UNL     1       7.942   6.032  19.046  0.00  0.00    +0.000 A 
ATOM      3  C   UNL     1       7.131   5.017  18.512  0.00  0.00    +0.000 A 
ATOM      4  C   UNL     1       6.374   5.236  17.350  0.00  0.00    +0.000 A 
ATOM      5  C   UNL     1       6.497   6.482  16.718  0.00  0.00    +0.000 A 
ATOM      6  C   UNL     1       7.284   7.501  17.264  0.00  0.00    +0.000 A 
ENDROOT
BRANCH   1   9
ATOM      7  O   UNL     1       7.883  10.148  17.708  0.00  0.00    +0.000 OA
ATOM      8  C   UNL     1       8.681   9.705  18.537  0.00  0.00    +0.000 C 
ATOM      9  N   UNL     1       8.753   8.381  18.933  0.00  0.00    +0.000 N 
ATOM     10  H   UNL     1       9.398   8.199  19.693  0.00  0.00    +0.000 HD
BRANCH   8  11
ATOM     11  C   UNL     1       9.619  10.575  19.223  0.00  0.00    +0.000 A 
ATOM     12  C   UNL     1       9.590  11.088  20.509  0.00  0.00    +0.000 A 
ATOM     13  C   UNL     1      10.743  11.890  20.660  0.00  0.00    +0.000 A 
ATOM     14  C   UNL     1      11.405  11.835  19.457  0.00  0.00    +0.000 A 
ATOM     15  O   UNL     1      10.743  11.032  18.580  0.00  0.00    +0.000 OA
ENDBRANCH   8  11
ENDBRANCH   1   9
BRANCH   4  16
ATOM     16  C   UNL     1       5.515   4.154  16.729  0.00  0.00    +0.000 C 
BRANCH  16  17
ATOM     17  N   UNL     1       4.145   3.959  17.203  0.00  0.00    +0.000 NA
ATOM     18  C   UNL     1       3.442   5.098  17.794  0.00  0.00    +0.000 C 
ATOM     19  C   UNL     1       3.583   5.225  19.321  0.00  0.00    +0.000 C 
ATOM     20  O   UNL     1       3.282   3.999  19.999  0.00  0.00    +0.000 OA
ATOM     21  C   UNL     1       4.047   2.900  19.488  0.00  0.00    +0.000 C 
ATOM     22  C   UNL     1       3.878   2.745  17.975  0.00  0.00    +0.000 C 
ENDBRANCH  16  17
ENDBRANCH   4  16
TORSDOF 4
ENDMDL
MODEL 5
REMARK VINA RESULT:      -6.8      5.808      7.707
REMARK  Name = 
REMARK  4 active torsions:
REMARK  status: ('A' for Active; 'I' for Inactive)
REMARK    1  A    between atoms: C_2  and  C_17
REMARK    2  A    between atoms: N_3  and  C_4
REMARK    3  A    between atoms: C_7  and  C_8
REMARK    4  A    between atoms: C_8  and  N_9
REMARK                            x       y       z     vdW  Elec       q    Type
REMARK                         _______ _______ _______ _____ _____    ______ ____
ROOT
ATOM      1  C   UNL     1       7.718   7.978  17.871  0.00  0.00    +0.000 A 
ATOM      2  C   UNL     1       8.229   6.970  18.702  0.00  0.00    +0.000 A 
ATOM      3  C   UNL     1       7.539   5.759  18.875  0.00  0.00    +0.000 A 
ATOM      4  C   UNL     1       6.324   5.523  18.214  0.00  0.00    +0.000 A 
ATOM      5  C   UNL     1       5.853   6.512  17.340  0.00  0.00    +0.000 A 
ATOM      6  C   UNL     1       6.527   7.728  17.187  0.00  0.00    +0.000 A 
ENDROOT
BRANCH   1   9
ATOM      7  O   UNL     1       9.164   9.682  19.794  0.00  0.00    +0.000 OA
ATOM      8  C   UNL     1       8.959  10.018  18.625  0.00  0.00    +0.000 C 
ATOM      9  N   UNL     1       8.315   9.237  17.682  0.00  0.00    +0.000 N 
ATOM     10  H   UNL     1       8.313   9.620  16.744  0.00  0.00    +0.000 HD
BRANCH   8  11
ATOM     11  C   UNL     1       9.430  11.292  18.112  0.00  0.00    +0.000 A 
ATOM     12  C   UNL     1       8.741  12.466  17.860  0.00  0.00    +0.000 A 
ATOM     13  C   UNL     1       9.678  13.395  17.353  0.00  0.00    +0.000 A 
ATOM     14  C   UNL     1      10.882  12.734  17.311  0.00  0.00    +0.000 A 
ATOM     15  O   UNL     1      10.751  11.464  17.780  0.00  0.00    +0.000 OA
ENDBRANCH   8  11
ENDBRANCH   1   9
BRANCH   4  16
ATOM     16  C   UNL     1       5.570   4.216  18.353  0.00  0.00    +0.000 C 
BRANCH  16  17
ATOM     17  N   UNL     1       4.107   4.225  18.383  0.00  0.00    +0.000 NA
ATOM     18  C   UNL     1       3.438   4.306  19.683  0.00  0.00    +0.000 C 
ATOM     19  C   UNL     1       3.097   2.947  20.320  0.00  0.00    +0.000 C 
ATOM     20  O   UNL     1       2.406   2.078  19.414  0.00  0.00    +0.000 OA
ATOM     21  C   UNL     1       3.114   1.917  18.179  0.00  0.00    +0.000 C 
ATOM     22  C   UNL     1       3.420   3.264  17.520  0.00  0.00    +0.000 C 
ENDBRANCH  16  17
ENDBRANCH   4  16
TORSDOF 4
ENDMDL
MODEL 6
REMARK VINA RESULT:      -6.8      5.443      7.655
REMARK  Name = 
REMARK  4 active torsions:
REMARK  status: ('A' for Active; 'I' for Inactive)
REMARK    1  A    between atoms: C_2  and  C_17
REMARK    2  A    between atoms: N_3  and  C_4
REMARK    3  A    between atoms: C_7  and  C_8
REMARK    4  A    between atoms: C_8  and  N_9
REMARK                            x       y       z     vdW  Elec       q    Type
REMARK                         _______ _______ _______ _____ _____    ______ ____
ROOT
ATOM      1  C   UNL     1       7.705   7.901  17.817  0.00  0.00    +0.000 A 
ATOM      2  C   UNL     1       8.172   6.885  18.662  0.00  0.00    +0.000 A 
ATOM      3  C   UNL     1       7.457   5.686  18.813  0.00  0.00    +0.000 A 
ATOM      4  C   UNL     1       6.259   5.470  18.115  0.00  0.00    +0.000 A 
ATOM      5  C   UNL     1       5.832   6.468  17.227  0.00  0.00    +0.000 A 
ATOM      6  C   UNL     1       6.531   7.672  17.097  0.00  0.00    +0.000 A 
ENDROOT
BRANCH   1   9
ATOM      7  O   UNL     1       9.081   9.601  19.794  0.00  0.00    +0.000 OA
ATOM      8  C   UNL     1       8.937   9.930  18.614  0.00  0.00    +0.000 C 
ATOM      9  N   UNL     1       8.329   9.151  17.647  0.00  0.00    +0.000 N 
ATOM     10  H   UNL     1       8.377   9.526  16.707  0.00  0.00    +0.000 HD
BRANCH   8  11
ATOM     11  C   UNL     1       9.451  11.192  18.114  0.00  0.00    +0.000 A 
ATOM     12  C   UNL     1      10.755  11.605  17.894  0.00  0.00    +0.000 A 
ATOM     13  C   UNL     1      10.692  12.933  17.414  0.00  0.00    +0.000 A 
ATOM     14  C   UNL     1       9.358  13.262  17.380  0.00  0.00    +0.000 A 
ATOM     15  O   UNL     1       8.593  12.214  17.788  0.00  0.00    +0.000 OA
ENDBRANCH   8  11
ENDBRANCH   1   9
BRANCH   4  16
ATOM     16  C   UNL     1       5.479   4.176  18.229  0.00  0.00    +0.000 C 
BRANCH  16  17
ATOM     17  N   UNL     1       4.641   3.939  19.405  0.00  0.00    +0.000 NA
ATOM     18  C   UNL     1       4.186   2.574  19.673  0.00  0.00    +0.000 C 
ATOM     19  C   UNL     1       2.822   2.214  19.058  0.00  0.00    +0.000 C 
ATOM     20  O   UNL     1       1.813   3.185  19.362  0.00  0.00    +0.000 OA
ATOM     21  C   UNL     1       2.219   4.512  19.005  0.00  0.00    +0.000 C 
ATOM     22  C   UNL     1       3.555   4.890  19.647  0.00  0.00    +0.000 C 
ENDBRANCH  16  17
ENDBRANCH   4  16
TORSDOF 4
ENDMDL
MODEL 7
REMARK VINA RESULT:      -6.7      5.242      7.662
REMARK  Name = 
REMARK  4 active torsions:
REMARK  status: ('A' for Active; 'I' for Inactive)
REMARK    1  A    between atoms: C_2  and  C_17
REMARK    2  A    between atoms: N_3  and  C_4
REMARK    3  A    between atoms: C_7  and  C_8
REMARK    4  A    between atoms: C_8  and  N_9
REMARK                            x       y       z     vdW  Elec       q    Type
REMARK                         _______ _______ _______ _____ _____    ______ ____
ROOT
ATOM      1  C   UNL     1       7.956   7.531  18.323  0.00  0.00    +0.000 A 
ATOM      2  C   UNL     1       7.150   7.646  17.180  0.00  0.00    +0.000 A 
ATOM      3  C   UNL     1       6.426   6.546  16.694  0.00  0.00    +0.000 A 
ATOM      4  C   UNL     1       6.482   5.303  17.344  0.00  0.00    +0.000 A 
ATOM      5  C   UNL     1       7.242   5.216  18.519  0.00  0.00    +0.000 A 
ATOM      6  C   UNL     1       7.984   6.305  18.988  0.00  0.00    +0.000 A 
ENDROOT
BRANCH   1   9
ATOM      7  O   UNL     1       7.980  10.405  17.667  0.00  0.00    +0.000 OA
ATOM      8  C   UNL     1       8.752   9.900  18.485  0.00  0.00    +0.000 C 
ATOM      9  N   UNL     1       8.753   8.564  18.847  0.00  0.00    +0.000 N 
ATOM     10  H   UNL     1       9.386   8.330  19.602  0.00  0.00    +0.000 HD
BRANCH   8  11
ATOM     11  C   UNL     1       9.732  10.702  19.193  0.00  0.00    +0.000 A 
ATOM     12  C   UNL     1       9.725  11.188  20.490  0.00  0.00    +0.000 A 
ATOM     13  C   UNL     1      10.919  11.922  20.664  0.00  0.00    +0.000 A 
ATOM     14  C   UNL     1      11.584  11.855  19.463  0.00  0.00    +0.000 A 
ATOM     15  O   UNL     1      10.884  11.109  18.566  0.00  0.00    +0.000 OA
ENDBRANCH   8  11
ENDBRANCH   1   9
BRANCH   4  16
ATOM     16  C   UNL     1       5.689   4.105  16.866  0.00  0.00    +0.000 C 
BRANCH  16  17
ATOM     17  N   UNL     1       4.292   3.954  17.273  0.00  0.00    +0.000 NA
ATOM     18  C   UNL     1       3.587   5.126  17.795  0.00  0.00    +0.000 C 
ATOM     19  C   UNL     1       3.653   5.294  19.323  0.00  0.00    +0.000 C 
ATOM     20  O   UNL     1       3.288   4.095  20.019  0.00  0.00    +0.000 OA
ATOM     21  C   UNL     1       4.052   2.965  19.580  0.00  0.00    +0.000 C 
ATOM     22  C   UNL     1       3.957   2.769  18.065  0.00  0.00    +0.000 C 
ENDBRANCH  16  17
ENDBRANCH   4  16
TORSDOF 4
ENDMDL
MODEL 8
REMARK VINA RESULT:      -6.7      5.853      7.881
REMARK  Name = 
REMARK  4 active torsions:
REMARK  status: ('A' for Active; 'I' for Inactive)
REMARK    1  A    between atoms: C_2  and  C_17
REMARK    2  A    between atoms: N_3  and  C_4
REMARK    3  A    between atoms: C_7  and  C_8
REMARK    4  A    between atoms: C_8  and  N_9
REMARK                            x       y       z     vdW  Elec       q    Type
REMARK                         _______ _______ _______ _____ _____    ______ ____
ROOT
ATOM      1  C   UNL     1       7.739   8.147  17.810  0.00  0.00    +0.000 A 
ATOM      2  C   UNL     1       6.514   7.881  17.181  0.00  0.00    +0.000 A 
ATOM      3  C   UNL     1       5.866   6.648  17.356  0.00  0.00    +0.000 A 
ATOM      4  C   UNL     1       6.425   5.651  18.172  0.00  0.00    +0.000 A 
ATOM      5  C   UNL     1       7.619   5.951  18.843  0.00  0.00    +0.000 A 
ATOM      6  C   UNL     1       8.276   7.170  18.648  0.00  0.00    +0.000 A 
ENDROOT
BRANCH   1   9
ATOM      7  O   UNL     1       9.039   9.845  19.840  0.00  0.00    +0.000 OA
ATOM      8  C   UNL     1       9.048  10.116  18.637  0.00  0.00    +0.000 C 
ATOM      9  N   UNL     1       8.480   9.332  17.648  0.00  0.00    +0.000 N 
ATOM     10  H   UNL     1       8.657   9.648  16.702  0.00  0.00    +0.000 HD
BRANCH   8  11
ATOM     11  C   UNL     1       9.715  11.303  18.135  0.00  0.00    +0.000 A 
ATOM     12  C   UNL     1       9.190  12.498  17.672  0.00  0.00    +0.000 A 
ATOM     13  C   UNL     1      10.282  13.310  17.291  0.00  0.00    +0.000 A 
ATOM     14  C   UNL     1      11.411  12.564  17.529  0.00  0.00    +0.000 A 
ATOM     15  O   UNL     1      11.085  11.351  18.053  0.00  0.00    +0.000 OA
ENDBRANCH   8  11
ENDBRANCH   1   9
BRANCH   4  16
ATOM     16  C   UNL     1       5.737   4.322  18.409  0.00  0.00    +0.000 C 
BRANCH  16  17
ATOM     17  N   UNL     1       4.278   4.245  18.361  0.00  0.00    +0.000 NA
ATOM     18  C   UNL     1       3.536   4.258  19.623  0.00  0.00    +0.000 C 
ATOM     19  C   UNL     1       3.244   2.869  20.217  0.00  0.00    +0.000 C 
ATOM     20  O   UNL     1       2.656   1.979  19.259  0.00  0.00    +0.000 OA
ATOM     21  C   UNL     1       3.437   1.887  18.062  0.00  0.00    +0.000 C 
ATOM     22  C   UNL     1       3.696   3.263  17.444  0.00  0.00    +0.000 C 
ENDBRANCH  16  17
ENDBRANCH   4  16
TORSDOF 4
ENDMDL
MODEL 9
REMARK VINA RESULT:      -6.7      0.899      1.379
REMARK  Name = 
REMARK  4 active torsions:
REMARK  status: ('A' for Active; 'I' for Inactive)
REMARK    1  A    between atoms: C_2  and  C_17
REMARK    2  A    between atoms: N_3  and  C_4
REMARK    3  A    between atoms: C_7  and  C_8
REMARK    4  A    between atoms: C_8  and  N_9
REMARK                            x       y       z     vdW  Elec       q    Type
REMARK                         _______ _______ _______ _____ _____    ______ ____
ROOT
ATOM      1  C   UNL     1       1.618   8.290  19.631  0.00  0.00    +0.000 A 
ATOM      2  C   UNL     1       2.010   8.595  18.319  0.00  0.00    +0.000 A 
ATOM      3  C   UNL     1       2.868   7.743  17.605  0.00  0.00    +0.000 A 
ATOM      4  C   UNL     1       3.350   6.558  18.184  0.00  0.00    +0.000 A 
ATOM      5  C   UNL     1       2.903   6.233  19.473  0.00  0.00    +0.000 A 
ATOM      6  C   UNL     1       2.070   7.095  20.193  0.00  0.00    +0.000 A 
ENDROOT
BRANCH   1   9
ATOM      7  O   UNL     1       1.232  11.212  19.548  0.00  0.00    +0.000 OA
ATOM      8  C   UNL     1       0.679  10.488  20.380  0.00  0.00    +0.000 C 
ATOM      9  N   UNL     1       0.806   9.111  20.434  0.00  0.00    +0.000 N 
ATOM     10  H   UNL     1       0.212   8.657  21.117  0.00  0.00    +0.000 HD
BRANCH   8  11
ATOM     11  C   UNL     1      -0.216  11.036  21.382  0.00  0.00    +0.000 A 
ATOM     12  C   UNL     1      -0.660  10.496  22.578  0.00  0.00    +0.000 A 
ATOM     13  C   UNL     1      -1.529  11.445  23.162  0.00  0.00    +0.000 A 
ATOM     14  C   UNL     1      -1.579  12.504  22.287  0.00  0.00    +0.000 A 
ATOM     15  O   UNL     1      -0.779  12.276  21.210  0.00  0.00    +0.000 OA
ENDBRANCH   8  11
ENDBRANCH   1   9
BRANCH   4  16
ATOM     16  C   UNL     1       4.250   5.599  17.432  0.00  0.00    +0.000 C 
BRANCH  16  17
ATOM     17  N   UNL     1       5.516   6.080  16.879  0.00  0.00    +0.000 NA
ATOM     18  C   UNL     1       5.912   5.625  15.545  0.00  0.00    +0.000 C 
ATOM     19  C   UNL     1       6.784   4.358  15.526  0.00  0.00    +0.000 C 
ATOM     20  O   UNL     1       7.905   4.455  16.414  0.00  0.00    +0.000 OA
ATOM     21  C   UNL     1       7.507   4.800  17.746  0.00  0.00    +0.000 C 
ATOM     22  C   UNL     1       6.673   6.083  17.776  0.00  0.00    +0.000 C 
ENDBRANCH  16  17
ENDBRANCH   4  16
TORSDOF 4
ENDMDL
