MODEL 1
REMARK VINA RESULT:      -7.5      0.000      0.000
REMARK  Name = 
REMARK  0 active torsions:
REMARK  status: ('A' for Active; 'I' for Inactive)
REMARK                            x       y       z     vdW  Elec       q    Type
REMARK                         _______ _______ _______ _____ _____    ______ ____
ROOT
ATOM      1  C   UNL     1       7.509   4.908  15.424  0.00  0.00    +0.000 A 
ATOM      2  C   UNL     1       6.396   5.079  14.608  0.00  0.00    +0.000 A 
ATOM      3  C   UNL     1       5.119   4.837  15.112  0.00  0.00    +0.000 A 
ATOM      4  C   UNL     1       4.970   4.426  16.450  0.00  0.00    +0.000 A 
ATOM      5  C   UNL     1       6.085   4.256  17.261  0.00  0.00    +0.000 A 
ATOM      6  C   UNL     1       7.380   4.494  16.765  0.00  0.00    +0.000 A 
ATOM      7  N   UNL     1       5.614   3.844  18.497  0.00  0.00    +0.000 N 
ATOM      8  C   UNL     1       4.224   3.746  18.513  0.00  0.00    +0.000 A 
ATOM      9  C   UNL     1       3.270   3.371  19.517  0.00  0.00    +0.000 A 
ATOM     10  C   UNL     1       1.914   3.412  19.129  0.00  0.00    +0.000 A 
ATOM     11  C   UNL     1       1.533   3.795  17.837  0.00  0.00    +0.000 A 
ATOM     12  C   UNL     1       2.472   4.148  16.889  0.00  0.00    +0.000 A 
ATOM     13  C   UNL     1       3.833   4.115  17.223  0.00  0.00    +0.000 A 
ATOM     14  C   UNL     1       0.766   3.045  20.021  0.00  0.00    +0.000 C 
ATOM     15  C   UNL     1       1.045   2.661  21.454  0.00  0.00    +0.000 C 
ATOM     16  C   UNL     1       2.493   2.563  21.899  0.00  0.00    +0.000 C 
ATOM     17  C   UNL     1       3.626   2.951  20.927  0.00  0.00    +0.000 C 
ATOM     18  H   UNL     1       6.203   3.639  19.294  0.00  0.00    +0.000 HD
ENDROOT
TORSDOF 0
ENDMDL
MODEL 2
REMARK VINA RESULT:      -7.5      1.223      6.094
REMARK  Name = 
REMARK  0 active torsions:
REMARK  status: ('A' for Active; 'I' for Inactive)
REMARK                            x       y       z     vdW  Elec       q    Type
REMARK                         _______ _______ _______ _____ _____    ______ ____
ROOT
ATOM      1  C   UNL     1       0.650   2.881  20.294  0.00  0.00    +0.000 A 
ATOM      2  C   UNL     1       1.487   3.551  21.180  0.00  0.00    +0.000 A 
ATOM      3  C   UNL     1       2.696   4.080  20.732  0.00  0.00    +0.000 A 
ATOM      4  C   UNL     1       3.056   3.933  19.379  0.00  0.00    +0.000 A 
ATOM      5  C   UNL     1       2.217   3.263  18.497  0.00  0.00    +0.000 A 
ATOM      6  C   UNL     1       0.994   2.723  18.936  0.00  0.00    +0.000 A 
ATOM      7  N   UNL     1       2.848   3.280  17.265  0.00  0.00    +0.000 N 
ATOM      8  C   UNL     1       4.070   3.947  17.318  0.00  0.00    +0.000 A 
ATOM      9  C   UNL     1       5.085   4.234  16.345  0.00  0.00    +0.000 A 
ATOM     10  C   UNL     1       6.200   4.963  16.810  0.00  0.00    +0.000 A 
ATOM     11  C   UNL     1       6.302   5.374  18.145  0.00  0.00    +0.000 A 
ATOM     12  C   UNL     1       5.313   5.081  19.062  0.00  0.00    +0.000 A 
ATOM     13  C   UNL     1       4.188   4.352  18.651  0.00  0.00    +0.000 A 
ATOM     14  C   UNL     1       7.373   5.350  15.960  0.00  0.00    +0.000 C 
ATOM     15  C   UNL     1       7.359   5.006  14.491  0.00  0.00    +0.000 C 
ATOM     16  C   UNL     1       6.197   4.185  13.960  0.00  0.00    +0.000 C 
ATOM     17  C   UNL     1       5.025   3.815  14.893  0.00  0.00    +0.000 C 
ATOM     18  H   UNL     1       2.470   2.863  16.424  0.00  0.00    +0.000 HD
ENDROOT
TORSDOF 0
ENDMDL
MODEL 3
REMARK VINA RESULT:      -7.5      4.633      5.208
REMARK  Name = 
REMARK  0 active torsions:
REMARK  status: ('A' for Active; 'I' for Inactive)
REMARK                            x       y       z     vdW  Elec       q    Type
REMARK                         _______ _______ _______ _____ _____    ______ ____
ROOT
ATOM      1  C   UNL     1       4.798   3.725  18.417  0.00  0.00    +0.000 A 
ATOM      2  C   UNL     1       4.800   4.456  17.233  0.00  0.00    +0.000 A 
ATOM      3  C   UNL     1       4.116   5.668  17.160  0.00  0.00    +0.000 A 
ATOM      4  C   UNL     1       3.430   6.144  18.294  0.00  0.00    +0.000 A 
ATOM      5  C   UNL     1       3.429   5.411  19.474  0.00  0.00    +0.000 A 
ATOM      6  C   UNL     1       4.115   4.185  19.561  0.00  0.00    +0.000 A 
ATOM      7  N   UNL     1       2.672   6.130  20.384  0.00  0.00    +0.000 N 
ATOM      8  C   UNL     1       2.184   7.312  19.830  0.00  0.00    +0.000 A 
ATOM      9  C   UNL     1       1.369   8.379  20.335  0.00  0.00    +0.000 A 
ATOM     10  C   UNL     1       1.099   9.432  19.435  0.00  0.00    +0.000 A 
ATOM     11  C   UNL     1       1.599   9.423  18.127  0.00  0.00    +0.000 A 
ATOM     12  C   UNL     1       2.378   8.382  17.665  0.00  0.00    +0.000 A 
ATOM     13  C   UNL     1       2.668   7.308  18.518  0.00  0.00    +0.000 A 
ATOM     14  C   UNL     1       0.258  10.629  19.760  0.00  0.00    +0.000 C 
ATOM     15  C   UNL     1      -0.299  10.777  21.155  0.00  0.00    +0.000 C 
ATOM     16  C   UNL     1      -0.067   9.646  22.141  0.00  0.00    +0.000 C 
ATOM     17  C   UNL     1       0.805   8.439  21.738  0.00  0.00    +0.000 C 
ATOM     18  H   UNL     1       2.493   5.837  21.336  0.00  0.00    +0.000 HD
ENDROOT
TORSDOF 0
ENDMDL
MODEL 4
REMARK VINA RESULT:      -7.2      4.419      5.403
REMARK  Name = 
REMARK  0 active torsions:
REMARK  status: ('A' for Active; 'I' for Inactive)
REMARK                            x       y       z     vdW  Elec       q    Type
REMARK                         _______ _______ _______ _____ _____    ______ ____
ROOT
ATOM      1  C   UNL     1       3.675   2.548  19.325  0.00  0.00    +0.000 A 
ATOM      2  C   UNL     1       3.872   3.043  18.041  0.00  0.00    +0.000 A 
ATOM      3  C   UNL     1       3.519   4.356  17.737  0.00  0.00    +0.000 A 
ATOM      4  C   UNL     1       2.968   5.173  18.742  0.00  0.00    +0.000 A 
ATOM      5  C   UNL     1       2.771   4.676  20.024  0.00  0.00    +0.000 A 
ATOM      6  C   UNL     1       3.121   3.351  20.344  0.00  0.00    +0.000 A 
ATOM      7  N   UNL     1       2.213   5.705  20.764  0.00  0.00    +0.000 N 
ATOM      8  C   UNL     1       2.047   6.859  20.001  0.00  0.00    +0.000 A 
ATOM      9  C   UNL     1       1.525   8.166  20.284  0.00  0.00    +0.000 A 
ATOM     10  C   UNL     1       1.539   9.083  19.211  0.00  0.00    +0.000 A 
ATOM     11  C   UNL     1       2.032   8.728  17.950  0.00  0.00    +0.000 A 
ATOM     12  C   UNL     1       2.524   7.462  17.703  0.00  0.00    +0.000 A 
ATOM     13  C   UNL     1       2.525   6.511  18.734  0.00  0.00    +0.000 A 
ATOM     14  C   UNL     1       1.027  10.490  19.294  0.00  0.00    +0.000 C 
ATOM     15  C   UNL     1       0.515  11.007  20.616  0.00  0.00    +0.000 C 
ATOM     16  C   UNL     1       0.443  10.039  21.783  0.00  0.00    +0.000 C 
ATOM     17  C   UNL     1       0.983   8.602  21.627  0.00  0.00    +0.000 C 
ATOM     18  H   UNL     1       1.958   5.633  21.740  0.00  0.00    +0.000 HD
ENDROOT
TORSDOF 0
ENDMDL
MODEL 5
REMARK VINA RESULT:      -7.2      5.680      7.542
REMARK  Name = 
REMARK  0 active torsions:
REMARK  status: ('A' for Active; 'I' for Inactive)
REMARK                            x       y       z     vdW  Elec       q    Type
REMARK                         _______ _______ _______ _____ _____    ______ ____
ROOT
ATOM      1  C   UNL     1      -0.918  10.682  23.041  0.00  0.00    +0.000 A 
ATOM      2  C   UNL     1      -0.945  11.472  21.897  0.00  0.00    +0.000 A 
ATOM      3  C   UNL     1      -0.264  11.063  20.751  0.00  0.00    +0.000 A 
ATOM      4  C   UNL     1       0.442   9.846  20.765  0.00  0.00    +0.000 A 
ATOM      5  C   UNL     1       0.467   9.060  21.910  0.00  0.00    +0.000 A 
ATOM      6  C   UNL     1      -0.214   9.461  23.074  0.00  0.00    +0.000 A 
ATOM      7  N   UNL     1       1.241   7.951  21.609  0.00  0.00    +0.000 N 
ATOM      8  C   UNL     1       1.716   7.992  20.300  0.00  0.00    +0.000 A 
ATOM      9  C   UNL     1       2.539   7.114  19.518  0.00  0.00    +0.000 A 
ATOM     10  C   UNL     1       2.790   7.520  18.190  0.00  0.00    +0.000 A 
ATOM     11  C   UNL     1       2.264   8.712  17.677  0.00  0.00    +0.000 A 
ATOM     12  C   UNL     1       1.479   9.541  18.452  0.00  0.00    +0.000 A 
ATOM     13  C   UNL     1       1.207   9.186  19.781  0.00  0.00    +0.000 A 
ATOM     14  C   UNL     1       3.635   6.755  17.216  0.00  0.00    +0.000 C 
ATOM     15  C   UNL     1       4.218   5.428  17.635  0.00  0.00    +0.000 C 
ATOM     16  C   UNL     1       4.008   4.976  19.070  0.00  0.00    +0.000 C 
ATOM     17  C   UNL     1       3.130   5.815  20.021  0.00  0.00    +0.000 C 
ATOM     18  H   UNL     1       1.439   7.200  22.258  0.00  0.00    +0.000 HD
ENDROOT
TORSDOF 0
ENDMDL
MODEL 6
REMARK VINA RESULT:      -7.2      4.247      5.948
REMARK  Name = 
REMARK  0 active torsions:
REMARK  status: ('A' for Active; 'I' for Inactive)
REMARK                            x       y       z     vdW  Elec       q    Type
REMARK                         _______ _______ _______ _____ _____    ______ ____
ROOT
ATOM      1  C   UNL     1       2.944   2.479  21.145  0.00  0.00    +0.000 A 
ATOM      2  C   UNL     1       3.595   2.502  19.916  0.00  0.00    +0.000 A 
ATOM      3  C   UNL     1       3.593   3.664  19.147  0.00  0.00    +0.000 A 
ATOM      4  C   UNL     1       2.933   4.810  19.629  0.00  0.00    +0.000 A 
ATOM      5  C   UNL     1       2.284   4.784  20.856  0.00  0.00    +0.000 A 
ATOM      6  C   UNL     1       2.276   3.617  21.642  0.00  0.00    +0.000 A 
ATOM      7  N   UNL     1       1.734   6.042  21.038  0.00  0.00    +0.000 N 
ATOM      8  C   UNL     1       2.012   6.887  19.965  0.00  0.00    +0.000 A 
ATOM      9  C   UNL     1       1.680   8.251  19.668  0.00  0.00    +0.000 A 
ATOM     10  C   UNL     1       2.174   8.757  18.447  0.00  0.00    +0.000 A 
ATOM     11  C   UNL     1       2.938   7.964  17.582  0.00  0.00    +0.000 A 
ATOM     12  C   UNL     1       3.239   6.653  17.889  0.00  0.00    +0.000 A 
ATOM     13  C   UNL     1       2.766   6.101  19.088  0.00  0.00    +0.000 A 
ATOM     14  C   UNL     1       1.928  10.148  17.945  0.00  0.00    +0.000 C 
ATOM     15  C   UNL     1       1.158  11.114  18.810  0.00  0.00    +0.000 C 
ATOM     16  C   UNL     1       0.572  10.597  20.113  0.00  0.00    +0.000 C 
ATOM     17  C   UNL     1       0.860   9.151  20.567  0.00  0.00    +0.000 C 
ATOM     18  H   UNL     1       1.197   6.319  21.850  0.00  0.00    +0.000 HD
ENDROOT
TORSDOF 0
ENDMDL
MODEL 7
REMARK VINA RESULT:      -7.1      5.635      6.157
REMARK  Name = 
REMARK  0 active torsions:
REMARK  status: ('A' for Active; 'I' for Inactive)
REMARK                            x       y       z     vdW  Elec       q    Type
REMARK                         _______ _______ _______ _____ _____    ______ ____
ROOT
ATOM      1  C   UNL     1       4.210   5.023  18.391  0.00  0.00    +0.000 A 
ATOM      2  C   UNL     1       4.122   5.897  17.313  0.00  0.00    +0.000 A 
ATOM      3  C   UNL     1       3.376   7.069  17.426  0.00  0.00    +0.000 A 
ATOM      4  C   UNL     1       2.721   7.358  18.638  0.00  0.00    +0.000 A 
ATOM      5  C   UNL     1       2.811   6.481  19.712  0.00  0.00    +0.000 A 
ATOM      6  C   UNL     1       3.559   5.294  19.611  0.00  0.00    +0.000 A 
ATOM      7  N   UNL     1       2.062   7.036  20.736  0.00  0.00    +0.000 N 
ATOM      8  C   UNL     1       1.491   8.250  20.360  0.00  0.00    +0.000 A 
ATOM      9  C   UNL     1       0.649   9.198  21.032  0.00  0.00    +0.000 A 
ATOM     10  C   UNL     1       0.286  10.341  20.287  0.00  0.00    +0.000 A 
ATOM     11  C   UNL     1       0.725  10.527  18.971  0.00  0.00    +0.000 A 
ATOM     12  C   UNL     1       1.532   9.597  18.346  0.00  0.00    +0.000 A 
ATOM     13  C   UNL     1       1.914   8.441  19.041  0.00  0.00    +0.000 A 
ATOM     14  C   UNL     1      -0.597  11.439  20.798  0.00  0.00    +0.000 C 
ATOM     15  C   UNL     1      -1.095  11.377  22.221  0.00  0.00    +0.000 C 
ATOM     16  C   UNL     1      -0.763  10.143  23.042  0.00  0.00    +0.000 C 
ATOM     17  C   UNL     1       0.148   9.047  22.451  0.00  0.00    +0.000 C 
ATOM     18  H   UNL     1       1.942   6.615  21.648  0.00  0.00    +0.000 HD
ENDROOT
TORSDOF 0
ENDMDL
MODEL 8
REMARK VINA RESULT:      -7.1      4.986      6.736
REMARK  Name = 
REMARK  0 active torsions:
REMARK  status: ('A' for Active; 'I' for Inactive)
REMARK                            x       y       z     vdW  Elec       q    Type
REMARK                         _______ _______ _______ _____ _____    ______ ____
ROOT
ATOM      1  C   UNL     1      -0.426  10.480  22.107  0.00  0.00    +0.000 A 
ATOM      2  C   UNL     1      -0.240  11.158  20.907  0.00  0.00    +0.000 A 
ATOM      3  C   UNL     1       0.506  10.574  19.885  0.00  0.00    +0.000 A 
ATOM      4  C   UNL     1       1.059   9.294  20.077  0.00  0.00    +0.000 A 
ATOM      5  C   UNL     1       0.871   8.620  21.277  0.00  0.00    +0.000 A 
ATOM      6  C   UNL     1       0.123   9.199  22.319  0.00  0.00    +0.000 A 
ATOM      7  N   UNL     1       1.537   7.412  21.159  0.00  0.00    +0.000 N 
ATOM      8  C   UNL     1       2.149   7.279  19.914  0.00  0.00    +0.000 A 
ATOM      9  C   UNL     1       2.942   6.249  19.305  0.00  0.00    +0.000 A 
ATOM     10  C   UNL     1       3.377   6.500  17.986  0.00  0.00    +0.000 A 
ATOM     11  C   UNL     1       3.052   7.689  17.322  0.00  0.00    +0.000 A 
ATOM     12  C   UNL     1       2.291   8.666  17.932  0.00  0.00    +0.000 A 
ATOM     13  C   UNL     1       1.841   8.467  19.245  0.00  0.00    +0.000 A 
ATOM     14  C   UNL     1       4.225   5.562  17.181  0.00  0.00    +0.000 C 
ATOM     15  C   UNL     1       4.601   4.225  17.771  0.00  0.00    +0.000 C 
ATOM     16  C   UNL     1       4.189   3.934  19.203  0.00  0.00    +0.000 C 
ATOM     17  C   UNL     1       3.321   4.947  19.976  0.00  0.00    +0.000 C 
ATOM     18  H   UNL     1       1.576   6.707  21.884  0.00  0.00    +0.000 HD
ENDROOT
TORSDOF 0
ENDMDL
MODEL 9
REMARK VINA RESULT:      -7.1      4.346      5.472
REMARK  Name = 
REMARK  0 active torsions:
REMARK  status: ('A' for Active; 'I' for Inactive)
REMARK                            x       y       z     vdW  Elec       q    Type
REMARK                         _______ _______ _______ _____ _____    ______ ____
ROOT
ATOM      1  C   UNL     1       0.682  10.951  19.935  0.00  0.00    +0.000 A 
ATOM      2  C   UNL     1       1.280  10.928  18.680  0.00  0.00    +0.000 A 
ATOM      3  C   UNL     1       1.890   9.763  18.219  0.00  0.00    +0.000 A 
ATOM      4  C   UNL     1       1.889   8.614  19.034  0.00  0.00    +0.000 A 
ATOM      5  C   UNL     1       1.292   8.642  20.287  0.00  0.00    +0.000 A 
ATOM      6  C   UNL     1       0.674   9.812  20.765  0.00  0.00    +0.000 A 
ATOM      7  N   UNL     1       1.465   7.381  20.834  0.00  0.00    +0.000 N 
ATOM      8  C   UNL     1       2.155   6.533  19.969  0.00  0.00    +0.000 A 
ATOM      9  C   UNL     1       2.581   5.166  20.055  0.00  0.00    +0.000 A 
ATOM     10  C   UNL     1       3.263   4.658  18.928  0.00  0.00    +0.000 A 
ATOM     11  C   UNL     1       3.507   5.452  17.801  0.00  0.00    +0.000 A 
ATOM     12  C   UNL     1       3.089   6.766  17.746  0.00  0.00    +0.000 A 
ATOM     13  C   UNL     1       2.414   7.320  18.843  0.00  0.00    +0.000 A 
ATOM     14  C   UNL     1       3.803   3.264  18.823  0.00  0.00    +0.000 C 
ATOM     15  C   UNL     1       3.561   2.297  19.955  0.00  0.00    +0.000 C 
ATOM     16  C   UNL     1       2.869   2.815  21.203  0.00  0.00    +0.000 C 
ATOM     17  C   UNL     1       2.343   4.265  21.247  0.00  0.00    +0.000 C 
ATOM     18  H   UNL     1       1.132   7.104  21.748  0.00  0.00    +0.000 HD
ENDROOT
TORSDOF 0
ENDMDL
