MODEL 1
REMARK VINA RESULT:      -7.3      0.000      0.000
REMARK  Name = 
REMARK  9 active torsions:
REMARK  status: ('A' for Active; 'I' for Inactive)
REMARK    1  A    between atoms: C_1  and  C_2
REMARK    2  A    between atoms: C_2  and  C_3
REMARK    3  A    between atoms: C_3  and  N_4
REMARK    4  A    between atoms: N_4  and  N_5
REMARK    5  A    between atoms: C_6  and  C_8
REMARK    6  A    between atoms: C_11  and  C_12
REMARK    7  A    between atoms: C_12  and  N_13
REMARK    8  A    between atoms: N_13  and  C_14
REMARK    9  A    between atoms: C_14  and  C_15
REMARK                            x       y       z     vdW  Elec       q    Type
REMARK                         _______ _______ _______ _____ _____    ______ ____
ROOT
ATOM      1  C   UNL     1       5.686   5.433  17.325  0.00  0.00    +0.000 A 
ATOM      2  C   UNL     1       5.824   5.340  18.712  0.00  0.00    +0.000 A 
ATOM      3  C   UNL     1       4.767   5.653  19.564  0.00  0.00    +0.000 A 
ATOM      4  C   UNL     1       3.547   6.099  19.057  0.00  0.00    +0.000 A 
ATOM      5  C   UNL     1       3.401   6.188  17.665  0.00  0.00    +0.000 A 
ATOM      6  C   UNL     1       4.454   5.849  16.801  0.00  0.00    +0.000 A 
ENDROOT
BRANCH   1   8
ATOM      7  N   UNL     1       6.764   5.557  15.105  0.00  0.00    +0.000 N 
ATOM      8  C   UNL     1       6.852   5.122  16.433  0.00  0.00    +0.000 C 
ATOM      9  O   UNL     1       7.827   4.517  16.874  0.00  0.00    +0.000 OA
ATOM     10  H   UNL     1       6.127   6.300  14.847  0.00  0.00    +0.000 HD
BRANCH   7  11
ATOM     11  N   UNL     1       7.886   5.388  14.258  0.00  0.00    +0.000 NA
ATOM     12  H   UNL     1       8.513   4.741  14.747  0.00  0.00    +0.000 HD
BRANCH  11  13
ATOM     13  C   UNL     1       7.501   4.836  12.951  0.00  0.00    +0.000 C 
BRANCH  13  15
ATOM     14  C   UNL     1       6.140   2.925  11.968  0.00  0.00    +0.000 C 
ATOM     15  C   UNL     1       6.303   3.895  13.132  0.00  0.00    +0.000 C 
ENDBRANCH  13  15
ENDBRANCH  11  13
ENDBRANCH   7  11
ENDBRANCH   1   8
BRANCH   4  16
ATOM     16  C   UNL     1       2.428   6.439  20.019  0.00  0.00    +0.000 C 
BRANCH  16  17
ATOM     17  N   UNL     1       2.279   5.415  21.054  0.00  0.00    +0.000 NA
ATOM     18  H   UNL     1       1.891   5.841  21.895  0.00  0.00    +0.000 HD
BRANCH  17  19
ATOM     19  C   UNL     1       1.382   4.342  20.621  0.00  0.00    +0.000 C 
BRANCH  19  20
ATOM     20  C   UNL     1       2.116   3.339  19.759  0.00  0.00    +0.000 A 
ATOM     21  C   UNL     1       3.246   2.668  20.248  0.00  0.00    +0.000 A 
ATOM     22  C   UNL     1       3.943   1.767  19.440  0.00  0.00    +0.000 A 
ATOM     23  C   UNL     1       3.512   1.520  18.138  0.00  0.00    +0.000 A 
ATOM     24  C   UNL     1       2.381   2.165  17.646  0.00  0.00    +0.000 A 
ATOM     25  C   UNL     1       1.683   3.067  18.452  0.00  0.00    +0.000 A 
ENDBRANCH  19  20
ENDBRANCH  17  19
ENDBRANCH  16  17
ENDBRANCH   4  16
TORSDOF 8
ENDMDL
MODEL 2
REMARK VINA RESULT:      -7.2      0.449      1.116
REMARK  Name = 
REMARK  9 active torsions:
REMARK  status: ('A' for Active; 'I' for Inactive)
REMARK    1  A    between atoms: C_1  and  C_2
REMARK    2  A    between atoms: C_2  and  C_3
REMARK    3  A    between atoms: C_3  and  N_4
REMARK    4  A    between atoms: N_4  and  N_5
REMARK    5  A    between atoms: C_6  and  C_8
REMARK    6  A    between atoms: C_11  and  C_12
REMARK    7  A    between atoms: C_12  and  N_13
REMARK    8  A    between atoms: N_13  and  C_14
REMARK    9  A    between atoms: C_14  and  C_15
REMARK                            x       y       z     vdW  Elec       q    Type
REMARK                         _______ _______ _______ _____ _____    ______ ____
ROOT
ATOM      1  C   UNL     1       5.590   5.528  17.260  0.00  0.00    +0.000 A 
ATOM      2  C   UNL     1       4.415   6.151  16.832  0.00  0.00    +0.000 A 
ATOM      3  C   UNL     1       3.402   6.476  17.732  0.00  0.00    +0.000 A 
ATOM      4  C   UNL     1       3.519   6.160  19.086  0.00  0.00    +0.000 A 
ATOM      5  C   UNL     1       4.700   5.541  19.522  0.00  0.00    +0.000 A 
ATOM      6  C   UNL     1       5.734   5.235  18.623  0.00  0.00    +0.000 A 
ENDROOT
BRANCH   1   8
ATOM      7  N   UNL     1       6.340   5.355  14.912  0.00  0.00    +0.000 N 
ATOM      8  C   UNL     1       6.649   5.159  16.263  0.00  0.00    +0.000 C 
ATOM      9  O   UNL     1       7.730   4.710  16.642  0.00  0.00    +0.000 OA
ATOM     10  H   UNL     1       5.604   5.995  14.640  0.00  0.00    +0.000 HD
BRANCH   7  11
ATOM     11  N   UNL     1       7.348   5.130  13.944  0.00  0.00    +0.000 NA
ATOM     12  H   UNL     1       8.186   4.859  14.468  0.00  0.00    +0.000 HD
BRANCH  11  13
ATOM     13  C   UNL     1       6.967   4.065  13.003  0.00  0.00    +0.000 C 
BRANCH  13  15
ATOM     14  C   UNL     1       4.881   3.244  11.803  0.00  0.00    +0.000 C 
ATOM     15  C   UNL     1       5.453   3.834  13.086  0.00  0.00    +0.000 C 
ENDBRANCH  13  15
ENDBRANCH  11  13
ENDBRANCH   7  11
ENDBRANCH   1   8
BRANCH   4  16
ATOM     16  C   UNL     1       2.391   6.521  20.028  0.00  0.00    +0.000 C 
BRANCH  16  17
ATOM     17  N   UNL     1       2.156   5.466  21.014  0.00  0.00    +0.000 NA
ATOM     18  H   UNL     1       1.726   5.872  21.845  0.00  0.00    +0.000 HD
BRANCH  17  19
ATOM     19  C   UNL     1       1.263   4.431  20.489  0.00  0.00    +0.000 C 
BRANCH  19  20
ATOM     20  C   UNL     1       2.030   3.428  19.658  0.00  0.00    +0.000 A 
ATOM     21  C   UNL     1       3.093   2.703  20.214  0.00  0.00    +0.000 A 
ATOM     22  C   UNL     1       3.823   1.800  19.436  0.00  0.00    +0.000 A 
ATOM     23  C   UNL     1       3.490   1.606  18.097  0.00  0.00    +0.000 A 
ATOM     24  C   UNL     1       2.425   2.306  17.536  0.00  0.00    +0.000 A 
ATOM     25  C   UNL     1       1.695   3.209  18.312  0.00  0.00    +0.000 A 
ENDBRANCH  19  20
ENDBRANCH  17  19
ENDBRANCH  16  17
ENDBRANCH   4  16
TORSDOF 8
ENDMDL
MODEL 3
REMARK VINA RESULT:      -7.1      1.817      2.654
REMARK  Name = 
REMARK  9 active torsions:
REMARK  status: ('A' for Active; 'I' for Inactive)
REMARK    1  A    between atoms: C_1  and  C_2
REMARK    2  A    between atoms: C_2  and  C_3
REMARK    3  A    between atoms: C_3  and  N_4
REMARK    4  A    between atoms: N_4  and  N_5
REMARK    5  A    between atoms: C_6  and  C_8
REMARK    6  A    between atoms: C_11  and  C_12
REMARK    7  A    between atoms: C_12  and  N_13
REMARK    8  A    between atoms: N_13  and  C_14
REMARK    9  A    between atoms: C_14  and  C_15
REMARK                            x       y       z     vdW  Elec       q    Type
REMARK                         _______ _______ _______ _____ _____    ______ ____
ROOT
ATOM      1  C   UNL     1       5.905   4.904  15.395  0.00  0.00    +0.000 A 
ATOM      2  C   UNL     1       5.647   3.908  16.340  0.00  0.00    +0.000 A 
ATOM      3  C   UNL     1       5.101   4.217  17.584  0.00  0.00    +0.000 A 
ATOM      4  C   UNL     1       4.823   5.538  17.935  0.00  0.00    +0.000 A 
ATOM      5  C   UNL     1       5.074   6.542  16.988  0.00  0.00    +0.000 A 
ATOM      6  C   UNL     1       5.601   6.233  15.724  0.00  0.00    +0.000 A 
ENDROOT
BRANCH   1   8
ATOM      7  N   UNL     1       6.017   3.415  13.427  0.00  0.00    +0.000 N 
ATOM      8  C   UNL     1       6.526   4.546  14.077  0.00  0.00    +0.000 C 
ATOM      9  O   UNL     1       7.434   5.231  13.612  0.00  0.00    +0.000 OA
ATOM     10  H   UNL     1       5.096   3.061  13.654  0.00  0.00    +0.000 HD
BRANCH   7  11
ATOM     11  N   UNL     1       6.492   3.105  12.130  0.00  0.00    +0.000 NA
ATOM     12  H   UNL     1       7.367   2.589  12.266  0.00  0.00    +0.000 HD
BRANCH  11  13
ATOM     13  C   UNL     1       5.528   2.287  11.380  0.00  0.00    +0.000 C 
BRANCH  13  15
ATOM     14  C   UNL     1       3.752   3.791  10.355  0.00  0.00    +0.000 C 
ATOM     15  C   UNL     1       4.127   2.893  11.527  0.00  0.00    +0.000 C 
ENDBRANCH  13  15
ENDBRANCH  11  13
ENDBRANCH   7  11
ENDBRANCH   1   8
BRANCH   4  16
ATOM     16  C   UNL     1       4.240   5.832  19.301  0.00  0.00    +0.000 C 
BRANCH  16  17
ATOM     17  N   UNL     1       3.034   6.655  19.205  0.00  0.00    +0.000 NA
ATOM     18  H   UNL     1       2.662   6.597  18.257  0.00  0.00    +0.000 HD
BRANCH  17  19
ATOM     19  C   UNL     1       2.000   6.203  20.138  0.00  0.00    +0.000 C 
BRANCH  19  20
ATOM     20  C   UNL     1       1.744   4.721  19.982  0.00  0.00    +0.000 A 
ATOM     21  C   UNL     1       1.410   4.181  18.732  0.00  0.00    +0.000 A 
ATOM     22  C   UNL     1       1.142   2.816  18.595  0.00  0.00    +0.000 A 
ATOM     23  C   UNL     1       1.215   1.977  19.705  0.00  0.00    +0.000 A 
ATOM     24  C   UNL     1       1.564   2.497  20.949  0.00  0.00    +0.000 A 
ATOM     25  C   UNL     1       1.831   3.860  21.087  0.00  0.00    +0.000 A 
ENDBRANCH  19  20
ENDBRANCH  17  19
ENDBRANCH  16  17
ENDBRANCH   4  16
TORSDOF 8
ENDMDL
MODEL 4
REMARK VINA RESULT:      -7.1      1.857      2.792
REMARK  Name = 
REMARK  9 active torsions:
REMARK  status: ('A' for Active; 'I' for Inactive)
REMARK    1  A    between atoms: C_1  and  C_2
REMARK    2  A    between atoms: C_2  and  C_3
REMARK    3  A    between atoms: C_3  and  N_4
REMARK    4  A    between atoms: N_4  and  N_5
REMARK    5  A    between atoms: C_6  and  C_8
REMARK    6  A    between atoms: C_11  and  C_12
REMARK    7  A    between atoms: C_12  and  N_13
REMARK    8  A    between atoms: N_13  and  C_14
REMARK    9  A    between atoms: C_14  and  C_15
REMARK                            x       y       z     vdW  Elec       q    Type
REMARK                         _______ _______ _______ _____ _____    ______ ____
ROOT
ATOM      1  C   UNL     1       6.037   4.817  15.468  0.00  0.00    +0.000 A 
ATOM      2  C   UNL     1       5.825   6.144  15.849  0.00  0.00    +0.000 A 
ATOM      3  C   UNL     1       5.281   6.459  17.093  0.00  0.00    +0.000 A 
ATOM      4  C   UNL     1       4.906   5.455  17.984  0.00  0.00    +0.000 A 
ATOM      5  C   UNL     1       5.123   4.121  17.609  0.00  0.00    +0.000 A 
ATOM      6  C   UNL     1       5.693   3.799  16.368  0.00  0.00    +0.000 A 
ENDROOT
BRANCH   1   8
ATOM      7  N   UNL     1       6.143   3.329  13.498  0.00  0.00    +0.000 N 
ATOM      8  C   UNL     1       6.591   4.507  14.108  0.00  0.00    +0.000 C 
ATOM      9  O   UNL     1       7.397   5.270  13.577  0.00  0.00    +0.000 OA
ATOM     10  H   UNL     1       5.278   2.894  13.792  0.00  0.00    +0.000 HD
BRANCH   7  11
ATOM     11  N   UNL     1       6.549   3.055  12.170  0.00  0.00    +0.000 NA
ATOM     12  H   UNL     1       7.335   2.401  12.245  0.00  0.00    +0.000 HD
BRANCH  11  13
ATOM     13  C   UNL     1       5.461   2.457  11.383  0.00  0.00    +0.000 C 
BRANCH  13  15
ATOM     14  C   UNL     1       3.471   3.569  10.256  0.00  0.00    +0.000 C 
ATOM     15  C   UNL     1       4.185   3.286  11.571  0.00  0.00    +0.000 C 
ENDBRANCH  13  15
ENDBRANCH  11  13
ENDBRANCH   7  11
ENDBRANCH   1   8
BRANCH   4  16
ATOM     16  C   UNL     1       4.309   5.840  19.322  0.00  0.00    +0.000 C 
BRANCH  16  17
ATOM     17  N   UNL     1       3.167   6.739  19.161  0.00  0.00    +0.000 NA
ATOM     18  H   UNL     1       3.464   7.575  18.659  0.00  0.00    +0.000 HD
BRANCH  17  19
ATOM     19  C   UNL     1       2.086   6.104  18.404  0.00  0.00    +0.000 C 
BRANCH  19  20
ATOM     20  C   UNL     1       1.737   4.754  18.991  0.00  0.00    +0.000 A 
ATOM     21  C   UNL     1       1.592   3.631  18.166  0.00  0.00    +0.000 A 
ATOM     22  C   UNL     1       1.238   2.392  18.706  0.00  0.00    +0.000 A 
ATOM     23  C   UNL     1       1.035   2.262  20.078  0.00  0.00    +0.000 A 
ATOM     24  C   UNL     1       1.194   3.365  20.912  0.00  0.00    +0.000 A 
ATOM     25  C   UNL     1       1.547   4.604  20.374  0.00  0.00    +0.000 A 
ENDBRANCH  19  20
ENDBRANCH  17  19
ENDBRANCH  16  17
ENDBRANCH   4  16
TORSDOF 8
ENDMDL
MODEL 5
REMARK VINA RESULT:      -7.0      1.692      2.075
REMARK  Name = 
REMARK  9 active torsions:
REMARK  status: ('A' for Active; 'I' for Inactive)
REMARK    1  A    between atoms: C_1  and  C_2
REMARK    2  A    between atoms: C_2  and  C_3
REMARK    3  A    between atoms: C_3  and  N_4
REMARK    4  A    between atoms: N_4  and  N_5
REMARK    5  A    between atoms: C_6  and  C_8
REMARK    6  A    between atoms: C_11  and  C_12
REMARK    7  A    between atoms: C_12  and  N_13
REMARK    8  A    between atoms: N_13  and  C_14
REMARK    9  A    between atoms: C_14  and  C_15
REMARK                            x       y       z     vdW  Elec       q    Type
REMARK                         _______ _______ _______ _____ _____    ______ ____
ROOT
ATOM      1  C   UNL     1       5.325   5.180  15.871  0.00  0.00    +0.000 A 
ATOM      2  C   UNL     1       5.330   6.550  16.144  0.00  0.00    +0.000 A 
ATOM      3  C   UNL     1       4.461   7.101  17.083  0.00  0.00    +0.000 A 
ATOM      4  C   UNL     1       3.538   6.303  17.758  0.00  0.00    +0.000 A 
ATOM      5  C   UNL     1       3.532   4.926  17.492  0.00  0.00    +0.000 A 
ATOM      6  C   UNL     1       4.423   4.362  16.566  0.00  0.00    +0.000 A 
ENDROOT
BRANCH   1   8
ATOM      7  N   UNL     1       5.658   3.893  13.787  0.00  0.00    +0.000 N 
ATOM      8  C   UNL     1       6.249   4.619  14.829  0.00  0.00    +0.000 C 
ATOM      9  O   UNL     1       7.461   4.806  14.908  0.00  0.00    +0.000 OA
ATOM     10  H   UNL     1       4.676   4.012  13.569  0.00  0.00    +0.000 HD
BRANCH   7  11
ATOM     11  N   UNL     1       6.475   3.444  12.723  0.00  0.00    +0.000 NA
ATOM     12  H   UNL     1       7.241   2.919  13.158  0.00  0.00    +0.000 HD
BRANCH  11  13
ATOM     13  C   UNL     1       5.730   2.583  11.793  0.00  0.00    +0.000 C 
BRANCH  13  15
ATOM     14  C   UNL     1       6.195   0.141  11.254  0.00  0.00    +0.000 C 
ATOM     15  C   UNL     1       6.694   1.577  11.152  0.00  0.00    +0.000 C 
ENDBRANCH  13  15
ENDBRANCH  11  13
ENDBRANCH   7  11
ENDBRANCH   1   8
BRANCH   4  16
ATOM     16  C   UNL     1       2.604   6.944  18.763  0.00  0.00    +0.000 C 
BRANCH  16  17
ATOM     17  N   UNL     1       2.910   6.517  20.129  0.00  0.00    +0.000 NA
ATOM     18  H   UNL     1       3.086   7.338  20.707  0.00  0.00    +0.000 HD
BRANCH  17  19
ATOM     19  C   UNL     1       1.799   5.766  20.717  0.00  0.00    +0.000 C 
BRANCH  19  20
ATOM     20  C   UNL     1       1.816   4.326  20.253  0.00  0.00    +0.000 A 
ATOM     21  C   UNL     1       2.909   3.496  20.540  0.00  0.00    +0.000 A 
ATOM     22  C   UNL     1       2.938   2.176  20.082  0.00  0.00    +0.000 A 
ATOM     23  C   UNL     1       1.871   1.670  19.343  0.00  0.00    +0.000 A 
ATOM     24  C   UNL     1       0.771   2.478  19.067  0.00  0.00    +0.000 A 
ATOM     25  C   UNL     1       0.741   3.798  19.522  0.00  0.00    +0.000 A 
ENDBRANCH  19  20
ENDBRANCH  17  19
ENDBRANCH  16  17
ENDBRANCH   4  16
TORSDOF 8
ENDMDL
MODEL 6
REMARK VINA RESULT:      -6.9      1.833      2.699
REMARK  Name = 
REMARK  9 active torsions:
REMARK  status: ('A' for Active; 'I' for Inactive)
REMARK    1  A    between atoms: C_1  and  C_2
REMARK    2  A    between atoms: C_2  and  C_3
REMARK    3  A    between atoms: C_3  and  N_4
REMARK    4  A    between atoms: N_4  and  N_5
REMARK    5  A    between atoms: C_6  and  C_8
REMARK    6  A    between atoms: C_11  and  C_12
REMARK    7  A    between atoms: C_12  and  N_13
REMARK    8  A    between atoms: N_13  and  C_14
REMARK    9  A    between atoms: C_14  and  C_15
REMARK                            x       y       z     vdW  Elec       q    Type
REMARK                         _______ _______ _______ _____ _____    ______ ____
ROOT
ATOM      1  C   UNL     1       5.985   4.922  15.443  0.00  0.00    +0.000 A 
ATOM      2  C   UNL     1       6.046   4.025  16.512  0.00  0.00    +0.000 A 
ATOM      3  C   UNL     1       5.515   4.351  17.759  0.00  0.00    +0.000 A 
ATOM      4  C   UNL     1       4.933   5.597  17.984  0.00  0.00    +0.000 A 
ATOM      5  C   UNL     1       4.863   6.500  16.913  0.00  0.00    +0.000 A 
ATOM      6  C   UNL     1       5.373   6.167  15.648  0.00  0.00    +0.000 A 
ENDROOT
BRANCH   1   8
ATOM      7  N   UNL     1       6.112   3.399  13.501  0.00  0.00    +0.000 N 
ATOM      8  C   UNL     1       6.596   4.557  14.122  0.00  0.00    +0.000 C 
ATOM      9  O   UNL     1       7.475   5.261  13.629  0.00  0.00    +0.000 OA
ATOM     10  H   UNL     1       5.206   3.021  13.750  0.00  0.00    +0.000 HD
BRANCH   7  11
ATOM     11  N   UNL     1       6.576   3.079  12.203  0.00  0.00    +0.000 NA
ATOM     12  H   UNL     1       7.518   2.695  12.327  0.00  0.00    +0.000 HD
BRANCH  11  13
ATOM     13  C   UNL     1       5.706   2.094  11.543  0.00  0.00    +0.000 C 
BRANCH  13  15
ATOM     14  C   UNL     1       6.092  -0.410  11.319  0.00  0.00    +0.000 C 
ATOM     15  C   UNL     1       6.570   0.984  10.932  0.00  0.00    +0.000 C 
ENDBRANCH  13  15
ENDBRANCH  11  13
ENDBRANCH   7  11
ENDBRANCH   1   8
BRANCH   4  16
ATOM     16  C   UNL     1       4.377   5.915  19.356  0.00  0.00    +0.000 C 
BRANCH  16  17
ATOM     17  N   UNL     1       3.120   6.658  19.268  0.00  0.00    +0.000 NA
ATOM     18  H   UNL     1       3.308   7.596  18.914  0.00  0.00    +0.000 HD
BRANCH  17  19
ATOM     19  C   UNL     1       2.172   6.003  18.365  0.00  0.00    +0.000 C 
BRANCH  19  20
ATOM     20  C   UNL     1       1.794   4.633  18.881  0.00  0.00    +0.000 A 
ATOM     21  C   UNL     1       1.847   3.513  18.040  0.00  0.00    +0.000 A 
ATOM     22  C   UNL     1       1.467   2.253  18.508  0.00  0.00    +0.000 A 
ATOM     23  C   UNL     1       1.039   2.098  19.826  0.00  0.00    +0.000 A 
ATOM     24  C   UNL     1       0.999   3.199  20.677  0.00  0.00    +0.000 A 
ATOM     25  C   UNL     1       1.378   4.459  20.210  0.00  0.00    +0.000 A 
ENDBRANCH  19  20
ENDBRANCH  17  19
ENDBRANCH  16  17
ENDBRANCH   4  16
TORSDOF 8
ENDMDL
MODEL 7
REMARK VINA RESULT:      -6.8      1.929      2.994
REMARK  Name = 
REMARK  9 active torsions:
REMARK  status: ('A' for Active; 'I' for Inactive)
REMARK    1  A    between atoms: C_1  and  C_2
REMARK    2  A    between atoms: C_2  and  C_3
REMARK    3  A    between atoms: C_3  and  N_4
REMARK    4  A    between atoms: N_4  and  N_5
REMARK    5  A    between atoms: C_6  and  C_8
REMARK    6  A    between atoms: C_11  and  C_12
REMARK    7  A    between atoms: C_12  and  N_13
REMARK    8  A    between atoms: N_13  and  C_14
REMARK    9  A    between atoms: C_14  and  C_15
REMARK                            x       y       z     vdW  Elec       q    Type
REMARK                         _______ _______ _______ _____ _____    ______ ____
ROOT
ATOM      1  C   UNL     1       6.320   4.538  15.309  0.00  0.00    +0.000 A 
ATOM      2  C   UNL     1       7.261   4.515  16.341  0.00  0.00    +0.000 A 
ATOM      3  C   UNL     1       6.888   4.748  17.663  0.00  0.00    +0.000 A 
ATOM      4  C   UNL     1       5.564   5.041  17.992  0.00  0.00    +0.000 A 
ATOM      5  C   UNL     1       4.614   5.059  16.960  0.00  0.00    +0.000 A 
ATOM      6  C   UNL     1       4.981   4.800  15.630  0.00  0.00    +0.000 A 
ENDROOT
BRANCH   1   8
ATOM      7  N   UNL     1       6.337   3.131  13.277  0.00  0.00    +0.000 N 
ATOM      8  C   UNL     1       6.757   4.318  13.890  0.00  0.00    +0.000 C 
ATOM      9  O   UNL     1       7.448   5.158  13.316  0.00  0.00    +0.000 OA
ATOM     10  H   UNL     1       5.539   2.621  13.636  0.00  0.00    +0.000 HD
BRANCH   7  11
ATOM     11  N   UNL     1       6.628   2.935  11.906  0.00  0.00    +0.000 NA
ATOM     12  H   UNL     1       7.408   2.271  11.876  0.00  0.00    +0.000 HD
BRANCH  11  13
ATOM     13  C   UNL     1       5.470   2.395  11.178  0.00  0.00    +0.000 C 
BRANCH  13  15
ATOM     14  C   UNL     1       3.367   3.517  10.291  0.00  0.00    +0.000 C 
ATOM     15  C   UNL     1       4.227   3.228  11.515  0.00  0.00    +0.000 C 
ENDBRANCH  13  15
ENDBRANCH  11  13
ENDBRANCH   7  11
ENDBRANCH   1   8
BRANCH   4  16
ATOM     16  C   UNL     1       5.203   5.297  19.440  0.00  0.00    +0.000 C 
BRANCH  16  17
ATOM     17  N   UNL     1       5.328   4.084  20.248  0.00  0.00    +0.000 NA
ATOM     18  H   UNL     1       4.852   4.222  21.139  0.00  0.00    +0.000 HD
BRANCH  17  19
ATOM     19  C   UNL     1       4.727   2.929  19.577  0.00  0.00    +0.000 C 
BRANCH  19  20
ATOM     20  C   UNL     1       3.226   2.918  19.762  0.00  0.00    +0.000 A 
ATOM     21  C   UNL     1       2.371   2.791  18.659  0.00  0.00    +0.000 A 
ATOM     22  C   UNL     1       0.984   2.814  18.828  0.00  0.00    +0.000 A 
ATOM     23  C   UNL     1       0.439   2.954  20.103  0.00  0.00    +0.000 A 
ATOM     24  C   UNL     1       1.277   3.062  21.209  0.00  0.00    +0.000 A 
ATOM     25  C   UNL     1       2.663   3.041  21.042  0.00  0.00    +0.000 A 
ENDBRANCH  19  20
ENDBRANCH  17  19
ENDBRANCH  16  17
ENDBRANCH   4  16
TORSDOF 8
ENDMDL
MODEL 8
REMARK VINA RESULT:      -6.7      2.889      4.673
REMARK  Name = 
REMARK  9 active torsions:
REMARK  status: ('A' for Active; 'I' for Inactive)
REMARK    1  A    between atoms: C_1  and  C_2
REMARK    2  A    between atoms: C_2  and  C_3
REMARK    3  A    between atoms: C_3  and  N_4
REMARK    4  A    between atoms: N_4  and  N_5
REMARK    5  A    between atoms: C_6  and  C_8
REMARK    6  A    between atoms: C_11  and  C_12
REMARK    7  A    between atoms: C_12  and  N_13
REMARK    8  A    between atoms: N_13  and  C_14
REMARK    9  A    between atoms: C_14  and  C_15
REMARK                            x       y       z     vdW  Elec       q    Type
REMARK                         _______ _______ _______ _____ _____    ______ ____
ROOT
ATOM      1  C   UNL     1       6.137   4.656  18.685  0.00  0.00    +0.000 A 
ATOM      2  C   UNL     1       5.454   3.870  19.616  0.00  0.00    +0.000 A 
ATOM      3  C   UNL     1       4.434   3.006  19.222  0.00  0.00    +0.000 A 
ATOM      4  C   UNL     1       4.043   2.923  17.886  0.00  0.00    +0.000 A 
ATOM      5  C   UNL     1       4.730   3.705  16.945  0.00  0.00    +0.000 A 
ATOM      6  C   UNL     1       5.775   4.558  17.334  0.00  0.00    +0.000 A 
ENDROOT
BRANCH   1   8
ATOM      7  N   UNL     1       7.542   6.646  18.271  0.00  0.00    +0.000 N 
ATOM      8  C   UNL     1       7.207   5.602  19.143  0.00  0.00    +0.000 C 
ATOM      9  O   UNL     1       7.746   5.448  20.237  0.00  0.00    +0.000 OA
ATOM     10  H   UNL     1       6.898   6.938  17.546  0.00  0.00    +0.000 HD
BRANCH   7  11
ATOM     11  N   UNL     1       8.463   7.627  18.708  0.00  0.00    +0.000 NA
ATOM     12  H   UNL     1       9.393   7.267  18.471  0.00  0.00    +0.000 HD
BRANCH  11  13
ATOM     13  C   UNL     1       8.233   8.920  18.046  0.00  0.00    +0.000 C 
BRANCH  13  15
ATOM     14  C   UNL     1       9.679  11.010  17.969  0.00  0.00    +0.000 C 
ATOM     15  C   UNL     1       8.917  10.031  18.852  0.00  0.00    +0.000 C 
ENDBRANCH  13  15
ENDBRANCH  11  13
ENDBRANCH   7  11
ENDBRANCH   1   8
BRANCH   4  16
ATOM     16  C   UNL     1       2.923   1.980  17.502  0.00  0.00    +0.000 C 
BRANCH  16  17
ATOM     17  N   UNL     1       1.957   1.823  18.589  0.00  0.00    +0.000 NA
ATOM     18  H   UNL     1       2.432   1.948  19.482  0.00  0.00    +0.000 HD
BRANCH  17  19
ATOM     19  C   UNL     1       0.879   2.809  18.495  0.00  0.00    +0.000 C 
BRANCH  19  20
ATOM     20  C   UNL     1       1.360   4.177  18.925  0.00  0.00    +0.000 A 
ATOM     21  C   UNL     1       1.724   5.139  17.973  0.00  0.00    +0.000 A 
ATOM     22  C   UNL     1       2.200   6.390  18.371  0.00  0.00    +0.000 A 
ATOM     23  C   UNL     1       2.308   6.696  19.726  0.00  0.00    +0.000 A 
ATOM     24  C   UNL     1       1.933   5.757  20.683  0.00  0.00    +0.000 A 
ATOM     25  C   UNL     1       1.458   4.505  20.286  0.00  0.00    +0.000 A 
ENDBRANCH  19  20
ENDBRANCH  17  19
ENDBRANCH  16  17
ENDBRANCH   4  16
TORSDOF 8
ENDMDL
MODEL 9
REMARK VINA RESULT:      -6.6      4.060      6.305
REMARK  Name = 
REMARK  9 active torsions:
REMARK  status: ('A' for Active; 'I' for Inactive)
REMARK    1  A    between atoms: C_1  and  C_2
REMARK    2  A    between atoms: C_2  and  C_3
REMARK    3  A    between atoms: C_3  and  N_4
REMARK    4  A    between atoms: N_4  and  N_5
REMARK    5  A    between atoms: C_6  and  C_8
REMARK    6  A    between atoms: C_11  and  C_12
REMARK    7  A    between atoms: C_12  and  N_13
REMARK    8  A    between atoms: N_13  and  C_14
REMARK    9  A    between atoms: C_14  and  C_15
REMARK                            x       y       z     vdW  Elec       q    Type
REMARK                         _______ _______ _______ _____ _____    ______ ____
ROOT
ATOM      1  C   UNL     1       2.223   8.043  18.745  0.00  0.00    +0.000 A 
ATOM      2  C   UNL     1       2.384   7.030  19.694  0.00  0.00    +0.000 A 
ATOM      3  C   UNL     1       3.289   5.990  19.492  0.00  0.00    +0.000 A 
ATOM      4  C   UNL     1       4.041   5.913  18.320  0.00  0.00    +0.000 A 
ATOM      5  C   UNL     1       3.888   6.930  17.367  0.00  0.00    +0.000 A 
ATOM      6  C   UNL     1       2.996   7.994  17.576  0.00  0.00    +0.000 A 
ENDROOT
BRANCH   1   8
ATOM      7  N   UNL     1       0.666   9.732  17.834  0.00  0.00    +0.000 N 
ATOM      8  C   UNL     1       1.216   9.132  18.973  0.00  0.00    +0.000 C 
ATOM      9  O   UNL     1       0.905   9.460  20.117  0.00  0.00    +0.000 OA
ATOM     10  H   UNL     1       0.690   9.257  16.940  0.00  0.00    +0.000 HD
BRANCH   7  11
ATOM     11  N   UNL     1      -0.369  10.682  17.999  0.00  0.00    +0.000 NA
ATOM     12  H   UNL     1      -0.127  11.471  17.392  0.00  0.00    +0.000 HD
BRANCH  11  13
ATOM     13  C   UNL     1      -1.678  10.129  17.619  0.00  0.00    +0.000 C 
BRANCH  13  15
ATOM     14  C   UNL     1      -2.843  10.732  15.440  0.00  0.00    +0.000 C 
ATOM     15  C   UNL     1      -2.470  11.189  16.845  0.00  0.00    +0.000 C 
ENDBRANCH  13  15
ENDBRANCH  11  13
ENDBRANCH   7  11
ENDBRANCH   1   8
BRANCH   4  16
ATOM     16  C   UNL     1       5.005   4.760  18.136  0.00  0.00    +0.000 C 
BRANCH  16  17
ATOM     17  N   UNL     1       4.366   3.627  17.466  0.00  0.00    +0.000 NA
ATOM     18  H   UNL     1       4.914   3.369  16.645  0.00  0.00    +0.000 HD
BRANCH  17  19
ATOM     19  C   UNL     1       4.277   2.462  18.348  0.00  0.00    +0.000 C 
BRANCH  19  20
ATOM     20  C   UNL     1       3.134   2.613  19.327  0.00  0.00    +0.000 A 
ATOM     21  C   UNL     1       3.365   2.566  20.709  0.00  0.00    +0.000 A 
ATOM     22  C   UNL     1       2.304   2.673  21.612  0.00  0.00    +0.000 A 
ATOM     23  C   UNL     1       1.003   2.838  21.142  0.00  0.00    +0.000 A 
ATOM     24  C   UNL     1       0.761   2.905  19.773  0.00  0.00    +0.000 A 
ATOM     25  C   UNL     1       1.820   2.798  18.869  0.00  0.00    +0.000 A 
ENDBRANCH  19  20
ENDBRANCH  17  19
ENDBRANCH  16  17
ENDBRANCH   4  16
TORSDOF 8
ENDMDL
