MODEL 1
REMARK VINA RESULT:      -8.9      0.000      0.000
REMARK  Name = 
REMARK  7 active torsions:
REMARK  status: ('A' for Active; 'I' for Inactive)
REMARK    1  A    between atoms: C_1  and  C_2
REMARK    2  A    between atoms: C_5  and  S_6
REMARK    3  A    between atoms: S_6  and  N_9
REMARK    4  A    between atoms: N_9  and  N_10
REMARK    5  A    between atoms: C_11  and  C_13
REMARK    6  A    between atoms: C_18  and  N_19
REMARK    7  A    between atoms: N_19  and  C_20
REMARK                            x       y       z     vdW  Elec       q    Type
REMARK                         _______ _______ _______ _____ _____    ______ ____
ROOT
ATOM      1  N   UNL     1       1.756   7.079  21.294  0.00  0.00    +0.000 N 
ATOM      2  C   UNL     1       2.178   6.541  20.089  0.00  0.00    +0.000 C 
ATOM      3  O   UNL     1       2.527   7.212  19.123  0.00  0.00    +0.000 OA
ATOM      4  H   UNL     1       1.401   6.509  22.059  0.00  0.00    +0.000 HD
ENDROOT
BRANCH   2   5
ATOM      5  C   UNL     1       2.193   5.050  20.050  0.00  0.00    +0.000 A 
ATOM      6  C   UNL     1       1.006   4.346  20.335  0.00  0.00    +0.000 A 
ATOM      7  C   UNL     1       0.977   2.961  20.235  0.00  0.00    +0.000 A 
ATOM      8  C   UNL     1       2.137   2.318  19.872  0.00  0.00    +0.000 A 
ATOM      9  N   UNL     1       3.292   2.967  19.619  0.00  0.00    +0.000 NA
ATOM     10  C   UNL     1       3.339   4.324  19.710  0.00  0.00    +0.000 A 
BRANCH  10  11
ATOM     11  N   UNL     1       4.562   4.958  19.388  0.00  0.00    +0.000 N 
ATOM     12  H   UNL     1       5.192   4.964  20.187  0.00  0.00    +0.000 HD
BRANCH  11  13
ATOM     13  C   UNL     1       5.193   4.878  18.127  0.00  0.00    +0.000 A 
ATOM     14  C   UNL     1       6.581   4.676  18.047  0.00  0.00    +0.000 A 
ATOM     15  C   UNL     1       7.251   4.684  16.823  0.00  0.00    +0.000 A 
ATOM     16  C   UNL     1       6.533   4.900  15.654  0.00  0.00    +0.000 A 
ATOM     17 CL   UNL     1       7.360   4.960  14.147  0.00  0.00    +0.000 Cl
ATOM     18  C   UNL     1       5.150   5.082  15.702  0.00  0.00    +0.000 A 
ATOM     19  C   UNL     1       4.481   5.068  16.935  0.00  0.00    +0.000 A 
ENDBRANCH  11  13
ENDBRANCH  10  11
ENDBRANCH   2   5
BRANCH   1  20
ATOM     20  N   UNL     1       1.753   8.507  21.518  0.00  0.00    +0.000 NA
ATOM     21  H   UNL     1       2.597   9.062  21.352  0.00  0.00    +0.000 HD
BRANCH  20  22
ATOM     22  S   UNL     1       0.319   9.203  22.084  0.00  0.00    +0.000 S 
ATOM     23  O   UNL     1       0.581   9.650  23.436  0.00  0.00    +0.000 OA
ATOM     24  O   UNL     1      -0.748   8.262  21.815  0.00  0.00    +0.000 OA
BRANCH  22  29
ATOM     25  C   UNL     1      -0.290  14.190  18.688  0.00  0.00    +0.000 C 
ATOM     26  C   UNL     1      -0.184  12.938  19.511  0.00  0.00    +0.000 A 
ATOM     27  C   UNL     1      -0.824  12.839  20.755  0.00  0.00    +0.000 A 
ATOM     28  C   UNL     1      -0.694  11.684  21.530  0.00  0.00    +0.000 A 
ATOM     29  C   UNL     1       0.073  10.618  21.053  0.00  0.00    +0.000 A 
ATOM     30  C   UNL     1       0.716  10.702  19.815  0.00  0.00    +0.000 A 
ATOM     31  C   UNL     1       0.587  11.862  19.049  0.00  0.00    +0.000 A 
ENDBRANCH  22  29
ENDBRANCH  20  22
ENDBRANCH   1  20
TORSDOF 6
ENDMDL
MODEL 2
REMARK VINA RESULT:      -8.6      1.221      1.550
REMARK  Name = 
REMARK  7 active torsions:
REMARK  status: ('A' for Active; 'I' for Inactive)
REMARK    1  A    between atoms: C_1  and  C_2
REMARK    2  A    between atoms: C_5  and  S_6
REMARK    3  A    between atoms: S_6  and  N_9
REMARK    4  A    between atoms: N_9  and  N_10
REMARK    5  A    between atoms: C_11  and  C_13
REMARK    6  A    between atoms: C_18  and  N_19
REMARK    7  A    between atoms: N_19  and  C_20
REMARK                            x       y       z     vdW  Elec       q    Type
REMARK                         _______ _______ _______ _____ _____    ______ ____
ROOT
ATOM      1  N   UNL     1       1.696   7.150  21.091  0.00  0.00    +0.000 N 
ATOM      2  C   UNL     1       2.198   6.510  19.969  0.00  0.00    +0.000 C 
ATOM      3  O   UNL     1       2.617   7.094  18.976  0.00  0.00    +0.000 OA
ATOM      4  H   UNL     1       1.285   6.649  21.876  0.00  0.00    +0.000 HD
ENDROOT
BRANCH   2   5
ATOM      5  C   UNL     1       2.206   5.020  20.060  0.00  0.00    +0.000 A 
ATOM      6  C   UNL     1       1.009   4.348  20.376  0.00  0.00    +0.000 A 
ATOM      7  C   UNL     1       0.975   2.959  20.397  0.00  0.00    +0.000 A 
ATOM      8  C   UNL     1       2.141   2.284  20.120  0.00  0.00    +0.000 A 
ATOM      9  N   UNL     1       3.305   2.905  19.841  0.00  0.00    +0.000 NA
ATOM     10  C   UNL     1       3.357   4.265  19.815  0.00  0.00    +0.000 A 
BRANCH  10  11
ATOM     11  N   UNL     1       4.591   4.865  19.470  0.00  0.00    +0.000 N 
ATOM     12  H   UNL     1       5.233   4.859  20.259  0.00  0.00    +0.000 HD
BRANCH  11  13
ATOM     13  C   UNL     1       5.200   4.762  18.200  0.00  0.00    +0.000 A 
ATOM     14  C   UNL     1       6.600   4.799  18.086  0.00  0.00    +0.000 A 
ATOM     15  C   UNL     1       7.232   4.793  16.842  0.00  0.00    +0.000 A 
ATOM     16  C   UNL     1       6.463   4.751  15.687  0.00  0.00    +0.000 A 
ATOM     17 CL   UNL     1       7.234   4.793  14.150  0.00  0.00    +0.000 Cl
ATOM     18  C   UNL     1       5.071   4.692  15.771  0.00  0.00    +0.000 A 
ATOM     19  C   UNL     1       4.441   4.693  17.024  0.00  0.00    +0.000 A 
ENDBRANCH  11  13
ENDBRANCH  10  11
ENDBRANCH   2   5
BRANCH   1  20
ATOM     20  N   UNL     1       1.686   8.593  21.189  0.00  0.00    +0.000 NA
ATOM     21  H   UNL     1       2.527   9.135  20.973  0.00  0.00    +0.000 HD
BRANCH  20  22
ATOM     22  S   UNL     1       0.251   9.327  21.697  0.00  0.00    +0.000 S 
ATOM     23  O   UNL     1       0.629  10.398  22.597  0.00  0.00    +0.000 OA
ATOM     24  O   UNL     1      -0.636   8.273  22.142  0.00  0.00    +0.000 OA
BRANCH  22  29
ATOM     25  C   UNL     1      -2.308  11.528  16.659  0.00  0.00    +0.000 C 
ATOM     26  C   UNL     1      -1.635  11.015  17.899  0.00  0.00    +0.000 A 
ATOM     27  C   UNL     1      -0.652  10.017  17.823  0.00  0.00    +0.000 A 
ATOM     28  C   UNL     1      -0.054   9.520  18.984  0.00  0.00    +0.000 A 
ATOM     29  C   UNL     1      -0.434  10.033  20.227  0.00  0.00    +0.000 A 
ATOM     30  C   UNL     1      -1.411  11.028  20.318  0.00  0.00    +0.000 A 
ATOM     31  C   UNL     1      -2.010  11.514  19.154  0.00  0.00    +0.000 A 
ENDBRANCH  22  29
ENDBRANCH  20  22
ENDBRANCH   1  20
TORSDOF 6
ENDMDL
MODEL 3
REMARK VINA RESULT:      -8.6      0.723      1.504
REMARK  Name = 
REMARK  7 active torsions:
REMARK  status: ('A' for Active; 'I' for Inactive)
REMARK    1  A    between atoms: C_1  and  C_2
REMARK    2  A    between atoms: C_5  and  S_6
REMARK    3  A    between atoms: S_6  and  N_9
REMARK    4  A    between atoms: N_9  and  N_10
REMARK    5  A    between atoms: C_11  and  C_13
REMARK    6  A    between atoms: C_18  and  N_19
REMARK    7  A    between atoms: N_19  and  C_20
REMARK                            x       y       z     vdW  Elec       q    Type
REMARK                         _______ _______ _______ _____ _____    ______ ____
ROOT
ATOM      1  N   UNL     1       1.658   7.392  21.358  0.00  0.00    +0.000 N 
ATOM      2  C   UNL     1       2.082   6.877  20.143  0.00  0.00    +0.000 C 
ATOM      3  O   UNL     1       2.321   7.562  19.154  0.00  0.00    +0.000 OA
ATOM      4  H   UNL     1       1.394   6.803  22.145  0.00  0.00    +0.000 HD
ENDROOT
BRANCH   2   5
ATOM      5  C   UNL     1       2.246   5.394  20.124  0.00  0.00    +0.000 A 
ATOM      6  C   UNL     1       1.141   4.580  20.439  0.00  0.00    +0.000 A 
ATOM      7  C   UNL     1       1.249   3.197  20.359  0.00  0.00    +0.000 A 
ATOM      8  C   UNL     1       2.463   2.669  19.984  0.00  0.00    +0.000 A 
ATOM      9  N   UNL     1       3.542   3.426  19.702  0.00  0.00    +0.000 NA
ATOM     10  C   UNL     1       3.454   4.783  19.775  0.00  0.00    +0.000 A 
BRANCH  10  11
ATOM     11  N   UNL     1       4.602   5.531  19.423  0.00  0.00    +0.000 N 
ATOM     12  H   UNL     1       5.208   5.670  20.229  0.00  0.00    +0.000 HD
BRANCH  11  13
ATOM     13  C   UNL     1       5.267   5.434  18.181  0.00  0.00    +0.000 A 
ATOM     14  C   UNL     1       4.679   5.974  17.024  0.00  0.00    +0.000 A 
ATOM     15  C   UNL     1       5.263   5.815  15.767  0.00  0.00    +0.000 A 
ATOM     16  C   UNL     1       6.451   5.107  15.651  0.00  0.00    +0.000 A 
ATOM     17 CL   UNL     1       7.150   4.867  14.097  0.00  0.00    +0.000 Cl
ATOM     18  C   UNL     1       7.068   4.579  16.786  0.00  0.00    +0.000 A 
ATOM     19  C   UNL     1       6.480   4.746  18.048  0.00  0.00    +0.000 A 
ENDBRANCH  11  13
ENDBRANCH  10  11
ENDBRANCH   2   5
BRANCH   1  20
ATOM     20  N   UNL     1       1.520   8.816  21.562  0.00  0.00    +0.000 NA
ATOM     21  H   UNL     1       2.186   9.470  21.141  0.00  0.00    +0.000 HD
BRANCH  20  22
ATOM     22  S   UNL     1       0.241   9.342  22.536  0.00  0.00    +0.000 S 
ATOM     23  O   UNL     1       0.773   9.487  23.875  0.00  0.00    +0.000 OA
ATOM     24  O   UNL     1      -0.880   8.462  22.281  0.00  0.00    +0.000 OA
BRANCH  22  29
ATOM     25  C   UNL     1      -1.411  14.713  20.256  0.00  0.00    +0.000 C 
ATOM     26  C   UNL     1      -0.956  13.404  20.834  0.00  0.00    +0.000 A 
ATOM     27  C   UNL     1      -0.168  12.521  20.081  0.00  0.00    +0.000 A 
ATOM     28  C   UNL     1       0.222  11.289  20.612  0.00  0.00    +0.000 A 
ATOM     29  C   UNL     1      -0.169  10.943  21.908  0.00  0.00    +0.000 A 
ATOM     30  C   UNL     1      -0.953  11.813  22.670  0.00  0.00    +0.000 A 
ATOM     31  C   UNL     1      -1.346  13.039  22.130  0.00  0.00    +0.000 A 
ENDBRANCH  22  29
ENDBRANCH  20  22
ENDBRANCH   1  20
TORSDOF 6
ENDMDL
MODEL 4
REMARK VINA RESULT:      -8.6      3.910      8.266
REMARK  Name = 
REMARK  7 active torsions:
REMARK  status: ('A' for Active; 'I' for Inactive)
REMARK    1  A    between atoms: C_1  and  C_2
REMARK    2  A    between atoms: C_5  and  S_6
REMARK    3  A    between atoms: S_6  and  N_9
REMARK    4  A    between atoms: N_9  and  N_10
REMARK    5  A    between atoms: C_11  and  C_13
REMARK    6  A    between atoms: C_18  and  N_19
REMARK    7  A    between atoms: N_19  and  C_20
REMARK                            x       y       z     vdW  Elec       q    Type
REMARK                         _______ _______ _______ _____ _____    ______ ____
ROOT
ATOM      1  N   UNL     1       5.067   4.051  17.785  0.00  0.00    +0.000 N 
ATOM      2  C   UNL     1       4.632   4.375  19.060  0.00  0.00    +0.000 C 
ATOM      3  O   UNL     1       5.311   4.976  19.884  0.00  0.00    +0.000 OA
ATOM      4  H   UNL     1       4.517   3.488  17.140  0.00  0.00    +0.000 HD
ENDROOT
BRANCH   2   5
ATOM      5  C   UNL     1       3.237   3.940  19.365  0.00  0.00    +0.000 A 
ATOM      6  C   UNL     1       2.815   2.659  18.958  0.00  0.00    +0.000 A 
ATOM      7  C   UNL     1       1.546   2.204  19.293  0.00  0.00    +0.000 A 
ATOM      8  C   UNL     1       0.730   3.049  20.008  0.00  0.00    +0.000 A 
ATOM      9  N   UNL     1       1.100   4.289  20.387  0.00  0.00    +0.000 NA
ATOM     10  C   UNL     1       2.341   4.751  20.068  0.00  0.00    +0.000 A 
BRANCH  10  11
ATOM     11  N   UNL     1       2.697   6.039  20.531  0.00  0.00    +0.000 N 
ATOM     12  H   UNL     1       3.676   6.070  20.807  0.00  0.00    +0.000 HD
BRANCH  11  13
ATOM     13  C   UNL     1       2.182   7.245  20.006  0.00  0.00    +0.000 A 
ATOM     14  C   UNL     1       1.436   8.108  20.826  0.00  0.00    +0.000 A 
ATOM     15  C   UNL     1       0.835   9.260  20.318  0.00  0.00    +0.000 A 
ATOM     16  C   UNL     1       0.973   9.564  18.970  0.00  0.00    +0.000 A 
ATOM     17 CL   UNL     1       0.194  10.957  18.328  0.00  0.00    +0.000 Cl
ATOM     18  C   UNL     1       1.727   8.736  18.137  0.00  0.00    +0.000 A 
ATOM     19  C   UNL     1       2.333   7.582  18.654  0.00  0.00    +0.000 A 
ENDBRANCH  11  13
ENDBRANCH  10  11
ENDBRANCH   2   5
BRANCH   1  20
ATOM     20  N   UNL     1       6.368   4.466  17.309  0.00  0.00    +0.000 NA
ATOM     21  H   UNL     1       7.218   4.013  17.655  0.00  0.00    +0.000 HD
BRANCH  20  22
ATOM     22  S   UNL     1       6.419   5.733  16.190  0.00  0.00    +0.000 S 
ATOM     23  O   UNL     1       7.673   6.425  16.405  0.00  0.00    +0.000 OA
ATOM     24  O   UNL     1       5.161   6.442  16.290  0.00  0.00    +0.000 OA
BRANCH  22  29
ATOM     25  C   UNL     1       6.760   2.767  10.911  0.00  0.00    +0.000 C 
ATOM     26  C   UNL     1       6.656   3.542  12.193  0.00  0.00    +0.000 A 
ATOM     27  C   UNL     1       7.666   4.438  12.575  0.00  0.00    +0.000 A 
ATOM     28  C   UNL     1       7.580   5.130  13.786  0.00  0.00    +0.000 A 
ATOM     29  C   UNL     1       6.471   4.934  14.614  0.00  0.00    +0.000 A 
ATOM     30  C   UNL     1       5.457   4.045  14.245  0.00  0.00    +0.000 A 
ATOM     31  C   UNL     1       5.554   3.351  13.038  0.00  0.00    +0.000 A 
ENDBRANCH  22  29
ENDBRANCH  20  22
ENDBRANCH   1  20
TORSDOF 6
ENDMDL
MODEL 5
REMARK VINA RESULT:      -8.4      1.579      1.849
REMARK  Name = 
REMARK  7 active torsions:
REMARK  status: ('A' for Active; 'I' for Inactive)
REMARK    1  A    between atoms: C_1  and  C_2
REMARK    2  A    between atoms: C_5  and  S_6
REMARK    3  A    between atoms: S_6  and  N_9
REMARK    4  A    between atoms: N_9  and  N_10
REMARK    5  A    between atoms: C_11  and  C_13
REMARK    6  A    between atoms: C_18  and  N_19
REMARK    7  A    between atoms: N_19  and  C_20
REMARK                            x       y       z     vdW  Elec       q    Type
REMARK                         _______ _______ _______ _____ _____    ______ ____
ROOT
ATOM      1  N   UNL     1       1.778   7.638  20.715  0.00  0.00    +0.000 N 
ATOM      2  C   UNL     1       2.328   6.852  19.714  0.00  0.00    +0.000 C 
ATOM      3  O   UNL     1       2.757   7.294  18.654  0.00  0.00    +0.000 OA
ATOM      4  H   UNL     1       1.360   7.247  21.557  0.00  0.00    +0.000 HD
ENDROOT
BRANCH   2   5
ATOM      5  C   UNL     1       2.374   5.394  20.029  0.00  0.00    +0.000 A 
ATOM      6  C   UNL     1       1.210   4.759  20.504  0.00  0.00    +0.000 A 
ATOM      7  C   UNL     1       1.209   3.390  20.736  0.00  0.00    +0.000 A 
ATOM      8  C   UNL     1       2.375   2.699  20.504  0.00  0.00    +0.000 A 
ATOM      9  N   UNL     1       3.509   3.287  20.074  0.00  0.00    +0.000 NA
ATOM     10  C   UNL     1       3.529   4.628  19.840  0.00  0.00    +0.000 A 
BRANCH  10  11
ATOM     11  N   UNL     1       4.730   5.187  19.345  0.00  0.00    +0.000 N 
ATOM     12  H   UNL     1       5.434   5.246  20.077  0.00  0.00    +0.000 HD
BRANCH  11  13
ATOM     13  C   UNL     1       5.233   4.970  18.043  0.00  0.00    +0.000 A 
ATOM     14  C   UNL     1       4.348   4.736  16.977  0.00  0.00    +0.000 A 
ATOM     15  C   UNL     1       4.811   4.426  15.698  0.00  0.00    +0.000 A 
ATOM     16  C   UNL     1       6.178   4.342  15.469  0.00  0.00    +0.000 A 
ATOM     17 CL   UNL     1       6.754   3.912  13.906  0.00  0.00    +0.000 Cl
ATOM     18  C   UNL     1       7.080   4.590  16.505  0.00  0.00    +0.000 A 
ATOM     19  C   UNL     1       6.609   4.908  17.787  0.00  0.00    +0.000 A 
ENDBRANCH  11  13
ENDBRANCH  10  11
ENDBRANCH   2   5
BRANCH   1  20
ATOM     20  N   UNL     1       1.726   9.078  20.595  0.00  0.00    +0.000 NA
ATOM     21  H   UNL     1       2.503   9.593  20.172  0.00  0.00    +0.000 HD
BRANCH  20  22
ATOM     22  S   UNL     1       0.355   9.859  21.202  0.00  0.00    +0.000 S 
ATOM     23  O   UNL     1       0.812  11.102  21.789  0.00  0.00    +0.000 OA
ATOM     24  O   UNL     1      -0.371   8.893  21.999  0.00  0.00    +0.000 OA
BRANCH  22  29
ATOM     25  C   UNL     1      -2.776  11.337  16.223  0.00  0.00    +0.000 C 
ATOM     26  C   UNL     1      -2.040  10.942  17.471  0.00  0.00    +0.000 A 
ATOM     27  C   UNL     1      -2.261  11.619  18.680  0.00  0.00    +0.000 A 
ATOM     28  C   UNL     1      -1.548  11.269  19.829  0.00  0.00    +0.000 A 
ATOM     29  C   UNL     1      -0.617  10.228  19.772  0.00  0.00    +0.000 A 
ATOM     30  C   UNL     1      -0.388   9.544  18.575  0.00  0.00    +0.000 A 
ATOM     31  C   UNL     1      -1.098   9.905  17.428  0.00  0.00    +0.000 A 
ENDBRANCH  22  29
ENDBRANCH  20  22
ENDBRANCH   1  20
TORSDOF 6
ENDMDL
MODEL 6
REMARK VINA RESULT:      -8.3      3.793      8.179
REMARK  Name = 
REMARK  7 active torsions:
REMARK  status: ('A' for Active; 'I' for Inactive)
REMARK    1  A    between atoms: C_1  and  C_2
REMARK    2  A    between atoms: C_5  and  S_6
REMARK    3  A    between atoms: S_6  and  N_9
REMARK    4  A    between atoms: N_9  and  N_10
REMARK    5  A    between atoms: C_11  and  C_13
REMARK    6  A    between atoms: C_18  and  N_19
REMARK    7  A    between atoms: N_19  and  C_20
REMARK                            x       y       z     vdW  Elec       q    Type
REMARK                         _______ _______ _______ _____ _____    ______ ____
ROOT
ATOM      1  N   UNL     1       4.432   5.771  17.573  0.00  0.00    +0.000 N 
ATOM      2  C   UNL     1       4.314   5.348  18.887  0.00  0.00    +0.000 C 
ATOM      3  O   UNL     1       5.148   5.573  19.758  0.00  0.00    +0.000 OA
ATOM      4  H   UNL     1       3.767   5.513  16.847  0.00  0.00    +0.000 HD
ENDROOT
BRANCH   2   5
ATOM      5  C   UNL     1       3.063   4.590  19.181  0.00  0.00    +0.000 A 
ATOM      6  C   UNL     1       2.854   3.345  18.557  0.00  0.00    +0.000 A 
ATOM      7  C   UNL     1       1.731   2.589  18.869  0.00  0.00    +0.000 A 
ATOM      8  C   UNL     1       0.842   3.106  19.782  0.00  0.00    +0.000 A 
ATOM      9  N   UNL     1       1.006   4.306  20.373  0.00  0.00    +0.000 NA
ATOM     10  C   UNL     1       2.101   5.061  20.080  0.00  0.00    +0.000 A 
BRANCH  10  11
ATOM     11  N   UNL     1       2.249   6.290  20.765  0.00  0.00    +0.000 N 
ATOM     12  H   UNL     1       3.168   6.359  21.196  0.00  0.00    +0.000 HD
BRANCH  11  13
ATOM     13  C   UNL     1       1.696   7.515  20.332  0.00  0.00    +0.000 A 
ATOM     14  C   UNL     1       1.971   7.994  19.039  0.00  0.00    +0.000 A 
ATOM     15  C   UNL     1       1.518   9.242  18.611  0.00  0.00    +0.000 A 
ATOM     16  C   UNL     1       0.780  10.035  19.480  0.00  0.00    +0.000 A 
ATOM     17 CL   UNL     1       0.261  11.595  18.974  0.00  0.00    +0.000 Cl
ATOM     18  C   UNL     1       0.474   9.576  20.761  0.00  0.00    +0.000 A 
ATOM     19  C   UNL     1       0.927   8.317  21.185  0.00  0.00    +0.000 A 
ENDBRANCH  11  13
ENDBRANCH  10  11
ENDBRANCH   2   5
BRANCH   1  20
ATOM     20  N   UNL     1       5.552   6.579  17.143  0.00  0.00    +0.000 NA
ATOM     21  H   UNL     1       5.485   7.600  17.135  0.00  0.00    +0.000 HD
BRANCH  20  22
ATOM     22  S   UNL     1       6.947   5.768  16.637  0.00  0.00    +0.000 S 
ATOM     23  O   UNL     1       7.216   4.748  17.630  0.00  0.00    +0.000 OA
ATOM     24  O   UNL     1       7.940   6.775  16.330  0.00  0.00    +0.000 OA
BRANCH  22  29
ATOM     25  C   UNL     1       5.501   2.821  11.538  0.00  0.00    +0.000 C 
ATOM     26  C   UNL     1       5.841   3.594  12.780  0.00  0.00    +0.000 A 
ATOM     27  C   UNL     1       7.032   4.328  12.866  0.00  0.00    +0.000 A 
ATOM     28  C   UNL     1       7.358   5.017  14.037  0.00  0.00    +0.000 A 
ATOM     29  C   UNL     1       6.481   4.980  15.124  0.00  0.00    +0.000 A 
ATOM     30  C   UNL     1       5.289   4.254  15.052  0.00  0.00    +0.000 A 
ATOM     31  C   UNL     1       4.974   3.561  13.881  0.00  0.00    +0.000 A 
ENDBRANCH  22  29
ENDBRANCH  20  22
ENDBRANCH   1  20
TORSDOF 6
ENDMDL
MODEL 7
REMARK VINA RESULT:      -8.3      4.045      7.941
REMARK  Name = 
REMARK  7 active torsions:
REMARK  status: ('A' for Active; 'I' for Inactive)
REMARK    1  A    between atoms: C_1  and  C_2
REMARK    2  A    between atoms: C_5  and  S_6
REMARK    3  A    between atoms: S_6  and  N_9
REMARK    4  A    between atoms: N_9  and  N_10
REMARK    5  A    between atoms: C_11  and  C_13
REMARK    6  A    between atoms: C_18  and  N_19
REMARK    7  A    between atoms: N_19  and  C_20
REMARK                            x       y       z     vdW  Elec       q    Type
REMARK                         _______ _______ _______ _____ _____    ______ ____
ROOT
ATOM      1  N   UNL     1       4.828   4.969  18.121  0.00  0.00    +0.000 N 
ATOM      2  C   UNL     1       4.590   3.966  19.047  0.00  0.00    +0.000 C 
ATOM      3  O   UNL     1       5.473   3.372  19.656  0.00  0.00    +0.000 OA
ATOM      4  H   UNL     1       4.088   5.401  17.571  0.00  0.00    +0.000 HD
ENDROOT
BRANCH   2   5
ATOM      5  C   UNL     1       3.147   3.660  19.268  0.00  0.00    +0.000 A 
ATOM      6  C   UNL     1       2.642   2.410  18.860  0.00  0.00    +0.000 A 
ATOM      7  C   UNL     1       1.320   2.074  19.118  0.00  0.00    +0.000 A 
ATOM      8  C   UNL     1       0.535   3.003  19.761  0.00  0.00    +0.000 A 
ATOM      9  N   UNL     1       0.987   4.216  20.138  0.00  0.00    +0.000 NA
ATOM     10  C   UNL     1       2.280   4.562  19.893  0.00  0.00    +0.000 A 
BRANCH  10  11
ATOM     11  N   UNL     1       2.716   5.827  20.352  0.00  0.00    +0.000 N 
ATOM     12  H   UNL     1       3.723   5.836  20.498  0.00  0.00    +0.000 HD
BRANCH  11  13
ATOM     13  C   UNL     1       2.159   7.059  19.943  0.00  0.00    +0.000 A 
ATOM     14  C   UNL     1       2.400   7.544  18.646  0.00  0.00    +0.000 A 
ATOM     15  C   UNL     1       1.943   8.798  18.239  0.00  0.00    +0.000 A 
ATOM     16  C   UNL     1       1.235   9.589  19.134  0.00  0.00    +0.000 A 
ATOM     17 CL   UNL     1       0.712  11.156  18.653  0.00  0.00    +0.000 Cl
ATOM     18  C   UNL     1       0.963   9.124  20.421  0.00  0.00    +0.000 A 
ATOM     19  C   UNL     1       1.420   7.860  20.823  0.00  0.00    +0.000 A 
ENDBRANCH  11  13
ENDBRANCH  10  11
ENDBRANCH   2   5
BRANCH   1  20
ATOM     20  N   UNL     1       6.170   5.433  17.847  0.00  0.00    +0.000 NA
ATOM     21  H   UNL     1       6.942   5.197  18.476  0.00  0.00    +0.000 HD
BRANCH  20  22
ATOM     22  S   UNL     1       6.395   6.394  16.473  0.00  0.00    +0.000 S 
ATOM     23  O   UNL     1       7.729   6.949  16.569  0.00  0.00    +0.000 OA
ATOM     24  O   UNL     1       5.242   7.263  16.366  0.00  0.00    +0.000 OA
BRANCH  22  29
ATOM     25  C   UNL     1       6.077   2.696  11.677  0.00  0.00    +0.000 C 
ATOM     26  C   UNL     1       6.174   3.572  12.892  0.00  0.00    +0.000 A 
ATOM     27  C   UNL     1       5.150   3.587  13.851  0.00  0.00    +0.000 A 
ATOM     28  C   UNL     1       5.231   4.430  14.962  0.00  0.00    +0.000 A 
ATOM     29  C   UNL     1       6.347   5.255  15.121  0.00  0.00    +0.000 A 
ATOM     30  C   UNL     1       7.375   5.250  14.174  0.00  0.00    +0.000 A 
ATOM     31  C   UNL     1       7.284   4.411  13.062  0.00  0.00    +0.000 A 
ENDBRANCH  22  29
ENDBRANCH  20  22
ENDBRANCH   1  20
TORSDOF 6
ENDMDL
MODEL 8
REMARK VINA RESULT:      -8.2      3.881      8.481
REMARK  Name = 
REMARK  7 active torsions:
REMARK  status: ('A' for Active; 'I' for Inactive)
REMARK    1  A    between atoms: C_1  and  C_2
REMARK    2  A    between atoms: C_5  and  S_6
REMARK    3  A    between atoms: S_6  and  N_9
REMARK    4  A    between atoms: N_9  and  N_10
REMARK    5  A    between atoms: C_11  and  C_13
REMARK    6  A    between atoms: C_18  and  N_19
REMARK    7  A    between atoms: N_19  and  C_20
REMARK                            x       y       z     vdW  Elec       q    Type
REMARK                         _______ _______ _______ _____ _____    ______ ____
ROOT
ATOM      1  N   UNL     1       4.617   6.037  17.978  0.00  0.00    +0.000 N 
ATOM      2  C   UNL     1       3.294   6.448  18.022  0.00  0.00    +0.000 C 
ATOM      3  O   UNL     1       2.882   7.488  17.520  0.00  0.00    +0.000 OA
ATOM      4  H   UNL     1       4.954   5.208  18.463  0.00  0.00    +0.000 HD
ENDROOT
BRANCH   2   5
ATOM      5  C   UNL     1       2.379   5.507  18.731  0.00  0.00    +0.000 A 
ATOM      6  C   UNL     1       2.045   4.285  18.116  0.00  0.00    +0.000 A 
ATOM      7  C   UNL     1       1.252   3.361  18.785  0.00  0.00    +0.000 A 
ATOM      8  C   UNL     1       0.801   3.694  20.041  0.00  0.00    +0.000 A 
ATOM      9  N   UNL     1       1.085   4.867  20.641  0.00  0.00    +0.000 NA
ATOM     10  C   UNL     1       1.861   5.784  20.000  0.00  0.00    +0.000 A 
BRANCH  10  11
ATOM     11  N   UNL     1       2.168   6.978  20.693  0.00  0.00    +0.000 N 
ATOM     12  H   UNL     1       3.149   7.226  20.576  0.00  0.00    +0.000 HD
BRANCH  11  13
ATOM     13  C   UNL     1       1.285   8.072  20.826  0.00  0.00    +0.000 A 
ATOM     14  C   UNL     1       1.283   9.096  19.864  0.00  0.00    +0.000 A 
ATOM     15  C   UNL     1       0.491  10.236  20.012  0.00  0.00    +0.000 A 
ATOM     16  C   UNL     1      -0.314  10.365  21.136  0.00  0.00    +0.000 A 
ATOM     17 CL   UNL     1      -1.256  11.789  21.347  0.00  0.00    +0.000 Cl
ATOM     18  C   UNL     1      -0.348   9.354  22.096  0.00  0.00    +0.000 A 
ATOM     19  C   UNL     1       0.446   8.208  21.940  0.00  0.00    +0.000 A 
ENDBRANCH  11  13
ENDBRANCH  10  11
ENDBRANCH   2   5
BRANCH   1  20
ATOM     20  N   UNL     1       5.616   6.802  17.266  0.00  0.00    +0.000 NA
ATOM     21  H   UNL     1       5.460   7.791  17.051  0.00  0.00    +0.000 HD
BRANCH  20  22
ATOM     22  S   UNL     1       7.022   5.992  16.791  0.00  0.00    +0.000 S 
ATOM     23  O   UNL     1       7.298   5.006  17.815  0.00  0.00    +0.000 OA
ATOM     24  O   UNL     1       8.006   7.000  16.457  0.00  0.00    +0.000 OA
BRANCH  22  29
ATOM     25  C   UNL     1       5.639   2.880  11.773  0.00  0.00    +0.000 C 
ATOM     26  C   UNL     1       5.961   3.693  12.994  0.00  0.00    +0.000 A 
ATOM     27  C   UNL     1       7.124   4.473  13.051  0.00  0.00    +0.000 A 
ATOM     28  C   UNL     1       7.436   5.200  14.203  0.00  0.00    +0.000 A 
ATOM     29  C   UNL     1       6.571   5.154  15.300  0.00  0.00    +0.000 A 
ATOM     30  C   UNL     1       5.407   4.382  15.257  0.00  0.00    +0.000 A 
ATOM     31  C   UNL     1       5.107   3.652  14.105  0.00  0.00    +0.000 A 
ENDBRANCH  22  29
ENDBRANCH  20  22
ENDBRANCH   1  20
TORSDOF 6
ENDMDL
MODEL 9
REMARK VINA RESULT:      -8.1      2.068      2.108
REMARK  Name = 
REMARK  7 active torsions:
REMARK  status: ('A' for Active; 'I' for Inactive)
REMARK    1  A    between atoms: C_1  and  C_2
REMARK    2  A    between atoms: C_5  and  S_6
REMARK    3  A    between atoms: S_6  and  N_9
REMARK    4  A    between atoms: N_9  and  N_10
REMARK    5  A    between atoms: C_11  and  C_13
REMARK    6  A    between atoms: C_18  and  N_19
REMARK    7  A    between atoms: N_19  and  C_20
REMARK                            x       y       z     vdW  Elec       q    Type
REMARK                         _______ _______ _______ _____ _____    ______ ____
ROOT
ATOM      1  N   UNL     1       1.761   7.919  19.929  0.00  0.00    +0.000 N 
ATOM      2  C   UNL     1       2.331   6.960  19.106  0.00  0.00    +0.000 C 
ATOM      3  O   UNL     1       2.716   7.180  17.962  0.00  0.00    +0.000 OA
ATOM      4  H   UNL     1       1.381   7.702  20.848  0.00  0.00    +0.000 HD
ENDROOT
BRANCH   2   5
ATOM      5  C   UNL     1       2.461   5.610  19.728  0.00  0.00    +0.000 A 
ATOM      6  C   UNL     1       1.334   5.029  20.342  0.00  0.00    +0.000 A 
ATOM      7  C   UNL     1       1.411   3.745  20.865  0.00  0.00    +0.000 A 
ATOM      8  C   UNL     1       2.614   3.086  20.774  0.00  0.00    +0.000 A 
ATOM      9  N   UNL     1       3.714   3.629  20.215  0.00  0.00    +0.000 NA
ATOM     10  C   UNL     1       3.657   4.887  19.696  0.00  0.00    +0.000 A 
BRANCH  10  11
ATOM     11  N   UNL     1       4.825   5.392  19.078  0.00  0.00    +0.000 N 
ATOM     12  H   UNL     1       5.552   5.575  19.766  0.00  0.00    +0.000 HD
BRANCH  11  13
ATOM     13  C   UNL     1       5.289   4.992  17.805  0.00  0.00    +0.000 A 
ATOM     14  C   UNL     1       6.599   5.305  17.405  0.00  0.00    +0.000 A 
ATOM     15  C   UNL     1       7.061   5.007  16.122  0.00  0.00    +0.000 A 
ATOM     16  C   UNL     1       6.208   4.390  15.216  0.00  0.00    +0.000 A 
ATOM     17 CL   UNL     1       6.756   4.065  13.618  0.00  0.00    +0.000 Cl
ATOM     18  C   UNL     1       4.909   4.049  15.594  0.00  0.00    +0.000 A 
ATOM     19  C   UNL     1       4.452   4.345  16.887  0.00  0.00    +0.000 A 
ENDBRANCH  11  13
ENDBRANCH  10  11
ENDBRANCH   2   5
BRANCH   1  20
ATOM     20  N   UNL     1       1.632   9.294  19.501  0.00  0.00    +0.000 NA
ATOM     21  H   UNL     1       2.215   9.661  18.744  0.00  0.00    +0.000 HD
BRANCH  20  22
ATOM     22  S   UNL     1       0.508  10.259  20.316  0.00  0.00    +0.000 S 
ATOM     23  O   UNL     1       1.142  11.543  20.529  0.00  0.00    +0.000 OA
ATOM     24  O   UNL     1       0.015   9.487  21.438  0.00  0.00    +0.000 OA
BRANCH  22  29
ATOM     25  C   UNL     1      -3.894  11.184  16.249  0.00  0.00    +0.000 C 
ATOM     26  C   UNL     1      -2.836  10.923  17.281  0.00  0.00    +0.000 A 
ATOM     27  C   UNL     1      -2.821  11.633  18.491  0.00  0.00    +0.000 A 
ATOM     28  C   UNL     1      -1.813  11.409  19.433  0.00  0.00    +0.000 A 
ATOM     29  C   UNL     1      -0.821  10.462  19.167  0.00  0.00    +0.000 A 
ATOM     30  C   UNL     1      -0.824   9.747  17.967  0.00  0.00    +0.000 A 
ATOM     31  C   UNL     1      -1.829   9.981  17.027  0.00  0.00    +0.000 A 
ENDBRANCH  22  29
ENDBRANCH  20  22
ENDBRANCH   1  20
TORSDOF 6
ENDMDL
