MODEL 1
REMARK VINA RESULT:      -8.8      0.000      0.000
REMARK  Name = 
REMARK  6 active torsions:
REMARK  status: ('A' for Active; 'I' for Inactive)
REMARK    1  A    between atoms: C_1  and  C_2
REMARK    2  A    between atoms: C_2  and  C_4
REMARK    3  A    between atoms: C_7  and  N_8
REMARK    4  A    between atoms: C_9  and  C_11
REMARK    5  A    between atoms: C_11  and  N_12
REMARK    6  A    between atoms: C_17  and  C_18
REMARK                            x       y       z     vdW  Elec       q    Type
REMARK                         _______ _______ _______ _____ _____    ______ ____
ROOT
ATOM      1  N   UNL     1       3.771   4.340  19.278  0.00  0.00    +0.000 N 
ATOM      2  N   UNL     1       5.124   4.561  19.456  0.00  0.00    +0.000 NA
ATOM      3  C   UNL     1       5.591   4.535  18.243  0.00  0.00    +0.000 A 
ATOM      4  C   UNL     1       6.986   4.697  17.837  0.00  0.00    +0.000 A 
ATOM      5  C   UNL     1       7.260   4.646  16.529  0.00  0.00    +0.000 A 
ATOM      6  C   UNL     1       6.133   4.412  15.573  0.00  0.00    +0.000 A 
ATOM      7  N   UNL     1       4.890   4.283  15.932  0.00  0.00    +0.000 NA
ATOM      8  N   UNL     1       4.666   4.347  17.274  0.00  0.00    +0.000 N 
ATOM      9  C   UNL     1       3.452   4.208  17.907  0.00  0.00    +0.000 A 
ATOM     10  O   UNL     1       2.340   4.007  17.440  0.00  0.00    +0.000 OA
ENDROOT
BRANCH   6  11
ATOM     11  C   UNL     1       6.495   4.367  14.128  0.00  0.00    +0.000 A 
ATOM     12  C   UNL     1       5.872   3.469  13.252  0.00  0.00    +0.000 A 
ATOM     13  C   UNL     1       6.286   3.386  11.922  0.00  0.00    +0.000 A 
ATOM     14  C   UNL     1       7.308   4.211  11.458  0.00  0.00    +0.000 A 
ATOM     15  C   UNL     1       7.901   5.138  12.314  0.00  0.00    +0.000 A 
ATOM     16  C   UNL     1       7.492   5.222  13.646  0.00  0.00    +0.000 A 
ENDBRANCH   6  11
BRANCH   1  17
ATOM     17  C   UNL     1       2.847   4.180  20.369  0.00  0.00    +0.000 C 
BRANCH  17  19
ATOM     18  N   UNL     1       2.368   6.585  20.353  0.00  0.00    +0.000 N 
ATOM     19  C   UNL     1       1.828   5.309  20.454  0.00  0.00    +0.000 C 
ATOM     20  O   UNL     1       0.661   5.044  20.738  0.00  0.00    +0.000 OA
ATOM     21  H   UNL     1       3.376   6.624  20.209  0.00  0.00    +0.000 HD
BRANCH  18  25
ATOM     22  C   UNL     1       0.265  10.263  20.513  0.00  0.00    +0.000 A 
ATOM     23  C   UNL     1       0.351   9.459  21.649  0.00  0.00    +0.000 A 
ATOM     24  C   UNL     1       1.042   8.245  21.602  0.00  0.00    +0.000 A 
ATOM     25  C   UNL     1       1.666   7.807  20.433  0.00  0.00    +0.000 A 
ATOM     26  C   UNL     1       1.581   8.616  19.292  0.00  0.00    +0.000 A 
ATOM     27  C   UNL     1       0.882   9.835  19.331  0.00  0.00    +0.000 A 
BRANCH  22  29
ATOM     28  C   UNL     1      -1.456  11.857  19.434  0.00  0.00    +0.000 C 
ATOM     29  C   UNL     1      -0.471  11.561  20.540  0.00  0.00    +0.000 C 
ATOM     30  O   UNL     1      -0.276  12.359  21.455  0.00  0.00    +0.000 OA
ENDBRANCH  22  29
ENDBRANCH  18  25
ENDBRANCH  17  19
ENDBRANCH   1  17
TORSDOF 5
ENDMDL
MODEL 2
REMARK VINA RESULT:      -8.7      0.506      1.423
REMARK  Name = 
REMARK  6 active torsions:
REMARK  status: ('A' for Active; 'I' for Inactive)
REMARK    1  A    between atoms: C_1  and  C_2
REMARK    2  A    between atoms: C_2  and  C_4
REMARK    3  A    between atoms: C_7  and  N_8
REMARK    4  A    between atoms: C_9  and  C_11
REMARK    5  A    between atoms: C_11  and  N_12
REMARK    6  A    between atoms: C_17  and  C_18
REMARK                            x       y       z     vdW  Elec       q    Type
REMARK                         _______ _______ _______ _____ _____    ______ ____
ROOT
ATOM      1  N   UNL     1       3.798   4.391  19.329  0.00  0.00    +0.000 N 
ATOM      2  N   UNL     1       5.142   4.640  19.535  0.00  0.00    +0.000 NA
ATOM      3  C   UNL     1       5.638   4.603  18.334  0.00  0.00    +0.000 A 
ATOM      4  C   UNL     1       7.038   4.785  17.957  0.00  0.00    +0.000 A 
ATOM      5  C   UNL     1       7.344   4.717  16.658  0.00  0.00    +0.000 A 
ATOM      6  C   UNL     1       6.244   4.447  15.679  0.00  0.00    +0.000 A 
ATOM      7  N   UNL     1       4.995   4.301  16.012  0.00  0.00    +0.000 NA
ATOM      8  N   UNL     1       4.739   4.382  17.347  0.00  0.00    +0.000 N 
ATOM      9  C   UNL     1       3.513   4.231  17.954  0.00  0.00    +0.000 A 
ATOM     10  O   UNL     1       2.417   4.001  17.465  0.00  0.00    +0.000 OA
ENDROOT
BRANCH   6  11
ATOM     11  C   UNL     1       6.640   4.385  14.244  0.00  0.00    +0.000 A 
ATOM     12  C   UNL     1       7.554   5.298  13.703  0.00  0.00    +0.000 A 
ATOM     13  C   UNL     1       7.844   5.275  12.339  0.00  0.00    +0.000 A 
ATOM     14  C   UNL     1       7.241   4.329  11.514  0.00  0.00    +0.000 A 
ATOM     15  C   UNL     1       6.364   3.388  12.054  0.00  0.00    +0.000 A 
ATOM     16  C   UNL     1       6.068   3.410  13.419  0.00  0.00    +0.000 A 
ENDBRANCH   6  11
BRANCH   1  17
ATOM     17  C   UNL     1       2.852   4.231  20.402  0.00  0.00    +0.000 C 
BRANCH  17  19
ATOM     18  N   UNL     1       2.327   6.626  20.384  0.00  0.00    +0.000 N 
ATOM     19  C   UNL     1       1.808   5.339  20.441  0.00  0.00    +0.000 C 
ATOM     20  O   UNL     1       0.632   5.048  20.657  0.00  0.00    +0.000 OA
ATOM     21  H   UNL     1       3.341   6.686  20.297  0.00  0.00    +0.000 HD
BRANCH  18  25
ATOM     22  C   UNL     1       0.129  10.243  20.625  0.00  0.00    +0.000 A 
ATOM     23  C   UNL     1       0.766   9.892  19.436  0.00  0.00    +0.000 A 
ATOM     24  C   UNL     1       1.493   8.702  19.350  0.00  0.00    +0.000 A 
ATOM     25  C   UNL     1       1.598   7.834  20.438  0.00  0.00    +0.000 A 
ATOM     26  C   UNL     1       0.956   8.185  21.632  0.00  0.00    +0.000 A 
ATOM     27  C   UNL     1       0.228   9.384  21.726  0.00  0.00    +0.000 A 
BRANCH  22  29
ATOM     28  C   UNL     1      -0.312  12.469  21.857  0.00  0.00    +0.000 C 
ATOM     29  C   UNL     1      -0.650  11.511  20.739  0.00  0.00    +0.000 C 
ATOM     30  O   UNL     1      -1.539  11.762  19.927  0.00  0.00    +0.000 OA
ENDBRANCH  22  29
ENDBRANCH  18  25
ENDBRANCH  17  19
ENDBRANCH   1  17
TORSDOF 5
ENDMDL
MODEL 3
REMARK VINA RESULT:      -8.5      0.542      1.040
REMARK  Name = 
REMARK  6 active torsions:
REMARK  status: ('A' for Active; 'I' for Inactive)
REMARK    1  A    between atoms: C_1  and  C_2
REMARK    2  A    between atoms: C_2  and  C_4
REMARK    3  A    between atoms: C_7  and  N_8
REMARK    4  A    between atoms: C_9  and  C_11
REMARK    5  A    between atoms: C_11  and  N_12
REMARK    6  A    between atoms: C_17  and  C_18
REMARK                            x       y       z     vdW  Elec       q    Type
REMARK                         _______ _______ _______ _____ _____    ______ ____
ROOT
ATOM      1  N   UNL     1       3.724   4.785  19.364  0.00  0.00    +0.000 N 
ATOM      2  N   UNL     1       4.993   5.325  19.469  0.00  0.00    +0.000 NA
ATOM      3  C   UNL     1       5.469   5.198  18.267  0.00  0.00    +0.000 A 
ATOM      4  C   UNL     1       6.799   5.592  17.804  0.00  0.00    +0.000 A 
ATOM      5  C   UNL     1       7.094   5.382  16.517  0.00  0.00    +0.000 A 
ATOM      6  C   UNL     1       6.059   4.747  15.642  0.00  0.00    +0.000 A 
ATOM      7  N   UNL     1       4.870   4.411  16.049  0.00  0.00    +0.000 NA
ATOM      8  N   UNL     1       4.621   4.650  17.366  0.00  0.00    +0.000 N 
ATOM      9  C   UNL     1       3.459   4.357  18.044  0.00  0.00    +0.000 A 
ATOM     10  O   UNL     1       2.426   3.840  17.645  0.00  0.00    +0.000 OA
ENDROOT
BRANCH   6  11
ATOM     11  C   UNL     1       6.440   4.540  14.216  0.00  0.00    +0.000 A 
ATOM     12  C   UNL     1       5.791   3.585  13.424  0.00  0.00    +0.000 A 
ATOM     13  C   UNL     1       6.222   3.348  12.118  0.00  0.00    +0.000 A 
ATOM     14  C   UNL     1       7.286   4.077  11.592  0.00  0.00    +0.000 A 
ATOM     15  C   UNL     1       7.907   5.061  12.362  0.00  0.00    +0.000 A 
ATOM     16  C   UNL     1       7.482   5.298  13.671  0.00  0.00    +0.000 A 
ENDBRANCH   6  11
BRANCH   1  17
ATOM     17  C   UNL     1       2.844   4.612  20.490  0.00  0.00    +0.000 C 
BRANCH  17  19
ATOM     18  N   UNL     1       2.252   6.988  20.626  0.00  0.00    +0.000 N 
ATOM     19  C   UNL     1       1.768   5.687  20.572  0.00  0.00    +0.000 C 
ATOM     20  O   UNL     1       0.595   5.351  20.724  0.00  0.00    +0.000 OA
ATOM     21  H   UNL     1       3.266   7.081  20.579  0.00  0.00    +0.000 HD
BRANCH  18  25
ATOM     22  C   UNL     1      -0.041  10.529  21.049  0.00  0.00    +0.000 A 
ATOM     23  C   UNL     1       0.415  10.140  19.790  0.00  0.00    +0.000 A 
ATOM     24  C   UNL     1       1.172   8.975  19.644  0.00  0.00    +0.000 A 
ATOM     25  C   UNL     1       1.487   8.169  20.740  0.00  0.00    +0.000 A 
ATOM     26  C   UNL     1       1.026   8.558  22.004  0.00  0.00    +0.000 A 
ATOM     27  C   UNL     1       0.269   9.733  22.158  0.00  0.00    +0.000 A 
BRANCH  22  29
ATOM     28  C   UNL     1      -1.659  12.281  20.059  0.00  0.00    +0.000 C 
ATOM     29  C   UNL     1      -0.849  11.771  21.227  0.00  0.00    +0.000 C 
ATOM     30  O   UNL     1      -0.853  12.351  22.311  0.00  0.00    +0.000 OA
ENDBRANCH  22  29
ENDBRANCH  18  25
ENDBRANCH  17  19
ENDBRANCH   1  17
TORSDOF 5
ENDMDL
MODEL 4
REMARK VINA RESULT:      -8.0      1.008      1.643
REMARK  Name = 
REMARK  6 active torsions:
REMARK  status: ('A' for Active; 'I' for Inactive)
REMARK    1  A    between atoms: C_1  and  C_2
REMARK    2  A    between atoms: C_2  and  C_4
REMARK    3  A    between atoms: C_7  and  N_8
REMARK    4  A    between atoms: C_9  and  C_11
REMARK    5  A    between atoms: C_11  and  N_12
REMARK    6  A    between atoms: C_17  and  C_18
REMARK                            x       y       z     vdW  Elec       q    Type
REMARK                         _______ _______ _______ _____ _____    ______ ____
ROOT
ATOM      1  N   UNL     1       3.486   5.097  19.426  0.00  0.00    +0.000 N 
ATOM      2  N   UNL     1       4.542   5.986  19.367  0.00  0.00    +0.000 NA
ATOM      3  C   UNL     1       5.066   5.749  18.202  0.00  0.00    +0.000 A 
ATOM      4  C   UNL     1       6.238   6.399  17.618  0.00  0.00    +0.000 A 
ATOM      5  C   UNL     1       6.614   6.014  16.394  0.00  0.00    +0.000 A 
ATOM      6  C   UNL     1       5.827   4.940  15.710  0.00  0.00    +0.000 A 
ATOM      7  N   UNL     1       4.775   4.373  16.223  0.00  0.00    +0.000 NA
ATOM      8  N   UNL     1       4.434   4.804  17.468  0.00  0.00    +0.000 N 
ATOM      9  C   UNL     1       3.389   4.341  18.235  0.00  0.00    +0.000 A 
ATOM     10  O   UNL     1       2.557   3.478  17.992  0.00  0.00    +0.000 OA
ENDROOT
BRANCH   6  11
ATOM     11  C   UNL     1       6.288   4.553  14.347  0.00  0.00    +0.000 A 
ATOM     12  C   UNL     1       7.411   5.152  13.764  0.00  0.00    +0.000 A 
ATOM     13  C   UNL     1       7.774   4.835  12.454  0.00  0.00    +0.000 A 
ATOM     14  C   UNL     1       7.030   3.907  11.730  0.00  0.00    +0.000 A 
ATOM     15  C   UNL     1       5.937   3.274  12.322  0.00  0.00    +0.000 A 
ATOM     16  C   UNL     1       5.568   3.590  13.631  0.00  0.00    +0.000 A 
ENDBRANCH   6  11
BRANCH   1  17
ATOM     17  C   UNL     1       2.664   4.922  20.594  0.00  0.00    +0.000 C 
BRANCH  17  19
ATOM     18  N   UNL     1       2.054   7.268  20.968  0.00  0.00    +0.000 N 
ATOM     19  C   UNL     1       1.581   5.986  20.722  0.00  0.00    +0.000 C 
ATOM     20  O   UNL     1       0.401   5.640  20.742  0.00  0.00    +0.000 OA
ATOM     21  H   UNL     1       3.068   7.360  21.011  0.00  0.00    +0.000 HD
BRANCH  18  25
ATOM     22  C   UNL     1      -0.266  10.753  21.636  0.00  0.00    +0.000 A 
ATOM     23  C   UNL     1       0.115  10.406  20.341  0.00  0.00    +0.000 A 
ATOM     24  C   UNL     1       0.880   9.260  20.113  0.00  0.00    +0.000 A 
ATOM     25  C   UNL     1       1.278   8.431  21.164  0.00  0.00    +0.000 A 
ATOM     26  C   UNL     1       0.894   8.777  22.466  0.00  0.00    +0.000 A 
ATOM     27  C   UNL     1       0.129   9.933  22.701  0.00  0.00    +0.000 A 
BRANCH  22  29
ATOM     28  C   UNL     1      -1.827  12.609  20.751  0.00  0.00    +0.000 C 
ATOM     29  C   UNL     1      -1.081  11.975  21.901  0.00  0.00    +0.000 C 
ATOM     30  O   UNL     1      -1.143  12.438  23.038  0.00  0.00    +0.000 OA
ENDBRANCH  22  29
ENDBRANCH  18  25
ENDBRANCH  17  19
ENDBRANCH   1  17
TORSDOF 5
ENDMDL
MODEL 5
REMARK VINA RESULT:      -7.9      4.380      7.113
REMARK  Name = 
REMARK  6 active torsions:
REMARK  status: ('A' for Active; 'I' for Inactive)
REMARK    1  A    between atoms: C_1  and  C_2
REMARK    2  A    between atoms: C_2  and  C_4
REMARK    3  A    between atoms: C_7  and  N_8
REMARK    4  A    between atoms: C_9  and  C_11
REMARK    5  A    between atoms: C_11  and  N_12
REMARK    6  A    between atoms: C_17  and  C_18
REMARK                            x       y       z     vdW  Elec       q    Type
REMARK                         _______ _______ _______ _____ _____    ______ ____
ROOT
ATOM      1  N   UNL     1       1.756  10.664  18.682  0.00  0.00    +0.000 N 
ATOM      2  N   UNL     1       2.353  10.010  17.621  0.00  0.00    +0.000 NA
ATOM      3  C   UNL     1       2.436   8.782  18.037  0.00  0.00    +0.000 A 
ATOM      4  C   UNL     1       3.010   7.648  17.315  0.00  0.00    +0.000 A 
ATOM      5  C   UNL     1       2.990   6.456  17.919  0.00  0.00    +0.000 A 
ATOM      6  C   UNL     1       2.402   6.360  19.292  0.00  0.00    +0.000 A 
ATOM      7  N   UNL     1       1.877   7.366  19.928  0.00  0.00    +0.000 NA
ATOM      8  N   UNL     1       1.920   8.554  19.267  0.00  0.00    +0.000 N 
ATOM      9  C   UNL     1       1.464   9.767  19.735  0.00  0.00    +0.000 A 
ATOM     10  O   UNL     1       0.937  10.049  20.801  0.00  0.00    +0.000 OA
ENDROOT
BRANCH   6  11
ATOM     11  C   UNL     1       2.404   5.007  19.916  0.00  0.00    +0.000 A 
ATOM     12  C   UNL     1       3.503   4.149  19.785  0.00  0.00    +0.000 A 
ATOM     13  C   UNL     1       3.449   2.856  20.306  0.00  0.00    +0.000 A 
ATOM     14  C   UNL     1       2.307   2.422  20.976  0.00  0.00    +0.000 A 
ATOM     15  C   UNL     1       1.227   3.287  21.149  0.00  0.00    +0.000 A 
ATOM     16  C   UNL     1       1.276   4.582  20.626  0.00  0.00    +0.000 A 
ENDBRANCH   6  11
BRANCH   1  17
ATOM     17  C   UNL     1       1.553  12.088  18.720  0.00  0.00    +0.000 C 
BRANCH  17  19
ATOM     18  N   UNL     1      -0.778  11.455  18.290  0.00  0.00    +0.000 N 
ATOM     19  C   UNL     1       0.081  12.478  18.672  0.00  0.00    +0.000 C 
ATOM     20  O   UNL     1      -0.232  13.657  18.827  0.00  0.00    +0.000 OA
ATOM     21  H   UNL     1      -0.334  10.556  18.109  0.00  0.00    +0.000 HD
BRANCH  18  25
ATOM     22  C   UNL     1      -4.986  11.759  17.876  0.00  0.00    +0.000 A 
ATOM     23  C   UNL     1      -4.208  11.339  16.798  0.00  0.00    +0.000 A 
ATOM     24  C   UNL     1      -2.820  11.237  16.928  0.00  0.00    +0.000 A 
ATOM     25  C   UNL     1      -2.177  11.544  18.128  0.00  0.00    +0.000 A 
ATOM     26  C   UNL     1      -2.959  11.964  19.212  0.00  0.00    +0.000 A 
ATOM     27  C   UNL     1      -4.354  12.074  19.086  0.00  0.00    +0.000 A 
BRANCH  22  29
ATOM     28  C   UNL     1      -7.043  13.057  17.008  0.00  0.00    +0.000 C 
ATOM     29  C   UNL     1      -6.469  11.877  17.758  0.00  0.00    +0.000 C 
ATOM     30  O   UNL     1      -7.195  11.021  18.257  0.00  0.00    +0.000 OA
ENDBRANCH  22  29
ENDBRANCH  18  25
ENDBRANCH  17  19
ENDBRANCH   1  17
TORSDOF 5
ENDMDL
MODEL 6
REMARK VINA RESULT:      -7.9      1.514      2.199
REMARK  Name = 
REMARK  6 active torsions:
REMARK  status: ('A' for Active; 'I' for Inactive)
REMARK    1  A    between atoms: C_1  and  C_2
REMARK    2  A    between atoms: C_2  and  C_4
REMARK    3  A    between atoms: C_7  and  N_8
REMARK    4  A    between atoms: C_9  and  C_11
REMARK    5  A    between atoms: C_11  and  N_12
REMARK    6  A    between atoms: C_17  and  C_18
REMARK                            x       y       z     vdW  Elec       q    Type
REMARK                         _______ _______ _______ _____ _____    ______ ____
ROOT
ATOM      1  N   UNL     1       3.349   5.705  19.356  0.00  0.00    +0.000 N 
ATOM      2  N   UNL     1       4.687   5.534  19.656  0.00  0.00    +0.000 NA
ATOM      3  C   UNL     1       5.219   5.270  18.500  0.00  0.00    +0.000 A 
ATOM      4  C   UNL     1       6.626   4.981  18.227  0.00  0.00    +0.000 A 
ATOM      5  C   UNL     1       6.974   4.741  16.959  0.00  0.00    +0.000 A 
ATOM      6  C   UNL     1       5.908   4.767  15.909  0.00  0.00    +0.000 A 
ATOM      7  N   UNL     1       4.659   5.040  16.149  0.00  0.00    +0.000 NA
ATOM      8  N   UNL     1       4.360   5.280  17.455  0.00  0.00    +0.000 N 
ATOM      9  C   UNL     1       3.113   5.557  17.971  0.00  0.00    +0.000 A 
ATOM     10  O   UNL     1       2.033   5.651  17.406  0.00  0.00    +0.000 OA
ENDROOT
BRANCH   6  11
ATOM     11  C   UNL     1       6.352   4.496  14.513  0.00  0.00    +0.000 A 
ATOM     12  C   UNL     1       7.450   5.165  13.958  0.00  0.00    +0.000 A 
ATOM     13  C   UNL     1       7.795   4.958  12.622  0.00  0.00    +0.000 A 
ATOM     14  C   UNL     1       7.060   4.068  11.842  0.00  0.00    +0.000 A 
ATOM     15  C   UNL     1       5.993   3.365  12.402  0.00  0.00    +0.000 A 
ATOM     16  C   UNL     1       5.642   3.572  13.738  0.00  0.00    +0.000 A 
ENDBRANCH   6  11
BRANCH   1  17
ATOM     17  C   UNL     1       2.336   5.915  20.357  0.00  0.00    +0.000 C 
BRANCH  17  19
ATOM     18  N   UNL     1       0.868   7.601  21.366  0.00  0.00    +0.000 N 
ATOM     19  C   UNL     1       1.844   7.356  20.408  0.00  0.00    +0.000 C 
ATOM     20  O   UNL     1       2.217   8.148  19.544  0.00  0.00    +0.000 OA
ATOM     21  H   UNL     1       0.608   6.801  21.941  0.00  0.00    +0.000 HD
BRANCH  18  25
ATOM     22  C   UNL     1      -1.084  11.277  22.172  0.00  0.00    +0.000 A 
ATOM     23  C   UNL     1      -0.805  10.910  20.857  0.00  0.00    +0.000 A 
ATOM     24  C   UNL     1      -0.161   9.701  20.584  0.00  0.00    +0.000 A 
ATOM     25  C   UNL     1       0.213   8.828  21.608  0.00  0.00    +0.000 A 
ATOM     26  C   UNL     1      -0.070   9.196  22.930  0.00  0.00    +0.000 A 
ATOM     27  C   UNL     1      -0.712  10.414  23.211  0.00  0.00    +0.000 A 
BRANCH  22  29
ATOM     28  C   UNL     1      -3.162  12.522  23.067  0.00  0.00    +0.000 C 
ATOM     29  C   UNL     1      -1.769  12.566  22.486  0.00  0.00    +0.000 C 
ATOM     30  O   UNL     1      -1.194  13.633  22.279  0.00  0.00    +0.000 OA
ENDBRANCH  22  29
ENDBRANCH  18  25
ENDBRANCH  17  19
ENDBRANCH   1  17
TORSDOF 5
ENDMDL
MODEL 7
REMARK VINA RESULT:      -7.8      3.491      5.317
REMARK  Name = 
REMARK  6 active torsions:
REMARK  status: ('A' for Active; 'I' for Inactive)
REMARK    1  A    between atoms: C_1  and  C_2
REMARK    2  A    between atoms: C_2  and  C_4
REMARK    3  A    between atoms: C_7  and  N_8
REMARK    4  A    between atoms: C_9  and  C_11
REMARK    5  A    between atoms: C_11  and  N_12
REMARK    6  A    between atoms: C_17  and  C_18
REMARK                            x       y       z     vdW  Elec       q    Type
REMARK                         _______ _______ _______ _____ _____    ______ ____
ROOT
ATOM      1  N   UNL     1       1.153   8.743  19.728  0.00  0.00    +0.000 N 
ATOM      2  N   UNL     1       1.513   7.664  20.513  0.00  0.00    +0.000 NA
ATOM      3  C   UNL     1       2.376   7.034  19.773  0.00  0.00    +0.000 A 
ATOM      4  C   UNL     1       3.076   5.794  20.104  0.00  0.00    +0.000 A 
ATOM      5  C   UNL     1       3.937   5.309  19.204  0.00  0.00    +0.000 A 
ATOM      6  C   UNL     1       4.116   6.051  17.916  0.00  0.00    +0.000 A 
ATOM      7  N   UNL     1       3.505   7.162  17.627  0.00  0.00    +0.000 NA
ATOM      8  N   UNL     1       2.644   7.614  18.580  0.00  0.00    +0.000 N 
ATOM      9  C   UNL     1       1.857   8.741  18.502  0.00  0.00    +0.000 A 
ATOM     10  O   UNL     1       1.752   9.565  17.606  0.00  0.00    +0.000 OA
ENDROOT
BRANCH   6  11
ATOM     11  C   UNL     1       5.089   5.468  16.950  0.00  0.00    +0.000 A 
ATOM     12  C   UNL     1       6.331   6.071  16.717  0.00  0.00    +0.000 A 
ATOM     13  C   UNL     1       7.190   5.556  15.746  0.00  0.00    +0.000 A 
ATOM     14  C   UNL     1       6.823   4.425  15.020  0.00  0.00    +0.000 A 
ATOM     15  C   UNL     1       5.607   3.793  15.280  0.00  0.00    +0.000 A 
ATOM     16  C   UNL     1       4.742   4.308  16.248  0.00  0.00    +0.000 A 
ENDBRANCH   6  11
BRANCH   1  17
ATOM     17  C   UNL     1       0.125   9.680  20.097  0.00  0.00    +0.000 C 
BRANCH  17  19
ATOM     18  N   UNL     1       0.410  11.879  19.047  0.00  0.00    +0.000 N 
ATOM     19  C   UNL     1       0.633  11.113  20.185  0.00  0.00    +0.000 C 
ATOM     20  O   UNL     1       1.309  11.451  21.156  0.00  0.00    +0.000 OA
ATOM     21  H   UNL     1      -0.089  11.407  18.294  0.00  0.00    +0.000 HD
BRANCH  18  25
ATOM     22  C   UNL     1       1.524  15.926  18.458  0.00  0.00    +0.000 A 
ATOM     23  C   UNL     1       2.457  14.910  18.257  0.00  0.00    +0.000 A 
ATOM     24  C   UNL     1       2.097  13.574  18.450  0.00  0.00    +0.000 A 
ATOM     25  C   UNL     1       0.804  13.218  18.841  0.00  0.00    +0.000 A 
ATOM     26  C   UNL     1      -0.134  14.239  19.041  0.00  0.00    +0.000 A 
ATOM     27  C   UNL     1       0.225  15.585  18.854  0.00  0.00    +0.000 A 
BRANCH  22  29
ATOM     28  C   UNL     1       1.128  18.413  19.031  0.00  0.00    +0.000 C 
ATOM     29  C   UNL     1       1.890  17.360  18.261  0.00  0.00    +0.000 C 
ATOM     30  O   UNL     1       2.800  17.662  17.491  0.00  0.00    +0.000 OA
ENDBRANCH  22  29
ENDBRANCH  18  25
ENDBRANCH  17  19
ENDBRANCH   1  17
TORSDOF 5
ENDMDL
MODEL 8
REMARK VINA RESULT:      -7.8      4.098      6.310
REMARK  Name = 
REMARK  6 active torsions:
REMARK  status: ('A' for Active; 'I' for Inactive)
REMARK    1  A    between atoms: C_1  and  C_2
REMARK    2  A    between atoms: C_2  and  C_4
REMARK    3  A    between atoms: C_7  and  N_8
REMARK    4  A    between atoms: C_9  and  C_11
REMARK    5  A    between atoms: C_11  and  N_12
REMARK    6  A    between atoms: C_17  and  C_18
REMARK                            x       y       z     vdW  Elec       q    Type
REMARK                         _______ _______ _______ _____ _____    ______ ____
ROOT
ATOM      1  N   UNL     1       1.392   9.940  19.241  0.00  0.00    +0.000 N 
ATOM      2  N   UNL     1       1.140   9.315  20.448  0.00  0.00    +0.000 NA
ATOM      3  C   UNL     1       1.478   8.081  20.219  0.00  0.00    +0.000 A 
ATOM      4  C   UNL     1       1.398   6.961  21.155  0.00  0.00    +0.000 A 
ATOM      5  C   UNL     1       1.805   5.763  20.724  0.00  0.00    +0.000 A 
ATOM      6  C   UNL     1       2.297   5.641  19.316  0.00  0.00    +0.000 A 
ATOM      7  N   UNL     1       2.383   6.640  18.487  0.00  0.00    +0.000 NA
ATOM      8  N   UNL     1       1.960   7.837  18.978  0.00  0.00    +0.000 N 
ATOM      9  C   UNL     1       1.918   9.031  18.295  0.00  0.00    +0.000 A 
ATOM     10  O   UNL     1       2.238   9.290  17.144  0.00  0.00    +0.000 OA
ENDROOT
BRANCH   6  11
ATOM     11  C   UNL     1       2.740   4.284  18.889  0.00  0.00    +0.000 A 
ATOM     12  C   UNL     1       2.202   3.668  17.753  0.00  0.00    +0.000 A 
ATOM     13  C   UNL     1       2.569   2.364  17.421  0.00  0.00    +0.000 A 
ATOM     14  C   UNL     1       3.490   1.678  18.209  0.00  0.00    +0.000 A 
ATOM     15  C   UNL     1       4.064   2.302  19.316  0.00  0.00    +0.000 A 
ATOM     16  C   UNL     1       3.696   3.606  19.654  0.00  0.00    +0.000 A 
ENDBRANCH   6  11
BRANCH   1  17
ATOM     17  C   UNL     1       1.067  11.319  18.983  0.00  0.00    +0.000 C 
BRANCH  17  19
ATOM     18  N   UNL     1      -0.532  11.910  20.746  0.00  0.00    +0.000 N 
ATOM     19  C   UNL     1      -0.357  11.677  19.388  0.00  0.00    +0.000 C 
ATOM     20  O   UNL     1      -1.255  11.601  18.550  0.00  0.00    +0.000 OA
ATOM     21  H   UNL     1       0.311  11.841  21.314  0.00  0.00    +0.000 HD
BRANCH  18  25
ATOM     22  C   UNL     1      -4.138  12.831  22.777  0.00  0.00    +0.000 A 
ATOM     23  C   UNL     1      -3.994  13.157  21.429  0.00  0.00    +0.000 A 
ATOM     24  C   UNL     1      -2.808  12.857  20.754  0.00  0.00    +0.000 A 
ATOM     25  C   UNL     1      -1.744  12.223  21.399  0.00  0.00    +0.000 A 
ATOM     26  C   UNL     1      -1.889  11.894  22.752  0.00  0.00    +0.000 A 
ATOM     27  C   UNL     1      -3.078  12.199  23.438  0.00  0.00    +0.000 A 
BRANCH  22  29
ATOM     28  C   UNL     1      -5.742  14.594  23.771  0.00  0.00    +0.000 C 
ATOM     29  C   UNL     1      -5.395  13.146  23.517  0.00  0.00    +0.000 C 
ATOM     30  O   UNL     1      -6.128  12.236  23.897  0.00  0.00    +0.000 OA
ENDBRANCH  22  29
ENDBRANCH  18  25
ENDBRANCH  17  19
ENDBRANCH   1  17
TORSDOF 5
ENDMDL
MODEL 9
REMARK VINA RESULT:      -7.8      4.219      6.749
REMARK  Name = 
REMARK  6 active torsions:
REMARK  status: ('A' for Active; 'I' for Inactive)
REMARK    1  A    between atoms: C_1  and  C_2
REMARK    2  A    between atoms: C_2  and  C_4
REMARK    3  A    between atoms: C_7  and  N_8
REMARK    4  A    between atoms: C_9  and  C_11
REMARK    5  A    between atoms: C_11  and  N_12
REMARK    6  A    between atoms: C_17  and  C_18
REMARK                            x       y       z     vdW  Elec       q    Type
REMARK                         _______ _______ _______ _____ _____    ______ ____
ROOT
ATOM      1  N   UNL     1       1.354  10.356  18.787  0.00  0.00    +0.000 N 
ATOM      2  N   UNL     1       2.087   9.834  17.737  0.00  0.00    +0.000 NA
ATOM      3  C   UNL     1       2.342   8.621  18.127  0.00  0.00    +0.000 A 
ATOM      4  C   UNL     1       3.112   7.611  17.405  0.00  0.00    +0.000 A 
ATOM      5  C   UNL     1       3.253   6.412  17.979  0.00  0.00    +0.000 A 
ATOM      6  C   UNL     1       2.633   6.186  19.322  0.00  0.00    +0.000 A 
ATOM      7  N   UNL     1       1.934   7.080  19.958  0.00  0.00    +0.000 NA
ATOM      8  N   UNL     1       1.818   8.280  19.327  0.00  0.00    +0.000 N 
ATOM      9  C   UNL     1       1.162   9.394  19.804  0.00  0.00    +0.000 A 
ATOM     10  O   UNL     1       0.556   9.560  20.852  0.00  0.00    +0.000 OA
ENDROOT
BRANCH   6  11
ATOM     11  C   UNL     1       2.818   4.832  19.914  0.00  0.00    +0.000 A 
ATOM     12  C   UNL     1       2.016   4.385  20.971  0.00  0.00    +0.000 A 
ATOM     13  C   UNL     1       2.264   3.148  21.565  0.00  0.00    +0.000 A 
ATOM     14  C   UNL     1       3.298   2.343  21.094  0.00  0.00    +0.000 A 
ATOM     15  C   UNL     1       4.072   2.762  20.012  0.00  0.00    +0.000 A 
ATOM     16  C   UNL     1       3.830   4.002  19.417  0.00  0.00    +0.000 A 
ENDBRANCH   6  11
BRANCH   1  17
ATOM     17  C   UNL     1       0.932  11.731  18.849  0.00  0.00    +0.000 C 
BRANCH  17  19
ATOM     18  N   UNL     1      -0.538  12.298  20.728  0.00  0.00    +0.000 N 
ATOM     19  C   UNL     1      -0.478  11.893  19.401  0.00  0.00    +0.000 C 
ATOM     20  O   UNL     1      -1.435  11.535  18.716  0.00  0.00    +0.000 OA
ATOM     21  H   UNL     1       0.362  12.464  21.176  0.00  0.00    +0.000 HD
BRANCH  18  25
ATOM     22  C   UNL     1      -4.075  12.915  22.982  0.00  0.00    +0.000 A 
ATOM     23  C   UNL     1      -3.059  12.106  23.488  0.00  0.00    +0.000 A 
ATOM     24  C   UNL     1      -1.891  11.898  22.750  0.00  0.00    +0.000 A 
ATOM     25  C   UNL     1      -1.704  12.491  21.500  0.00  0.00    +0.000 A 
ATOM     26  C   UNL     1      -2.724  13.306  20.992  0.00  0.00    +0.000 A 
ATOM     27  C   UNL     1      -3.904  13.514  21.728  0.00  0.00    +0.000 A 
BRANCH  22  29
ATOM     28  C   UNL     1      -6.029  14.481  23.613  0.00  0.00    +0.000 C 
ATOM     29  C   UNL     1      -5.332  13.149  23.753  0.00  0.00    +0.000 C 
ATOM     30  O   UNL     1      -5.784  12.262  24.474  0.00  0.00    +0.000 OA
ENDBRANCH  22  29
ENDBRANCH  18  25
ENDBRANCH  17  19
ENDBRANCH   1  17
TORSDOF 5
ENDMDL
