MODEL 1
REMARK VINA RESULT:      -6.7      0.000      0.000
REMARK  Name = 
REMARK  6 active torsions:
REMARK  status: ('A' for Active; 'I' for Inactive)
REMARK    1  A    between atoms: C_1  and  C_2
REMARK    2  A    between atoms: C_2  and  C_3
REMARK    3  A    between atoms: C_2  and  C_4
REMARK    4  A    between atoms: C_2  and  C_5
REMARK    5  A    between atoms: C_5  and  C_7
REMARK    6  A    between atoms: C_7  and  N_8
REMARK                            x       y       z     vdW  Elec       q    Type
REMARK                         _______ _______ _______ _____ _____    ______ ____
ROOT
ATOM      1  N   UNL     1       4.835   3.776  18.536  0.00  0.00    +0.000 N 
ATOM      2  N   UNL     1       5.776   4.205  19.447  0.00  0.00    +0.000 NA
ATOM      3  C   UNL     1       6.451   5.258  19.129  0.00  0.00    +0.000 A 
ATOM      4  C   UNL     1       6.328   6.013  17.875  0.00  0.00    +0.000 A 
ATOM      5 CL   UNL     1       7.409   7.324  17.643  0.00  0.00    +0.000 Cl
ATOM      6  C   UNL     1       5.405   5.598  17.006  0.00  0.00    +0.000 A 
ATOM      7 CL   UNL     1       5.158   6.346  15.468  0.00  0.00    +0.000 Cl
ATOM      8  C   UNL     1       4.558   4.414  17.329  0.00  0.00    +0.000 A 
ATOM      9  O   UNL     1       3.701   4.011  16.545  0.00  0.00    +0.000 OA
ENDROOT
BRANCH   1  10
ATOM     10  C   UNL     1       4.084   2.578  18.895  0.00  0.00    +0.000 C 
BRANCH  10  11
ATOM     11  C   UNL     1       3.465   2.676  20.292  0.00  0.00    +0.000 C 
ATOM     12  O   UNL     1       4.039   2.225  21.290  0.00  0.00    +0.000 OA
BRANCH  11  14
ATOM     13  C   UNL     1       1.307   2.752  21.588  0.00  0.00    +0.000 C 
ATOM     14  C   UNL     1       2.086   3.371  20.413  0.00  0.00    +0.000 C 
ATOM     15  C   UNL     1       1.269   3.174  19.130  0.00  0.00    +0.000 C 
ATOM     16  C   UNL     1       2.275   4.869  20.685  0.00  0.00    +0.000 C 
ENDBRANCH  11  14
ENDBRANCH  10  11
ENDBRANCH   1  10
TORSDOF 3
ENDMDL
MODEL 2
REMARK VINA RESULT:      -6.7      0.053      1.087
REMARK  Name = 
REMARK  6 active torsions:
REMARK  status: ('A' for Active; 'I' for Inactive)
REMARK    1  A    between atoms: C_1  and  C_2
REMARK    2  A    between atoms: C_2  and  C_3
REMARK    3  A    between atoms: C_2  and  C_4
REMARK    4  A    between atoms: C_2  and  C_5
REMARK    5  A    between atoms: C_5  and  C_7
REMARK    6  A    between atoms: C_7  and  N_8
REMARK                            x       y       z     vdW  Elec       q    Type
REMARK                         _______ _______ _______ _____ _____    ______ ____
ROOT
ATOM      1  N   UNL     1       4.803   3.769  18.514  0.00  0.00    +0.000 N 
ATOM      2  N   UNL     1       5.719   4.215  19.442  0.00  0.00    +0.000 NA
ATOM      3  C   UNL     1       6.404   5.262  19.123  0.00  0.00    +0.000 A 
ATOM      4  C   UNL     1       6.314   5.994  17.854  0.00  0.00    +0.000 A 
ATOM      5 CL   UNL     1       7.401   7.301  17.627  0.00  0.00    +0.000 Cl
ATOM      6  C   UNL     1       5.414   5.564  16.968  0.00  0.00    +0.000 A 
ATOM      7 CL   UNL     1       5.208   6.285  15.411  0.00  0.00    +0.000 Cl
ATOM      8  C   UNL     1       4.558   4.386  17.289  0.00  0.00    +0.000 A 
ATOM      9  O   UNL     1       3.722   3.969  16.490  0.00  0.00    +0.000 OA
ENDROOT
BRANCH   1  10
ATOM     10  C   UNL     1       4.042   2.578  18.874  0.00  0.00    +0.000 C 
BRANCH  10  11
ATOM     11  C   UNL     1       3.469   2.659  20.292  0.00  0.00    +0.000 C 
ATOM     12  O   UNL     1       4.072   2.192  21.264  0.00  0.00    +0.000 OA
BRANCH  11  14
ATOM     13  C   UNL     1       1.275   3.192  19.177  0.00  0.00    +0.000 C 
ATOM     14  C   UNL     1       2.099   3.360  20.467  0.00  0.00    +0.000 C 
ATOM     15  C   UNL     1       2.290   4.859  20.730  0.00  0.00    +0.000 C 
ATOM     16  C   UNL     1       1.327   2.721  21.629  0.00  0.00    +0.000 C 
ENDBRANCH  11  14
ENDBRANCH  10  11
ENDBRANCH   1  10
TORSDOF 3
ENDMDL
MODEL 3
REMARK VINA RESULT:      -6.4      1.838      2.846
REMARK  Name = 
REMARK  6 active torsions:
REMARK  status: ('A' for Active; 'I' for Inactive)
REMARK    1  A    between atoms: C_1  and  C_2
REMARK    2  A    between atoms: C_2  and  C_3
REMARK    3  A    between atoms: C_2  and  C_4
REMARK    4  A    between atoms: C_2  and  C_5
REMARK    5  A    between atoms: C_5  and  C_7
REMARK    6  A    between atoms: C_7  and  N_8
REMARK                            x       y       z     vdW  Elec       q    Type
REMARK                         _______ _______ _______ _____ _____    ______ ____
ROOT
ATOM      1  N   UNL     1       4.873   4.783  17.240  0.00  0.00    +0.000 N 
ATOM      2  N   UNL     1       4.867   5.807  16.318  0.00  0.00    +0.000 NA
ATOM      3  C   UNL     1       5.768   6.720  16.461  0.00  0.00    +0.000 A 
ATOM      4  C   UNL     1       6.770   6.780  17.532  0.00  0.00    +0.000 A 
ATOM      5 CL   UNL     1       7.801   8.150  17.564  0.00  0.00    +0.000 Cl
ATOM      6  C   UNL     1       6.777   5.777  18.412  0.00  0.00    +0.000 A 
ATOM      7 CL   UNL     1       7.861   5.712  19.756  0.00  0.00    +0.000 Cl
ATOM      8  C   UNL     1       5.792   4.665  18.280  0.00  0.00    +0.000 A 
ATOM      9  O   UNL     1       5.777   3.730  19.078  0.00  0.00    +0.000 OA
ENDROOT
BRANCH   1  10
ATOM     10  C   UNL     1       3.844   3.761  17.082  0.00  0.00    +0.000 C 
BRANCH  10  11
ATOM     11  C   UNL     1       2.620   4.026  17.962  0.00  0.00    +0.000 C 
ATOM     12  O   UNL     1       1.966   5.071  17.870  0.00  0.00    +0.000 OA
BRANCH  11  14
ATOM     13  C   UNL     1       2.461   3.447  20.408  0.00  0.00    +0.000 C 
ATOM     14  C   UNL     1       2.223   2.926  18.979  0.00  0.00    +0.000 C 
ATOM     15  C   UNL     1       3.075   1.668  18.772  0.00  0.00    +0.000 C 
ATOM     16  C   UNL     1       0.736   2.580  18.824  0.00  0.00    +0.000 C 
ENDBRANCH  11  14
ENDBRANCH  10  11
ENDBRANCH   1  10
TORSDOF 3
ENDMDL
MODEL 4
REMARK VINA RESULT:      -6.3      1.854      2.827
REMARK  Name = 
REMARK  6 active torsions:
REMARK  status: ('A' for Active; 'I' for Inactive)
REMARK    1  A    between atoms: C_1  and  C_2
REMARK    2  A    between atoms: C_2  and  C_3
REMARK    3  A    between atoms: C_2  and  C_4
REMARK    4  A    between atoms: C_2  and  C_5
REMARK    5  A    between atoms: C_5  and  C_7
REMARK    6  A    between atoms: C_7  and  N_8
REMARK                            x       y       z     vdW  Elec       q    Type
REMARK                         _______ _______ _______ _____ _____    ______ ____
ROOT
ATOM      1  N   UNL     1       4.753   4.870  17.428  0.00  0.00    +0.000 N 
ATOM      2  N   UNL     1       4.744   5.889  16.501  0.00  0.00    +0.000 NA
ATOM      3  C   UNL     1       5.696   6.757  16.585  0.00  0.00    +0.000 A 
ATOM      4  C   UNL     1       6.761   6.770  17.595  0.00  0.00    +0.000 A 
ATOM      5 CL   UNL     1       7.858   8.087  17.557  0.00  0.00    +0.000 Cl
ATOM      6  C   UNL     1       6.770   5.772  18.480  0.00  0.00    +0.000 A 
ATOM      7 CL   UNL     1       7.926   5.658  19.758  0.00  0.00    +0.000 Cl
ATOM      8  C   UNL     1       5.725   4.710  18.414  0.00  0.00    +0.000 A 
ATOM      9  O   UNL     1       5.710   3.780  19.218  0.00  0.00    +0.000 OA
ENDROOT
BRANCH   1  10
ATOM     10  C   UNL     1       3.667   3.900  17.337  0.00  0.00    +0.000 C 
BRANCH  10  11
ATOM     11  C   UNL     1       2.604   4.114  18.418  0.00  0.00    +0.000 C 
ATOM     12  O   UNL     1       2.117   5.228  18.641  0.00  0.00    +0.000 OA
BRANCH  11  14
ATOM     13  C   UNL     1       0.686   2.547  18.879  0.00  0.00    +0.000 C 
ATOM     14  C   UNL     1       2.151   2.872  19.227  0.00  0.00    +0.000 C 
ATOM     15  C   UNL     1       2.243   3.147  20.733  0.00  0.00    +0.000 C 
ATOM     16  C   UNL     1       3.021   1.662  18.864  0.00  0.00    +0.000 C 
ENDBRANCH  11  14
ENDBRANCH  10  11
ENDBRANCH   1  10
TORSDOF 3
ENDMDL
MODEL 5
REMARK VINA RESULT:      -6.3      3.033      5.349
REMARK  Name = 
REMARK  6 active torsions:
REMARK  status: ('A' for Active; 'I' for Inactive)
REMARK    1  A    between atoms: C_1  and  C_2
REMARK    2  A    between atoms: C_2  and  C_3
REMARK    3  A    between atoms: C_2  and  C_4
REMARK    4  A    between atoms: C_2  and  C_5
REMARK    5  A    between atoms: C_5  and  C_7
REMARK    6  A    between atoms: C_7  and  N_8
REMARK                            x       y       z     vdW  Elec       q    Type
REMARK                         _______ _______ _______ _____ _____    ______ ____
ROOT
ATOM      1  N   UNL     1       4.777   4.062  19.286  0.00  0.00    +0.000 N 
ATOM      2  N   UNL     1       4.753   2.760  19.738  0.00  0.00    +0.000 NA
ATOM      3  C   UNL     1       3.723   2.406  20.430  0.00  0.00    +0.000 A 
ATOM      4  C   UNL     1       2.598   3.273  20.802  0.00  0.00    +0.000 A 
ATOM      5 CL   UNL     1       1.389   2.595  21.813  0.00  0.00    +0.000 Cl
ATOM      6  C   UNL     1       2.623   4.528  20.348  0.00  0.00    +0.000 A 
ATOM      7 CL   UNL     1       1.401   5.689  20.726  0.00  0.00    +0.000 Cl
ATOM      8  C   UNL     1       3.762   4.991  19.505  0.00  0.00    +0.000 A 
ATOM      9  O   UNL     1       3.810   6.142  19.075  0.00  0.00    +0.000 OA
ENDROOT
BRANCH   1  10
ATOM     10  C   UNL     1       5.950   4.460  18.515  0.00  0.00    +0.000 C 
BRANCH  10  11
ATOM     11  C   UNL     1       5.690   4.437  17.007  0.00  0.00    +0.000 C 
ATOM     12  O   UNL     1       5.018   3.546  16.476  0.00  0.00    +0.000 OA
BRANCH  11  14
ATOM     13  C   UNL     1       5.169   6.493  15.649  0.00  0.00    +0.000 C 
ATOM     14  C   UNL     1       6.300   5.584  16.162  0.00  0.00    +0.000 C 
ATOM     15  C   UNL     1       7.056   5.018  14.952  0.00  0.00    +0.000 C 
ATOM     16  C   UNL     1       7.252   6.423  17.024  0.00  0.00    +0.000 C 
ENDBRANCH  11  14
ENDBRANCH  10  11
ENDBRANCH   1  10
TORSDOF 3
ENDMDL
MODEL 6
REMARK VINA RESULT:      -6.3      3.037      5.409
REMARK  Name = 
REMARK  6 active torsions:
REMARK  status: ('A' for Active; 'I' for Inactive)
REMARK    1  A    between atoms: C_1  and  C_2
REMARK    2  A    between atoms: C_2  and  C_3
REMARK    3  A    between atoms: C_2  and  C_4
REMARK    4  A    between atoms: C_2  and  C_5
REMARK    5  A    between atoms: C_5  and  C_7
REMARK    6  A    between atoms: C_7  and  N_8
REMARK                            x       y       z     vdW  Elec       q    Type
REMARK                         _______ _______ _______ _____ _____    ______ ____
ROOT
ATOM      1  N   UNL     1       4.777   4.060  19.300  0.00  0.00    +0.000 N 
ATOM      2  N   UNL     1       4.754   2.756  19.746  0.00  0.00    +0.000 NA
ATOM      3  C   UNL     1       3.722   2.398  20.435  0.00  0.00    +0.000 A 
ATOM      4  C   UNL     1       2.596   3.262  20.809  0.00  0.00    +0.000 A 
ATOM      5 CL   UNL     1       1.387   2.579  21.815  0.00  0.00    +0.000 Cl
ATOM      6  C   UNL     1       2.621   4.519  20.361  0.00  0.00    +0.000 A 
ATOM      7 CL   UNL     1       1.398   5.678  20.742  0.00  0.00    +0.000 Cl
ATOM      8  C   UNL     1       3.761   4.987  19.522  0.00  0.00    +0.000 A 
ATOM      9  O   UNL     1       3.809   6.140  19.097  0.00  0.00    +0.000 OA
ENDROOT
BRANCH   1  10
ATOM     10  C   UNL     1       5.951   4.463  18.534  0.00  0.00    +0.000 C 
BRANCH  10  11
ATOM     11  C   UNL     1       5.697   4.436  17.024  0.00  0.00    +0.000 C 
ATOM     12  O   UNL     1       5.044   3.532  16.490  0.00  0.00    +0.000 OA
BRANCH  11  14
ATOM     13  C   UNL     1       7.049   5.010  14.978  0.00  0.00    +0.000 C 
ATOM     14  C   UNL     1       6.288   5.595  16.182  0.00  0.00    +0.000 C 
ATOM     15  C   UNL     1       7.269   6.424  17.021  0.00  0.00    +0.000 C 
ATOM     16  C   UNL     1       5.160   6.494  15.660  0.00  0.00    +0.000 C 
ENDBRANCH  11  14
ENDBRANCH  10  11
ENDBRANCH   1  10
TORSDOF 3
ENDMDL
MODEL 7
REMARK VINA RESULT:      -6.3      3.103      5.227
REMARK  Name = 
REMARK  6 active torsions:
REMARK  status: ('A' for Active; 'I' for Inactive)
REMARK    1  A    between atoms: C_1  and  C_2
REMARK    2  A    between atoms: C_2  and  C_3
REMARK    3  A    between atoms: C_2  and  C_4
REMARK    4  A    between atoms: C_2  and  C_5
REMARK    5  A    between atoms: C_5  and  C_7
REMARK    6  A    between atoms: C_7  and  N_8
REMARK                            x       y       z     vdW  Elec       q    Type
REMARK                         _______ _______ _______ _____ _____    ______ ____
ROOT
ATOM      1  N   UNL     1       5.074   4.809  19.199  0.00  0.00    +0.000 N 
ATOM      2  N   UNL     1       5.320   3.475  19.441  0.00  0.00    +0.000 NA
ATOM      3  C   UNL     1       4.352   2.790  19.951  0.00  0.00    +0.000 A 
ATOM      4  C   UNL     1       3.032   3.314  20.326  0.00  0.00    +0.000 A 
ATOM      5 CL   UNL     1       1.944   2.224  21.080  0.00  0.00    +0.000 Cl
ATOM      6  C   UNL     1       2.799   4.603  20.076  0.00  0.00    +0.000 A 
ATOM      7 CL   UNL     1       1.316   5.388  20.490  0.00  0.00    +0.000 Cl
ATOM      8  C   UNL     1       3.858   5.443  19.445  0.00  0.00    +0.000 A 
ATOM      9  O   UNL     1       3.668   6.634  19.205  0.00  0.00    +0.000 OA
ENDROOT
BRANCH   1  10
ATOM     10  C   UNL     1       6.175   5.581  18.634  0.00  0.00    +0.000 C 
BRANCH  10  11
ATOM     11  C   UNL     1       6.746   4.938  17.367  0.00  0.00    +0.000 C 
ATOM     12  O   UNL     1       7.836   4.354  17.368  0.00  0.00    +0.000 OA
BRANCH  11  14
ATOM     13  C   UNL     1       6.823   4.896  14.850  0.00  0.00    +0.000 C 
ATOM     14  C   UNL     1       5.900   5.040  16.074  0.00  0.00    +0.000 C 
ATOM     15  C   UNL     1       5.199   6.403  15.995  0.00  0.00    +0.000 C 
ATOM     16  C   UNL     1       4.857   3.916  16.037  0.00  0.00    +0.000 C 
ENDBRANCH  11  14
ENDBRANCH  10  11
ENDBRANCH   1  10
TORSDOF 3
ENDMDL
MODEL 8
REMARK VINA RESULT:      -6.3      1.744      2.664
REMARK  Name = 
REMARK  6 active torsions:
REMARK  status: ('A' for Active; 'I' for Inactive)
REMARK    1  A    between atoms: C_1  and  C_2
REMARK    2  A    between atoms: C_2  and  C_3
REMARK    3  A    between atoms: C_2  and  C_4
REMARK    4  A    between atoms: C_2  and  C_5
REMARK    5  A    between atoms: C_5  and  C_7
REMARK    6  A    between atoms: C_7  and  N_8
REMARK                            x       y       z     vdW  Elec       q    Type
REMARK                         _______ _______ _______ _____ _____    ______ ____
ROOT
ATOM      1  N   UNL     1       4.673   4.690  17.543  0.00  0.00    +0.000 N 
ATOM      2  N   UNL     1       4.574   5.671  16.580  0.00  0.00    +0.000 NA
ATOM      3  C   UNL     1       5.483   6.587  16.590  0.00  0.00    +0.000 A 
ATOM      4  C   UNL     1       6.587   6.692  17.552  0.00  0.00    +0.000 A 
ATOM      5 CL   UNL     1       7.614   8.059  17.417  0.00  0.00    +0.000 Cl
ATOM      6  C   UNL     1       6.684   5.730  18.472  0.00  0.00    +0.000 A 
ATOM      7 CL   UNL     1       7.897   5.723  19.702  0.00  0.00    +0.000 Cl
ATOM      8  C   UNL     1       5.692   4.617  18.490  0.00  0.00    +0.000 A 
ATOM      9  O   UNL     1       5.758   3.719  19.328  0.00  0.00    +0.000 OA
ENDROOT
BRANCH   1  10
ATOM     10  C   UNL     1       3.635   3.665  17.535  0.00  0.00    +0.000 C 
BRANCH  10  11
ATOM     11  C   UNL     1       2.340   4.144  18.195  0.00  0.00    +0.000 C 
ATOM     12  O   UNL     1       1.500   4.807  17.576  0.00  0.00    +0.000 OA
BRANCH  11  14
ATOM     13  C   UNL     1       2.889   2.469  19.994  0.00  0.00    +0.000 C 
ATOM     14  C   UNL     1       2.112   3.761  19.679  0.00  0.00    +0.000 C 
ATOM     15  C   UNL     1       0.623   3.509  19.949  0.00  0.00    +0.000 C 
ATOM     16  C   UNL     1       2.626   4.878  20.596  0.00  0.00    +0.000 C 
ENDBRANCH  11  14
ENDBRANCH  10  11
ENDBRANCH   1  10
TORSDOF 3
ENDMDL
MODEL 9
REMARK VINA RESULT:      -6.3      3.103      5.132
REMARK  Name = 
REMARK  6 active torsions:
REMARK  status: ('A' for Active; 'I' for Inactive)
REMARK    1  A    between atoms: C_1  and  C_2
REMARK    2  A    between atoms: C_2  and  C_3
REMARK    3  A    between atoms: C_2  and  C_4
REMARK    4  A    between atoms: C_2  and  C_5
REMARK    5  A    between atoms: C_5  and  C_7
REMARK    6  A    between atoms: C_7  and  N_8
REMARK                            x       y       z     vdW  Elec       q    Type
REMARK                         _______ _______ _______ _____ _____    ______ ____
ROOT
ATOM      1  N   UNL     1       5.074   4.814  19.195  0.00  0.00    +0.000 N 
ATOM      2  N   UNL     1       5.328   3.482  19.437  0.00  0.00    +0.000 NA
ATOM      3  C   UNL     1       4.364   2.792  19.950  0.00  0.00    +0.000 A 
ATOM      4  C   UNL     1       3.043   3.309  20.326  0.00  0.00    +0.000 A 
ATOM      5 CL   UNL     1       1.962   2.213  21.083  0.00  0.00    +0.000 Cl
ATOM      6  C   UNL     1       2.801   4.597  20.076  0.00  0.00    +0.000 A 
ATOM      7 CL   UNL     1       1.316   5.374  20.493  0.00  0.00    +0.000 Cl
ATOM      8  C   UNL     1       3.855   5.441  19.443  0.00  0.00    +0.000 A 
ATOM      9  O   UNL     1       3.658   6.631  19.203  0.00  0.00    +0.000 OA
ENDROOT
BRANCH   1  10
ATOM     10  C   UNL     1       6.170   5.592  18.628  0.00  0.00    +0.000 C 
BRANCH  10  11
ATOM     11  C   UNL     1       6.744   4.949  17.362  0.00  0.00    +0.000 C 
ATOM     12  O   UNL     1       7.829   4.357  17.367  0.00  0.00    +0.000 OA
BRANCH  11  14
ATOM     13  C   UNL     1       4.844   3.948  16.046  0.00  0.00    +0.000 C 
ATOM     14  C   UNL     1       5.906   5.063  16.063  0.00  0.00    +0.000 C 
ATOM     15  C   UNL     1       6.802   4.900  14.828  0.00  0.00    +0.000 C 
ATOM     16  C   UNL     1       5.194   6.421  16.015  0.00  0.00    +0.000 C 
ENDBRANCH  11  14
ENDBRANCH  10  11
ENDBRANCH   1  10
TORSDOF 3
ENDMDL
