MODEL 1
REMARK VINA RESULT:      -8.0      0.000      0.000
REMARK  Name = 
REMARK  6 active torsions:
REMARK  status: ('A' for Active; 'I' for Inactive)
REMARK    1  A    between atoms: C_1  and  O_2
REMARK    2  A    between atoms: O_2  and  C_3
REMARK    3  A    between atoms: C_7  and  C_8
REMARK    4  A    between atoms: C_8  and  C_9
REMARK    5  A    between atoms: C_19  and  O_20
REMARK    6  A    between atoms: O_20  and  C_21
REMARK                            x       y       z     vdW  Elec       q    Type
REMARK                         _______ _______ _______ _____ _____    ______ ____
ROOT
ATOM      1  C   UNL     1      -0.159  10.181  22.253  0.00  0.00    +0.000 A 
ATOM      2  C   UNL     1       0.729   9.252  22.776  0.00  0.00    +0.000 A 
ATOM      3  C   UNL     1       1.494   8.465  21.916  0.00  0.00    +0.000 A 
ATOM      4  C   UNL     1       1.419   8.595  20.511  0.00  0.00    +0.000 A 
ATOM      5  C   UNL     1       2.111   7.772  19.598  0.00  0.00    +0.000 A 
ATOM      6  N   UNL     1       2.050   8.000  18.264  0.00  0.00    +0.000 NA
ATOM      7  N   UNL     1       1.337   9.042  17.765  0.00  0.00    +0.000 NA
ATOM      8  C   UNL     1       0.643   9.835  18.604  0.00  0.00    +0.000 A 
ATOM      9  C   UNL     1       0.596   9.617  19.988  0.00  0.00    +0.000 A 
ATOM     10  C   UNL     1      -0.226  10.362  20.871  0.00  0.00    +0.000 A 
ENDROOT
BRANCH   1  12
ATOM     11  C   UNL     1      -1.715  11.959  22.285  0.00  0.00    +0.000 C 
ATOM     12  O   UNL     1      -1.025  10.934  22.999  0.00  0.00    +0.000 OA
ENDBRANCH   1  12
BRANCH   5  13
ATOM     13  C   UNL     1       2.850   6.505  19.984  0.00  0.00    +0.000 C 
BRANCH  13  14
ATOM     14  C   UNL     1       2.717   5.370  18.986  0.00  0.00    +0.000 A 
ATOM     15  C   UNL     1       3.570   5.255  17.874  0.00  0.00    +0.000 A 
ATOM     16 CL   UNL     1       4.935   6.276  17.615  0.00  0.00    +0.000 Cl
ATOM     17  C   UNL     1       3.350   4.242  16.944  0.00  0.00    +0.000 A 
ATOM     18  N   UNL     1       2.355   3.333  17.031  0.00  0.00    +0.000 NA
ATOM     19  C   UNL     1       1.563   3.428  18.122  0.00  0.00    +0.000 A 
ATOM     20  C   UNL     1       1.710   4.394  19.115  0.00  0.00    +0.000 A 
ATOM     21 CL   UNL     1       0.669   4.275  20.487  0.00  0.00    +0.000 Cl
ENDBRANCH  13  14
ENDBRANCH   5  13
BRANCH   8  22
ATOM     22  O   UNL     1      -0.040  10.915  18.065  0.00  0.00    +0.000 OA
BRANCH  22  23
ATOM     23  C   UNL     1      -1.401  10.783  17.870  0.00  0.00    +0.000 A 
ATOM     24  C   UNL     1      -2.220  11.722  18.502  0.00  0.00    +0.000 A 
ATOM     25  C   UNL     1      -3.603  11.688  18.322  0.00  0.00    +0.000 A 
ATOM     26  C   UNL     1      -4.175  10.719  17.498  0.00  0.00    +0.000 A 
ATOM     27  C   UNL     1      -3.367   9.786  16.853  0.00  0.00    +0.000 A 
ATOM     28  C   UNL     1      -1.979   9.827  17.024  0.00  0.00    +0.000 A 
ENDBRANCH  22  23
ENDBRANCH   8  22
TORSDOF 5
ENDMDL
MODEL 2
REMARK VINA RESULT:      -7.8      0.220      1.732
REMARK  Name = 
REMARK  6 active torsions:
REMARK  status: ('A' for Active; 'I' for Inactive)
REMARK    1  A    between atoms: C_1  and  O_2
REMARK    2  A    between atoms: O_2  and  C_3
REMARK    3  A    between atoms: C_7  and  C_8
REMARK    4  A    between atoms: C_8  and  C_9
REMARK    5  A    between atoms: C_19  and  O_20
REMARK    6  A    between atoms: O_20  and  C_21
REMARK                            x       y       z     vdW  Elec       q    Type
REMARK                         _______ _______ _______ _____ _____    ______ ____
ROOT
ATOM      1  C   UNL     1       0.133  10.179  22.386  0.00  0.00    +0.000 A 
ATOM      2  C   UNL     1       1.037   9.228  22.834  0.00  0.00    +0.000 A 
ATOM      3  C   UNL     1       1.719   8.432  21.913  0.00  0.00    +0.000 A 
ATOM      4  C   UNL     1       1.540   8.575  20.518  0.00  0.00    +0.000 A 
ATOM      5  C   UNL     1       2.143   7.746  19.550  0.00  0.00    +0.000 A 
ATOM      6  N   UNL     1       1.986   7.986  18.226  0.00  0.00    +0.000 NA
ATOM      7  N   UNL     1       1.260   9.046  17.789  0.00  0.00    +0.000 NA
ATOM      8  C   UNL     1       0.649   9.846  18.684  0.00  0.00    +0.000 A 
ATOM      9  C   UNL     1       0.701   9.618  20.066  0.00  0.00    +0.000 A 
ATOM     10  C   UNL     1      -0.035  10.372  21.014  0.00  0.00    +0.000 A 
ENDROOT
BRANCH   1  12
ATOM     11  C   UNL     1      -1.757  11.588  22.556  0.00  0.00    +0.000 C 
ATOM     12  O   UNL     1      -0.658  10.944  23.200  0.00  0.00    +0.000 OA
ENDBRANCH   1  12
BRANCH   5  13
ATOM     13  C   UNL     1       2.883   6.460  19.871  0.00  0.00    +0.000 C 
BRANCH  13  14
ATOM     14  C   UNL     1       2.649   5.336  18.879  0.00  0.00    +0.000 A 
ATOM     15  C   UNL     1       1.665   4.352  19.089  0.00  0.00    +0.000 A 
ATOM     16 CL   UNL     1       0.531   4.407  20.387  0.00  0.00    +0.000 Cl
ATOM     17  C   UNL     1       1.551   3.295  18.190  0.00  0.00    +0.000 A 
ATOM     18  N   UNL     1       2.329   3.138  17.098  0.00  0.00    +0.000 NA
ATOM     19  C   UNL     1       3.247   4.108  16.884  0.00  0.00    +0.000 A 
ATOM     20  C   UNL     1       3.430   5.210  17.714  0.00  0.00    +0.000 A 
ATOM     21 CL   UNL     1       4.577   6.397  17.205  0.00  0.00    +0.000 Cl
ENDBRANCH  13  14
ENDBRANCH   5  13
BRANCH   8  22
ATOM     22  O   UNL     1      -0.050  10.944  18.206  0.00  0.00    +0.000 OA
BRANCH  22  23
ATOM     23  C   UNL     1      -1.396  10.785  17.939  0.00  0.00    +0.000 A 
ATOM     24  C   UNL     1      -2.267  11.702  18.532  0.00  0.00    +0.000 A 
ATOM     25  C   UNL     1      -3.638  11.639  18.280  0.00  0.00    +0.000 A 
ATOM     26  C   UNL     1      -4.146  10.664  17.424  0.00  0.00    +0.000 A 
ATOM     27  C   UNL     1      -3.284   9.752  16.817  0.00  0.00    +0.000 A 
ATOM     28  C   UNL     1      -1.909   9.822  17.060  0.00  0.00    +0.000 A 
ENDBRANCH  22  23
ENDBRANCH   8  22
TORSDOF 5
ENDMDL
MODEL 3
REMARK VINA RESULT:      -7.4      1.581      2.314
REMARK  Name = 
REMARK  6 active torsions:
REMARK  status: ('A' for Active; 'I' for Inactive)
REMARK    1  A    between atoms: C_1  and  O_2
REMARK    2  A    between atoms: O_2  and  C_3
REMARK    3  A    between atoms: C_7  and  C_8
REMARK    4  A    between atoms: C_8  and  C_9
REMARK    5  A    between atoms: C_19  and  O_20
REMARK    6  A    between atoms: O_20  and  C_21
REMARK                            x       y       z     vdW  Elec       q    Type
REMARK                         _______ _______ _______ _____ _____    ______ ____
ROOT
ATOM      1  C   UNL     1      -0.346  10.052  22.257  0.00  0.00    +0.000 A 
ATOM      2  C   UNL     1       0.561   9.144  22.782  0.00  0.00    +0.000 A 
ATOM      3  C   UNL     1       1.385   8.414  21.926  0.00  0.00    +0.000 A 
ATOM      4  C   UNL     1       1.350   8.582  20.523  0.00  0.00    +0.000 A 
ATOM      5  C   UNL     1       2.103   7.815  19.611  0.00  0.00    +0.000 A 
ATOM      6  N   UNL     1       2.075   8.080  18.283  0.00  0.00    +0.000 NA
ATOM      7  N   UNL     1       1.338   9.107  17.790  0.00  0.00    +0.000 NA
ATOM      8  C   UNL     1       0.586   9.847  18.628  0.00  0.00    +0.000 A 
ATOM      9  C   UNL     1       0.503   9.586  20.002  0.00  0.00    +0.000 A 
ATOM     10  C   UNL     1      -0.376  10.271  20.879  0.00  0.00    +0.000 A 
ENDROOT
BRANCH   1  12
ATOM     11  C   UNL     1      -1.182  12.169  22.894  0.00  0.00    +0.000 C 
ATOM     12  O   UNL     1      -1.266  10.748  22.994  0.00  0.00    +0.000 OA
ENDBRANCH   1  12
BRANCH   5  13
ATOM     13  C   UNL     1       2.880   6.567  19.985  0.00  0.00    +0.000 C 
BRANCH  13  14
ATOM     14  C   UNL     1       2.744   5.421  18.999  0.00  0.00    +0.000 A 
ATOM     15  C   UNL     1       3.608   5.283  17.898  0.00  0.00    +0.000 A 
ATOM     16 CL   UNL     1       4.989   6.283  17.643  0.00  0.00    +0.000 Cl
ATOM     17  C   UNL     1       3.385   4.262  16.977  0.00  0.00    +0.000 A 
ATOM     18  N   UNL     1       2.379   3.366  17.064  0.00  0.00    +0.000 NA
ATOM     19  C   UNL     1       1.576   3.484  18.145  0.00  0.00    +0.000 A 
ATOM     20  C   UNL     1       1.724   4.459  19.128  0.00  0.00    +0.000 A 
ATOM     21 CL   UNL     1       0.665   4.371  20.490  0.00  0.00    +0.000 Cl
ENDBRANCH  13  14
ENDBRANCH   5  13
BRANCH   8  22
ATOM     22  O   UNL     1      -0.122  10.915  18.097  0.00  0.00    +0.000 OA
BRANCH  22  23
ATOM     23  C   UNL     1       0.344  12.189  18.356  0.00  0.00    +0.000 A 
ATOM     24  C   UNL     1      -0.617  13.171  18.605  0.00  0.00    +0.000 A 
ATOM     25  C   UNL     1      -0.231  14.475  18.917  0.00  0.00    +0.000 A 
ATOM     26  C   UNL     1       1.122  14.802  18.995  0.00  0.00    +0.000 A 
ATOM     27  C   UNL     1       2.089  13.827  18.761  0.00  0.00    +0.000 A 
ATOM     28  C   UNL     1       1.702  12.517  18.459  0.00  0.00    +0.000 A 
ENDBRANCH  22  23
ENDBRANCH   8  22
TORSDOF 5
ENDMDL
MODEL 4
REMARK VINA RESULT:      -7.3      1.613      2.901
REMARK  Name = 
REMARK  6 active torsions:
REMARK  status: ('A' for Active; 'I' for Inactive)
REMARK    1  A    between atoms: C_1  and  O_2
REMARK    2  A    between atoms: O_2  and  C_3
REMARK    3  A    between atoms: C_7  and  C_8
REMARK    4  A    between atoms: C_8  and  C_9
REMARK    5  A    between atoms: C_19  and  O_20
REMARK    6  A    between atoms: O_20  and  C_21
REMARK                            x       y       z     vdW  Elec       q    Type
REMARK                         _______ _______ _______ _____ _____    ______ ____
ROOT
ATOM      1  C   UNL     1      -0.261  10.044  22.302  0.00  0.00    +0.000 A 
ATOM      2  C   UNL     1       0.666   9.129  22.779  0.00  0.00    +0.000 A 
ATOM      3  C   UNL     1       1.464   8.420  21.881  0.00  0.00    +0.000 A 
ATOM      4  C   UNL     1       1.383   8.618  20.484  0.00  0.00    +0.000 A 
ATOM      5  C   UNL     1       2.109   7.874  19.531  0.00  0.00    +0.000 A 
ATOM      6  N   UNL     1       2.037   8.166  18.211  0.00  0.00    +0.000 NA
ATOM      7  N   UNL     1       1.280   9.200  17.764  0.00  0.00    +0.000 NA
ATOM      8  C   UNL     1       0.553   9.919  18.641  0.00  0.00    +0.000 A 
ATOM      9  C   UNL     1       0.516   9.629  20.012  0.00  0.00    +0.000 A 
ATOM     10  C   UNL     1      -0.336  10.292  20.931  0.00  0.00    +0.000 A 
ENDROOT
BRANCH   1  12
ATOM     11  C   UNL     1      -1.213  12.130  22.873  0.00  0.00    +0.000 C 
ATOM     12  O   UNL     1      -1.158  10.720  23.084  0.00  0.00    +0.000 OA
ENDBRANCH   1  12
BRANCH   5  13
ATOM     13  C   UNL     1       2.902   6.621  19.853  0.00  0.00    +0.000 C 
BRANCH  13  14
ATOM     14  C   UNL     1       2.674   5.467  18.895  0.00  0.00    +0.000 A 
ATOM     15  C   UNL     1       1.690   4.490  19.131  0.00  0.00    +0.000 A 
ATOM     16 CL   UNL     1       0.550   4.582  20.421  0.00  0.00    +0.000 Cl
ATOM     17  C   UNL     1       1.579   3.406  18.263  0.00  0.00    +0.000 A 
ATOM     18  N   UNL     1       2.363   3.217  17.179  0.00  0.00    +0.000 NA
ATOM     19  C   UNL     1       3.281   4.180  16.940  0.00  0.00    +0.000 A 
ATOM     20  C   UNL     1       3.460   5.307  17.738  0.00  0.00    +0.000 A 
ATOM     21 CL   UNL     1       4.608   6.479  17.198  0.00  0.00    +0.000 Cl
ENDBRANCH  13  14
ENDBRANCH   5  13
BRANCH   8  22
ATOM     22  O   UNL     1      -0.176  10.995  18.157  0.00  0.00    +0.000 OA
BRANCH  22  23
ATOM     23  C   UNL     1       0.319  12.264  18.388  0.00  0.00    +0.000 A 
ATOM     24  C   UNL     1      -0.619  13.262  18.665  0.00  0.00    +0.000 A 
ATOM     25  C   UNL     1      -0.202  14.562  18.952  0.00  0.00    +0.000 A 
ATOM     26  C   UNL     1       1.157  14.870  18.976  0.00  0.00    +0.000 A 
ATOM     27  C   UNL     1       2.101  13.879  18.714  0.00  0.00    +0.000 A 
ATOM     28  C   UNL     1       1.684  12.573  18.436  0.00  0.00    +0.000 A 
ENDBRANCH  22  23
ENDBRANCH   8  22
TORSDOF 5
ENDMDL
MODEL 5
REMARK VINA RESULT:      -7.1      2.746      4.183
REMARK  Name = 
REMARK  6 active torsions:
REMARK  status: ('A' for Active; 'I' for Inactive)
REMARK    1  A    between atoms: C_1  and  O_2
REMARK    2  A    between atoms: O_2  and  C_3
REMARK    3  A    between atoms: C_7  and  C_8
REMARK    4  A    between atoms: C_8  and  C_9
REMARK    5  A    between atoms: C_19  and  O_20
REMARK    6  A    between atoms: O_20  and  C_21
REMARK                            x       y       z     vdW  Elec       q    Type
REMARK                         _______ _______ _______ _____ _____    ______ ____
ROOT
ATOM      1  C   UNL     1       0.132   8.998  21.838  0.00  0.00    +0.000 A 
ATOM      2  C   UNL     1       0.713   7.742  21.750  0.00  0.00    +0.000 A 
ATOM      3  C   UNL     1       1.396   7.374  20.591  0.00  0.00    +0.000 A 
ATOM      4  C   UNL     1       1.544   8.252  19.494  0.00  0.00    +0.000 A 
ATOM      5  C   UNL     1       2.156   7.904  18.272  0.00  0.00    +0.000 A 
ATOM      6  N   UNL     1       2.329   8.820  17.289  0.00  0.00    +0.000 NA
ATOM      7  N   UNL     1       1.939  10.108  17.457  0.00  0.00    +0.000 NA
ATOM      8  C   UNL     1       1.329  10.474  18.602  0.00  0.00    +0.000 A 
ATOM      9  C   UNL     1       1.046   9.568  19.633  0.00  0.00    +0.000 A 
ATOM     10  C   UNL     1       0.296   9.903  20.788  0.00  0.00    +0.000 A 
ENDROOT
BRANCH   1  12
ATOM     11  C   UNL     1      -0.893  10.830  22.923  0.00  0.00    +0.000 C 
ATOM     12  O   UNL     1      -0.641   9.427  22.883  0.00  0.00    +0.000 OA
ENDBRANCH   1  12
BRANCH   5  13
ATOM     13  C   UNL     1       2.538   6.488  17.884  0.00  0.00    +0.000 C 
BRANCH  13  14
ATOM     14  C   UNL     1       3.993   6.137  18.133  0.00  0.00    +0.000 A 
ATOM     15  C   UNL     1       4.401   5.432  19.280  0.00  0.00    +0.000 A 
ATOM     16 CL   UNL     1       3.299   4.761  20.423  0.00  0.00    +0.000 Cl
ATOM     17  C   UNL     1       5.758   5.211  19.501  0.00  0.00    +0.000 A 
ATOM     18  N   UNL     1       6.741   5.629  18.674  0.00  0.00    +0.000 NA
ATOM     19  C   UNL     1       6.337   6.273  17.556  0.00  0.00    +0.000 A 
ATOM     20  C   UNL     1       5.006   6.529  17.237  0.00  0.00    +0.000 A 
ATOM     21 CL   UNL     1       4.691   7.263  15.706  0.00  0.00    +0.000 Cl
ENDBRANCH  13  14
ENDBRANCH   5  13
BRANCH   8  22
ATOM     22  O   UNL     1       0.981  11.807  18.758  0.00  0.00    +0.000 OA
BRANCH  22  23
ATOM     23  C   UNL     1       1.971  12.690  19.143  0.00  0.00    +0.000 A 
ATOM     24  C   UNL     1       2.700  13.300  18.119  0.00  0.00    +0.000 A 
ATOM     25  C   UNL     1       3.690  14.238  18.419  0.00  0.00    +0.000 A 
ATOM     26  C   UNL     1       3.948  14.579  19.745  0.00  0.00    +0.000 A 
ATOM     27  C   UNL     1       3.218  13.986  20.773  0.00  0.00    +0.000 A 
ATOM     28  C   UNL     1       2.219  13.054  20.473  0.00  0.00    +0.000 A 
ENDBRANCH  22  23
ENDBRANCH   8  22
TORSDOF 5
ENDMDL
MODEL 6
REMARK VINA RESULT:      -7.0      4.400      8.676
REMARK  Name = 
REMARK  6 active torsions:
REMARK  status: ('A' for Active; 'I' for Inactive)
REMARK    1  A    between atoms: C_1  and  O_2
REMARK    2  A    between atoms: O_2  and  C_3
REMARK    3  A    between atoms: C_7  and  C_8
REMARK    4  A    between atoms: C_8  and  C_9
REMARK    5  A    between atoms: C_19  and  O_20
REMARK    6  A    between atoms: O_20  and  C_21
REMARK                            x       y       z     vdW  Elec       q    Type
REMARK                         _______ _______ _______ _____ _____    ______ ____
ROOT
ATOM      1  C   UNL     1      -3.132  10.437  16.998  0.00  0.00    +0.000 A 
ATOM      2  C   UNL     1      -4.253  11.084  17.495  0.00  0.00    +0.000 A 
ATOM      3  C   UNL     1      -4.156  11.836  18.666  0.00  0.00    +0.000 A 
ATOM      4  C   UNL     1      -2.936  11.987  19.364  0.00  0.00    +0.000 A 
ATOM      5  C   UNL     1      -2.801  12.669  20.591  0.00  0.00    +0.000 A 
ATOM      6  N   UNL     1      -1.587  12.839  21.168  0.00  0.00    +0.000 NA
ATOM      7  N   UNL     1      -0.459  12.376  20.572  0.00  0.00    +0.000 NA
ATOM      8  C   UNL     1      -0.551  11.698  19.411  0.00  0.00    +0.000 A 
ATOM      9  C   UNL     1      -1.776  11.417  18.793  0.00  0.00    +0.000 A 
ATOM     10  C   UNL     1      -1.905  10.600  17.641  0.00  0.00    +0.000 A 
ENDROOT
BRANCH   1  12
ATOM     11  C   UNL     1      -3.138  10.241  14.643  0.00  0.00    +0.000 C 
ATOM     12  O   UNL     1      -3.135   9.598  15.916  0.00  0.00    +0.000 OA
ENDBRANCH   1  12
BRANCH   5  13
ATOM     13  C   UNL     1      -3.968  13.140  21.438  0.00  0.00    +0.000 C 
BRANCH  13  14
ATOM     14  C   UNL     1      -3.603  14.154  22.505  0.00  0.00    +0.000 A 
ATOM     15  C   UNL     1      -3.257  15.480  22.183  0.00  0.00    +0.000 A 
ATOM     16 CL   UNL     1      -3.365  16.127  20.589  0.00  0.00    +0.000 Cl
ATOM     17  C   UNL     1      -2.848  16.345  23.194  0.00  0.00    +0.000 A 
ATOM     18  N   UNL     1      -2.760  16.005  24.497  0.00  0.00    +0.000 NA
ATOM     19  C   UNL     1      -3.130  14.741  24.803  0.00  0.00    +0.000 A 
ATOM     20  C   UNL     1      -3.567  13.805  23.869  0.00  0.00    +0.000 A 
ATOM     21 CL   UNL     1      -4.104  12.280  24.475  0.00  0.00    +0.000 Cl
ENDBRANCH  13  14
ENDBRANCH   5  13
BRANCH   8  22
ATOM     22  O   UNL     1       0.624  11.276  18.808  0.00  0.00    +0.000 OA
BRANCH  22  23
ATOM     23  C   UNL     1       1.080  10.007  19.105  0.00  0.00    +0.000 A 
ATOM     24  C   UNL     1       1.755   9.328  18.087  0.00  0.00    +0.000 A 
ATOM     25  C   UNL     1       2.286   8.058  18.316  0.00  0.00    +0.000 A 
ATOM     26  C   UNL     1       2.156   7.463  19.570  0.00  0.00    +0.000 A 
ATOM     27  C   UNL     1       1.496   8.137  20.596  0.00  0.00    +0.000 A 
ATOM     28  C   UNL     1       0.973   9.414  20.370  0.00  0.00    +0.000 A 
ENDBRANCH  22  23
ENDBRANCH   8  22
TORSDOF 5
ENDMDL
MODEL 7
REMARK VINA RESULT:      -6.9      4.404      8.814
REMARK  Name = 
REMARK  6 active torsions:
REMARK  status: ('A' for Active; 'I' for Inactive)
REMARK    1  A    between atoms: C_1  and  O_2
REMARK    2  A    between atoms: O_2  and  C_3
REMARK    3  A    between atoms: C_7  and  C_8
REMARK    4  A    between atoms: C_8  and  C_9
REMARK    5  A    between atoms: C_19  and  O_20
REMARK    6  A    between atoms: O_20  and  C_21
REMARK                            x       y       z     vdW  Elec       q    Type
REMARK                         _______ _______ _______ _____ _____    ______ ____
ROOT
ATOM      1  C   UNL     1      -3.199  10.416  16.940  0.00  0.00    +0.000 A 
ATOM      2  C   UNL     1      -4.319  11.080  17.420  0.00  0.00    +0.000 A 
ATOM      3  C   UNL     1      -4.218  11.868  18.566  0.00  0.00    +0.000 A 
ATOM      4  C   UNL     1      -2.997  12.041  19.256  0.00  0.00    +0.000 A 
ATOM      5  C   UNL     1      -2.857  12.761  20.460  0.00  0.00    +0.000 A 
ATOM      6  N   UNL     1      -1.642  12.948  21.028  0.00  0.00    +0.000 NA
ATOM      7  N   UNL     1      -0.516  12.466  20.444  0.00  0.00    +0.000 NA
ATOM      8  C   UNL     1      -0.611  11.752  19.305  0.00  0.00    +0.000 A 
ATOM      9  C   UNL     1      -1.838  11.452  18.699  0.00  0.00    +0.000 A 
ATOM     10  C   UNL     1      -1.970  10.599  17.574  0.00  0.00    +0.000 A 
ENDROOT
BRANCH   1  12
ATOM     11  C   UNL     1      -3.003  10.134  14.602  0.00  0.00    +0.000 C 
ATOM     12  O   UNL     1      -3.205   9.544  15.885  0.00  0.00    +0.000 OA
ENDBRANCH   1  12
BRANCH   5  13
ATOM     13  C   UNL     1      -4.023  13.258  21.295  0.00  0.00    +0.000 C 
BRANCH  13  14
ATOM     14  C   UNL     1      -3.635  14.200  22.419  0.00  0.00    +0.000 A 
ATOM     15  C   UNL     1      -3.555  13.767  23.756  0.00  0.00    +0.000 A 
ATOM     16 CL   UNL     1      -3.726  12.119  24.232  0.00  0.00    +0.000 Cl
ATOM     17  C   UNL     1      -3.277  14.692  24.759  0.00  0.00    +0.000 A 
ATOM     18  N   UNL     1      -3.068  16.009  24.543  0.00  0.00    +0.000 NA
ATOM     19  C   UNL     1      -3.110  16.408  23.252  0.00  0.00    +0.000 A 
ATOM     20  C   UNL     1      -3.365  15.560  22.177  0.00  0.00    +0.000 A 
ATOM     21 CL   UNL     1      -3.261  16.243  20.595  0.00  0.00    +0.000 Cl
ENDBRANCH  13  14
ENDBRANCH   5  13
BRANCH   8  22
ATOM     22  O   UNL     1       0.562  11.311  18.712  0.00  0.00    +0.000 OA
BRANCH  22  23
ATOM     23  C   UNL     1       1.022  10.054  19.053  0.00  0.00    +0.000 A 
ATOM     24  C   UNL     1       1.723   9.353  18.068  0.00  0.00    +0.000 A 
ATOM     25  C   UNL     1       2.259   8.095  18.342  0.00  0.00    +0.000 A 
ATOM     26  C   UNL     1       2.108   7.533  19.609  0.00  0.00    +0.000 A 
ATOM     27  C   UNL     1       1.422   8.229  20.602  0.00  0.00    +0.000 A 
ATOM     28  C   UNL     1       0.894   9.495  20.331  0.00  0.00    +0.000 A 
ENDBRANCH  22  23
ENDBRANCH   8  22
TORSDOF 5
ENDMDL
MODEL 8
REMARK VINA RESULT:      -6.8      3.487      7.666
REMARK  Name = 
REMARK  6 active torsions:
REMARK  status: ('A' for Active; 'I' for Inactive)
REMARK    1  A    between atoms: C_1  and  O_2
REMARK    2  A    between atoms: O_2  and  C_3
REMARK    3  A    between atoms: C_7  and  C_8
REMARK    4  A    between atoms: C_8  and  C_9
REMARK    5  A    between atoms: C_19  and  O_20
REMARK    6  A    between atoms: O_20  and  C_21
REMARK                            x       y       z     vdW  Elec       q    Type
REMARK                         _______ _______ _______ _____ _____    ______ ____
ROOT
ATOM      1  C   UNL     1       2.472   4.997  20.181  0.00  0.00    +0.000 A 
ATOM      2  C   UNL     1       1.544   5.677  20.955  0.00  0.00    +0.000 A 
ATOM      3  C   UNL     1       1.241   7.007  20.663  0.00  0.00    +0.000 A 
ATOM      4  C   UNL     1       1.831   7.692  19.577  0.00  0.00    +0.000 A 
ATOM      5  C   UNL     1       1.619   9.056  19.286  0.00  0.00    +0.000 A 
ATOM      6  N   UNL     1       2.160   9.630  18.185  0.00  0.00    +0.000 NA
ATOM      7  N   UNL     1       2.908   8.905  17.314  0.00  0.00    +0.000 NA
ATOM      8  C   UNL     1       3.153   7.606  17.571  0.00  0.00    +0.000 A 
ATOM      9  C   UNL     1       2.692   6.961  18.727  0.00  0.00    +0.000 A 
ATOM     10  C   UNL     1       3.042   5.632  19.077  0.00  0.00    +0.000 A 
ENDROOT
BRANCH   1  12
ATOM     11  C   UNL     1       2.351   3.101  21.586  0.00  0.00    +0.000 C 
ATOM     12  O   UNL     1       2.915   3.727  20.435  0.00  0.00    +0.000 OA
ENDBRANCH   1  12
BRANCH   5  13
ATOM     13  C   UNL     1       0.912  10.025  20.215  0.00  0.00    +0.000 C 
BRANCH  13  14
ATOM     14  C   UNL     1       0.368  11.267  19.534  0.00  0.00    +0.000 A 
ATOM     15  C   UNL     1      -0.771  11.223  18.708  0.00  0.00    +0.000 A 
ATOM     16 CL   UNL     1      -1.748   9.816  18.514  0.00  0.00    +0.000 Cl
ATOM     17  C   UNL     1      -1.176  12.375  18.039  0.00  0.00    +0.000 A 
ATOM     18  N   UNL     1      -0.547  13.566  18.127  0.00  0.00    +0.000 NA
ATOM     19  C   UNL     1       0.524  13.608  18.952  0.00  0.00    +0.000 A 
ATOM     20  C   UNL     1       0.999  12.517  19.675  0.00  0.00    +0.000 A 
ATOM     21 CL   UNL     1       2.310  12.805  20.761  0.00  0.00    +0.000 Cl
ENDBRANCH  13  14
ENDBRANCH   5  13
BRANCH   8  22
ATOM     22  O   UNL     1       3.884   6.884  16.640  0.00  0.00    +0.000 OA
BRANCH  22  23
ATOM     23  C   UNL     1       5.126   6.415  17.020  0.00  0.00    +0.000 A 
ATOM     24  C   UNL     1       5.380   5.059  16.801  0.00  0.00    +0.000 A 
ATOM     25  C   UNL     1       6.625   4.513  17.116  0.00  0.00    +0.000 A 
ATOM     26  C   UNL     1       7.629   5.325  17.642  0.00  0.00    +0.000 A 
ATOM     27  C   UNL     1       7.391   6.681  17.852  0.00  0.00    +0.000 A 
ATOM     28  C   UNL     1       6.147   7.231  17.526  0.00  0.00    +0.000 A 
ENDBRANCH  22  23
ENDBRANCH   8  22
TORSDOF 5
ENDMDL
MODEL 9
REMARK VINA RESULT:      -6.7      3.298      7.550
REMARK  Name = 
REMARK  6 active torsions:
REMARK  status: ('A' for Active; 'I' for Inactive)
REMARK    1  A    between atoms: C_1  and  O_2
REMARK    2  A    between atoms: O_2  and  C_3
REMARK    3  A    between atoms: C_7  and  C_8
REMARK    4  A    between atoms: C_8  and  C_9
REMARK    5  A    between atoms: C_19  and  O_20
REMARK    6  A    between atoms: O_20  and  C_21
REMARK                            x       y       z     vdW  Elec       q    Type
REMARK                         _______ _______ _______ _____ _____    ______ ____
ROOT
ATOM      1  C   UNL     1       4.266   5.978  17.605  0.00  0.00    +0.000 A 
ATOM      2  C   UNL     1       4.225   7.210  16.969  0.00  0.00    +0.000 A 
ATOM      3  C   UNL     1       3.360   8.201  17.434  0.00  0.00    +0.000 A 
ATOM      4  C   UNL     1       2.529   8.006  18.560  0.00  0.00    +0.000 A 
ATOM      5  C   UNL     1       1.583   8.944  19.023  0.00  0.00    +0.000 A 
ATOM      6  N   UNL     1       0.871   8.722  20.153  0.00  0.00    +0.000 NA
ATOM      7  N   UNL     1       1.062   7.598  20.890  0.00  0.00    +0.000 NA
ATOM      8  C   UNL     1       1.940   6.668  20.467  0.00  0.00    +0.000 A 
ATOM      9  C   UNL     1       2.656   6.790  19.269  0.00  0.00    +0.000 A 
ATOM     10  C   UNL     1       3.488   5.769  18.744  0.00  0.00    +0.000 A 
ENDROOT
BRANCH   1  12
ATOM     11  C   UNL     1       4.253   3.728  16.883  0.00  0.00    +0.000 C 
ATOM     12  O   UNL     1       5.002   4.906  17.177  0.00  0.00    +0.000 OA
ENDBRANCH   1  12
BRANCH   5  13
ATOM     13  C   UNL     1       1.169  10.186  18.256  0.00  0.00    +0.000 C 
BRANCH  13  14
ATOM     14  C   UNL     1      -0.004  10.936  18.857  0.00  0.00    +0.000 A 
ATOM     15  C   UNL     1       0.160  11.842  19.921  0.00  0.00    +0.000 A 
ATOM     16 CL   UNL     1       1.700  12.314  20.537  0.00  0.00    +0.000 Cl
ATOM     17  C   UNL     1      -0.962  12.438  20.492  0.00  0.00    +0.000 A 
ATOM     18  N   UNL     1      -2.231  12.212  20.090  0.00  0.00    +0.000 NA
ATOM     19  C   UNL     1      -2.376  11.369  19.043  0.00  0.00    +0.000 A 
ATOM     20  C   UNL     1      -1.319  10.735  18.395  0.00  0.00    +0.000 A 
ATOM     21 CL   UNL     1      -1.704   9.785  17.005  0.00  0.00    +0.000 Cl
ENDBRANCH  13  14
ENDBRANCH   5  13
BRANCH   8  22
ATOM     22  O   UNL     1       2.141   5.551  21.265  0.00  0.00    +0.000 OA
BRANCH  22  23
ATOM     23  C   UNL     1       2.009   4.308  20.678  0.00  0.00    +0.000 A 
ATOM     24  C   UNL     1       0.787   4.033  20.058  0.00  0.00    +0.000 A 
ATOM     25  C   UNL     1       0.585   2.817  19.403  0.00  0.00    +0.000 A 
ATOM     26  C   UNL     1       1.609   1.873  19.354  0.00  0.00    +0.000 A 
ATOM     27  C   UNL     1       2.836   2.142  19.958  0.00  0.00    +0.000 A 
ATOM     28  C   UNL     1       3.043   3.365  20.605  0.00  0.00    +0.000 A 
ENDBRANCH  22  23
ENDBRANCH   8  22
TORSDOF 5
ENDMDL
