MODEL 1
REMARK VINA RESULT:      -8.5      0.000      0.000
REMARK  Name = 
REMARK  2 active torsions:
REMARK  status: ('A' for Active; 'I' for Inactive)
REMARK    1  A    between atoms: C_7  and  C_8
REMARK    2  A    between atoms: C_12  and  C_13
REMARK                            x       y       z     vdW  Elec       q    Type
REMARK                         _______ _______ _______ _____ _____    ______ ____
ROOT
ATOM      1  C   UNL     1       3.111   5.552  18.460  0.00  0.00    +0.000 A 
ATOM      2  C   UNL     1       2.810   6.926  18.473  0.00  0.00    +0.000 A 
ATOM      3  C   UNL     1       3.444   7.831  17.616  0.00  0.00    +0.000 A 
ATOM      4  C   UNL     1       4.421   7.386  16.731  0.00  0.00    +0.000 A 
ATOM      5  C   UNL     1       4.755   6.031  16.698  0.00  0.00    +0.000 A 
ATOM      6  C   UNL     1       4.098   5.127  17.547  0.00  0.00    +0.000 A 
ENDROOT
BRANCH   1  13
ATOM      7  F   UNL     1       1.040   3.708  17.633  0.00  0.00    +0.000 F 
ATOM      8  C   UNL     1       1.418   3.720  18.921  0.00  0.00    +0.000 A 
ATOM      9  C   UNL     1       0.775   2.825  19.780  0.00  0.00    +0.000 A 
ATOM     10  C   UNL     1       1.142   2.761  21.119  0.00  0.00    +0.000 A 
ATOM     11  C   UNL     1       2.147   3.597  21.594  0.00  0.00    +0.000 A 
ATOM     12  C   UNL     1       2.776   4.503  20.730  0.00  0.00    +0.000 A 
ATOM     13  C   UNL     1       2.432   4.590  19.365  0.00  0.00    +0.000 A 
ENDBRANCH   1  13
BRANCH   5  14
ATOM     14  C   UNL     1       5.794   5.575  15.768  0.00  0.00    +0.000 A 
ATOM     15  N   UNL     1       7.073   5.804  15.820  0.00  0.00    +0.000 NA
ATOM     16  N   UNL     1       7.541   5.148  14.722  0.00  0.00    +0.000 N 
ATOM     17  C   UNL     1       6.520   4.550  14.049  0.00  0.00    +0.000 A 
ATOM     18  S   UNL     1       6.538   3.655  12.674  0.00  0.00    +0.000 S 
ATOM     19  O   UNL     1       5.373   4.818  14.720  0.00  0.00    +0.000 OA
ATOM     20  H   UNL     1       8.523   5.138  14.474  0.00  0.00    +0.000 HD
ENDBRANCH   5  14
TORSDOF 2
ENDMDL
MODEL 2
REMARK VINA RESULT:      -8.4      1.784      2.129
REMARK  Name = 
REMARK  2 active torsions:
REMARK  status: ('A' for Active; 'I' for Inactive)
REMARK    1  A    between atoms: C_7  and  C_8
REMARK    2  A    between atoms: C_12  and  C_13
REMARK                            x       y       z     vdW  Elec       q    Type
REMARK                         _______ _______ _______ _____ _____    ______ ____
ROOT
ATOM      1  C   UNL     1       4.819   4.594  18.622  0.00  0.00    +0.000 A 
ATOM      2  C   UNL     1       5.805   5.129  19.471  0.00  0.00    +0.000 A 
ATOM      3  C   UNL     1       7.037   5.575  18.984  0.00  0.00    +0.000 A 
ATOM      4  C   UNL     1       7.328   5.479  17.627  0.00  0.00    +0.000 A 
ATOM      5  C   UNL     1       6.378   4.944  16.756  0.00  0.00    +0.000 A 
ATOM      6  C   UNL     1       5.136   4.516  17.251  0.00  0.00    +0.000 A 
ENDROOT
BRANCH   1  13
ATOM      7  F   UNL     1       3.804   1.902  18.311  0.00  0.00    +0.000 F 
ATOM      8  C   UNL     1       3.048   2.808  18.950  0.00  0.00    +0.000 A 
ATOM      9  C   UNL     1       1.808   2.376  19.428  0.00  0.00    +0.000 A 
ATOM     10  C   UNL     1       0.989   3.253  20.129  0.00  0.00    +0.000 A 
ATOM     11  C   UNL     1       1.412   4.560  20.344  0.00  0.00    +0.000 A 
ATOM     12  C   UNL     1       2.649   4.990  19.848  0.00  0.00    +0.000 A 
ATOM     13  C   UNL     1       3.507   4.125  19.138  0.00  0.00    +0.000 A 
ENDBRANCH   1  13
BRANCH   5  14
ATOM     14  C   UNL     1       6.700   4.838  15.328  0.00  0.00    +0.000 A 
ATOM     15  N   UNL     1       7.564   5.531  14.648  0.00  0.00    +0.000 NA
ATOM     16  N   UNL     1       7.445   5.013  13.394  0.00  0.00    +0.000 N 
ATOM     17  C   UNL     1       6.508   4.026  13.370  0.00  0.00    +0.000 A 
ATOM     18  S   UNL     1       5.980   3.097  12.125  0.00  0.00    +0.000 S 
ATOM     19  O   UNL     1       6.015   3.897  14.625  0.00  0.00    +0.000 OA
ATOM     20  H   UNL     1       7.993   5.352  12.613  0.00  0.00    +0.000 HD
ENDBRANCH   5  14
TORSDOF 2
ENDMDL
MODEL 3
REMARK VINA RESULT:      -8.2      1.675      2.043
REMARK  Name = 
REMARK  2 active torsions:
REMARK  status: ('A' for Active; 'I' for Inactive)
REMARK    1  A    between atoms: C_7  and  C_8
REMARK    2  A    between atoms: C_12  and  C_13
REMARK                            x       y       z     vdW  Elec       q    Type
REMARK                         _______ _______ _______ _____ _____    ______ ____
ROOT
ATOM      1  C   UNL     1       4.895   4.557  18.670  0.00  0.00    +0.000 A 
ATOM      2  C   UNL     1       5.870   5.147  19.496  0.00  0.00    +0.000 A 
ATOM      3  C   UNL     1       7.070   5.645  18.982  0.00  0.00    +0.000 A 
ATOM      4  C   UNL     1       7.342   5.547  17.621  0.00  0.00    +0.000 A 
ATOM      5  C   UNL     1       6.404   4.958  16.772  0.00  0.00    +0.000 A 
ATOM      6  C   UNL     1       5.192   4.478  17.294  0.00  0.00    +0.000 A 
ENDROOT
BRANCH   1  13
ATOM      7  F   UNL     1       2.273   5.453  17.838  0.00  0.00    +0.000 F 
ATOM      8  C   UNL     1       2.362   4.510  18.789  0.00  0.00    +0.000 A 
ATOM      9  C   UNL     1       1.162   4.022  19.313  0.00  0.00    +0.000 A 
ATOM     10  C   UNL     1       1.180   3.021  20.276  0.00  0.00    +0.000 A 
ATOM     11  C   UNL     1       2.399   2.516  20.715  0.00  0.00    +0.000 A 
ATOM     12  C   UNL     1       3.599   3.022  20.197  0.00  0.00    +0.000 A 
ATOM     13  C   UNL     1       3.616   4.033  19.214  0.00  0.00    +0.000 A 
ENDBRANCH   1  13
BRANCH   5  14
ATOM     14  C   UNL     1       6.705   4.850  15.341  0.00  0.00    +0.000 A 
ATOM     15  N   UNL     1       7.574   5.528  14.652  0.00  0.00    +0.000 NA
ATOM     16  N   UNL     1       7.429   5.018  13.397  0.00  0.00    +0.000 N 
ATOM     17  C   UNL     1       6.472   4.050  13.382  0.00  0.00    +0.000 A 
ATOM     18  S   UNL     1       5.910   3.136  12.141  0.00  0.00    +0.000 S 
ATOM     19  O   UNL     1       5.992   3.926  14.643  0.00  0.00    +0.000 OA
ATOM     20  H   UNL     1       7.974   5.348  12.611  0.00  0.00    +0.000 HD
ENDBRANCH   5  14
TORSDOF 2
ENDMDL
MODEL 4
REMARK VINA RESULT:      -8.1      1.055      1.522
REMARK  Name = 
REMARK  2 active torsions:
REMARK  status: ('A' for Active; 'I' for Inactive)
REMARK    1  A    between atoms: C_7  and  C_8
REMARK    2  A    between atoms: C_12  and  C_13
REMARK                            x       y       z     vdW  Elec       q    Type
REMARK                         _______ _______ _______ _____ _____    ______ ____
ROOT
ATOM      1  C   UNL     1       3.031   5.368  18.107  0.00  0.00    +0.000 A 
ATOM      2  C   UNL     1       2.830   6.749  18.283  0.00  0.00    +0.000 A 
ATOM      3  C   UNL     1       3.579   7.700  17.584  0.00  0.00    +0.000 A 
ATOM      4  C   UNL     1       4.573   7.293  16.698  0.00  0.00    +0.000 A 
ATOM      5  C   UNL     1       4.808   5.931  16.506  0.00  0.00    +0.000 A 
ATOM      6  C   UNL     1       4.037   4.983  17.197  0.00  0.00    +0.000 A 
ENDROOT
BRANCH   1  13
ATOM      7  F   UNL     1       2.743   5.290  20.985  0.00  0.00    +0.000 F 
ATOM      8  C   UNL     1       2.131   4.349  20.248  0.00  0.00    +0.000 A 
ATOM      9  C   UNL     1       1.386   3.389  20.938  0.00  0.00    +0.000 A 
ATOM     10  C   UNL     1       0.698   2.407  20.235  0.00  0.00    +0.000 A 
ATOM     11  C   UNL     1       0.763   2.387  18.846  0.00  0.00    +0.000 A 
ATOM     12  C   UNL     1       1.526   3.343  18.163  0.00  0.00    +0.000 A 
ATOM     13  C   UNL     1       2.231   4.357  18.844  0.00  0.00    +0.000 A 
ENDBRANCH   1  13
BRANCH   5  14
ATOM     14  C   UNL     1       5.865   5.514  15.578  0.00  0.00    +0.000 A 
ATOM     15  N   UNL     1       7.136   5.777  15.641  0.00  0.00    +0.000 NA
ATOM     16  N   UNL     1       7.629   5.146  14.539  0.00  0.00    +0.000 N 
ATOM     17  C   UNL     1       6.629   4.528  13.853  0.00  0.00    +0.000 A 
ATOM     18  S   UNL     1       6.680   3.649  12.469  0.00  0.00    +0.000 S 
ATOM     19  O   UNL     1       5.472   4.757  14.520  0.00  0.00    +0.000 OA
ATOM     20  H   UNL     1       8.612   5.166  14.297  0.00  0.00    +0.000 HD
ENDBRANCH   5  14
TORSDOF 2
ENDMDL
MODEL 5
REMARK VINA RESULT:      -8.1      1.211      1.442
REMARK  Name = 
REMARK  2 active torsions:
REMARK  status: ('A' for Active; 'I' for Inactive)
REMARK    1  A    between atoms: C_7  and  C_8
REMARK    2  A    between atoms: C_12  and  C_13
REMARK                            x       y       z     vdW  Elec       q    Type
REMARK                         _______ _______ _______ _____ _____    ______ ____
ROOT
ATOM      1  C   UNL     1       3.346   5.330  18.464  0.00  0.00    +0.000 A 
ATOM      2  C   UNL     1       2.984   6.689  18.477  0.00  0.00    +0.000 A 
ATOM      3  C   UNL     1       3.517   7.605  17.566  0.00  0.00    +0.000 A 
ATOM      4  C   UNL     1       4.452   7.189  16.623  0.00  0.00    +0.000 A 
ATOM      5  C   UNL     1       4.844   5.850  16.587  0.00  0.00    +0.000 A 
ATOM      6  C   UNL     1       4.288   4.933  17.492  0.00  0.00    +0.000 A 
ENDROOT
BRANCH   1  13
ATOM      7  F   UNL     1       4.887   3.330  19.877  0.00  0.00    +0.000 F 
ATOM      8  C   UNL     1       3.561   3.388  20.082  0.00  0.00    +0.000 A 
ATOM      9  C   UNL     1       3.016   2.466  20.978  0.00  0.00    +0.000 A 
ATOM     10  C   UNL     1       1.656   2.493  21.262  0.00  0.00    +0.000 A 
ATOM     11  C   UNL     1       0.847   3.439  20.644  0.00  0.00    +0.000 A 
ATOM     12  C   UNL     1       1.398   4.351  19.733  0.00  0.00    +0.000 A 
ATOM     13  C   UNL     1       2.774   4.355  19.427  0.00  0.00    +0.000 A 
ENDBRANCH   1  13
BRANCH   5  14
ATOM     14  C   UNL     1       5.838   5.425  15.595  0.00  0.00    +0.000 A 
ATOM     15  N   UNL     1       7.108   5.700  15.565  0.00  0.00    +0.000 NA
ATOM     16  N   UNL     1       7.530   5.052  14.443  0.00  0.00    +0.000 N 
ATOM     17  C   UNL     1       6.490   4.413  13.840  0.00  0.00    +0.000 A 
ATOM     18  S   UNL     1       6.454   3.508  12.472  0.00  0.00    +0.000 S 
ATOM     19  O   UNL     1       5.380   4.644  14.581  0.00  0.00    +0.000 OA
ATOM     20  H   UNL     1       8.493   5.076  14.134  0.00  0.00    +0.000 HD
ENDBRANCH   5  14
TORSDOF 2
ENDMDL
MODEL 6
REMARK VINA RESULT:      -8.0      3.164      3.920
REMARK  Name = 
REMARK  2 active torsions:
REMARK  status: ('A' for Active; 'I' for Inactive)
REMARK    1  A    between atoms: C_7  and  C_8
REMARK    2  A    between atoms: C_12  and  C_13
REMARK                            x       y       z     vdW  Elec       q    Type
REMARK                         _______ _______ _______ _____ _____    ______ ____
ROOT
ATOM      1  C   UNL     1       4.617   4.294  16.940  0.00  0.00    +0.000 A 
ATOM      2  C   UNL     1       4.966   4.005  15.608  0.00  0.00    +0.000 A 
ATOM      3  C   UNL     1       6.084   4.580  14.996  0.00  0.00    +0.000 A 
ATOM      4  C   UNL     1       6.878   5.483  15.697  0.00  0.00    +0.000 A 
ATOM      5  C   UNL     1       6.556   5.802  17.017  0.00  0.00    +0.000 A 
ATOM      6  C   UNL     1       5.443   5.204  17.630  0.00  0.00    +0.000 A 
ENDROOT
BRANCH   1  13
ATOM      7  F   UNL     1       2.168   5.707  17.557  0.00  0.00    +0.000 F 
ATOM      8  C   UNL     1       2.267   4.409  17.887  0.00  0.00    +0.000 A 
ATOM      9  C   UNL     1       1.160   3.828  18.512  0.00  0.00    +0.000 A 
ATOM     10  C   UNL     1       1.182   2.481  18.851  0.00  0.00    +0.000 A 
ATOM     11  C   UNL     1       2.312   1.722  18.567  0.00  0.00    +0.000 A 
ATOM     12  C   UNL     1       3.424   2.316  17.955  0.00  0.00    +0.000 A 
ATOM     13  C   UNL     1       3.433   3.678  17.593  0.00  0.00    +0.000 A 
ENDBRANCH   1  13
BRANCH   5  14
ATOM     14  C   UNL     1       7.393   6.762  17.743  0.00  0.00    +0.000 A 
ATOM     15  N   UNL     1       8.100   6.559  18.815  0.00  0.00    +0.000 NA
ATOM     16  N   UNL     1       8.664   7.779  19.039  0.00  0.00    +0.000 N 
ATOM     17  C   UNL     1       8.269   8.671  18.090  0.00  0.00    +0.000 A 
ATOM     18  S   UNL     1       8.646  10.257  17.906  0.00  0.00    +0.000 S 
ATOM     19  O   UNL     1       7.442   8.022  17.235  0.00  0.00    +0.000 OA
ATOM     20  H   UNL     1       9.281   7.955  19.822  0.00  0.00    +0.000 HD
ENDBRANCH   5  14
TORSDOF 2
ENDMDL
MODEL 7
REMARK VINA RESULT:      -7.8      1.161      1.347
REMARK  Name = 
REMARK  2 active torsions:
REMARK  status: ('A' for Active; 'I' for Inactive)
REMARK    1  A    between atoms: C_7  and  C_8
REMARK    2  A    between atoms: C_12  and  C_13
REMARK                            x       y       z     vdW  Elec       q    Type
REMARK                         _______ _______ _______ _____ _____    ______ ____
ROOT
ATOM      1  C   UNL     1       3.816   5.014  17.748  0.00  0.00    +0.000 A 
ATOM      2  C   UNL     1       3.966   6.385  18.025  0.00  0.00    +0.000 A 
ATOM      3  C   UNL     1       4.708   7.230  17.196  0.00  0.00    +0.000 A 
ATOM      4  C   UNL     1       5.344   6.720  16.068  0.00  0.00    +0.000 A 
ATOM      5  C   UNL     1       5.227   5.362  15.767  0.00  0.00    +0.000 A 
ATOM      6  C   UNL     1       4.463   4.525  16.595  0.00  0.00    +0.000 A 
ENDROOT
BRANCH   1  13
ATOM      7  F   UNL     1       1.011   4.415  17.368  0.00  0.00    +0.000 F 
ATOM      8  C   UNL     1       1.653   3.866  18.411  0.00  0.00    +0.000 A 
ATOM      9  C   UNL     1       0.908   3.030  19.246  0.00  0.00    +0.000 A 
ATOM     10  C   UNL     1       1.519   2.401  20.324  0.00  0.00    +0.000 A 
ATOM     11  C   UNL     1       2.872   2.616  20.564  0.00  0.00    +0.000 A 
ATOM     12  C   UNL     1       3.609   3.468  19.732  0.00  0.00    +0.000 A 
ATOM     13  C   UNL     1       3.021   4.117  18.626  0.00  0.00    +0.000 A 
ENDBRANCH   1  13
BRANCH   5  14
ATOM     14  C   UNL     1       5.910   4.833  14.582  0.00  0.00    +0.000 A 
ATOM     15  N   UNL     1       7.086   5.150  14.126  0.00  0.00    +0.000 NA
ATOM     16  N   UNL     1       7.205   4.360  13.023  0.00  0.00    +0.000 N 
ATOM     17  C   UNL     1       6.089   3.598  12.858  0.00  0.00    +0.000 A 
ATOM     18  S   UNL     1       5.720   2.498  11.697  0.00  0.00    +0.000 S 
ATOM     19  O   UNL     1       5.236   3.893  13.868  0.00  0.00    +0.000 OA
ATOM     20  H   UNL     1       8.026   4.375  12.431  0.00  0.00    +0.000 HD
ENDBRANCH   5  14
TORSDOF 2
ENDMDL
MODEL 8
REMARK VINA RESULT:      -7.7      3.116      3.813
REMARK  Name = 
REMARK  2 active torsions:
REMARK  status: ('A' for Active; 'I' for Inactive)
REMARK    1  A    between atoms: C_7  and  C_8
REMARK    2  A    between atoms: C_12  and  C_13
REMARK                            x       y       z     vdW  Elec       q    Type
REMARK                         _______ _______ _______ _____ _____    ______ ____
ROOT
ATOM      1  C   UNL     1       4.401   4.334  17.179  0.00  0.00    +0.000 A 
ATOM      2  C   UNL     1       4.679   4.007  15.839  0.00  0.00    +0.000 A 
ATOM      3  C   UNL     1       5.785   4.531  15.165  0.00  0.00    +0.000 A 
ATOM      4  C   UNL     1       6.639   5.421  15.810  0.00  0.00    +0.000 A 
ATOM      5  C   UNL     1       6.389   5.777  17.135  0.00  0.00    +0.000 A 
ATOM      6  C   UNL     1       5.287   5.230  17.811  0.00  0.00    +0.000 A 
ENDROOT
BRANCH   1  13
ATOM      7  F   UNL     1       3.942   1.509  17.606  0.00  0.00    +0.000 F 
ATOM      8  C   UNL     1       3.039   2.388  18.070  0.00  0.00    +0.000 A 
ATOM      9  C   UNL     1       1.929   1.864  18.738  0.00  0.00    +0.000 A 
ATOM     10  C   UNL     1       0.974   2.719  19.274  0.00  0.00    +0.000 A 
ATOM     11  C   UNL     1       1.131   4.094  19.135  0.00  0.00    +0.000 A 
ATOM     12  C   UNL     1       2.238   4.611  18.450  0.00  0.00    +0.000 A 
ATOM     13  C   UNL     1       3.229   3.772  17.899  0.00  0.00    +0.000 A 
ENDBRANCH   1  13
BRANCH   5  14
ATOM     14  C   UNL     1       7.290   6.724  17.801  0.00  0.00    +0.000 A 
ATOM     15  N   UNL     1       8.062   6.511  18.825  0.00  0.00    +0.000 NA
ATOM     16  N   UNL     1       8.662   7.720  19.008  0.00  0.00    +0.000 N 
ATOM     17  C   UNL     1       8.222   8.617  18.083  0.00  0.00    +0.000 A 
ATOM     18  S   UNL     1       8.615  10.195  17.869  0.00  0.00    +0.000 S 
ATOM     19  O   UNL     1       7.329   7.982  17.287  0.00  0.00    +0.000 OA
ATOM     20  H   UNL     1       9.332   7.886  19.748  0.00  0.00    +0.000 HD
ENDBRANCH   5  14
TORSDOF 2
ENDMDL
MODEL 9
REMARK VINA RESULT:      -7.7      3.932      6.716
REMARK  Name = 
REMARK  2 active torsions:
REMARK  status: ('A' for Active; 'I' for Inactive)
REMARK    1  A    between atoms: C_7  and  C_8
REMARK    2  A    between atoms: C_12  and  C_13
REMARK                            x       y       z     vdW  Elec       q    Type
REMARK                         _______ _______ _______ _____ _____    ______ ____
ROOT
ATOM      1  C   UNL     1       5.313   5.063  15.569  0.00  0.00    +0.000 A 
ATOM      2  C   UNL     1       5.098   6.436  15.786  0.00  0.00    +0.000 A 
ATOM      3  C   UNL     1       4.627   6.927  17.008  0.00  0.00    +0.000 A 
ATOM      4  C   UNL     1       4.335   6.048  18.047  0.00  0.00    +0.000 A 
ATOM      5  C   UNL     1       4.525   4.678  17.864  0.00  0.00    +0.000 A 
ATOM      6  C   UNL     1       5.018   4.197  16.641  0.00  0.00    +0.000 A 
ENDROOT
BRANCH   1  13
ATOM      7  F   UNL     1       7.958   5.583  14.518  0.00  0.00    +0.000 F 
ATOM      8  C   UNL     1       7.111   4.833  13.794  0.00  0.00    +0.000 A 
ATOM      9  C   UNL     1       7.579   4.350  12.570  0.00  0.00    +0.000 A 
ATOM     10  C   UNL     1       6.766   3.540  11.786  0.00  0.00    +0.000 A 
ATOM     11  C   UNL     1       5.487   3.221  12.229  0.00  0.00    +0.000 A 
ATOM     12  C   UNL     1       5.019   3.723  13.451  0.00  0.00    +0.000 A 
ATOM     13  C   UNL     1       5.820   4.542  14.273  0.00  0.00    +0.000 A 
ENDBRANCH   1  13
BRANCH   5  14
ATOM     14  C   UNL     1       4.203   3.761  18.963  0.00  0.00    +0.000 A 
ATOM     15  N   UNL     1       4.953   2.831  19.476  0.00  0.00    +0.000 NA
ATOM     16  N   UNL     1       4.159   2.306  20.449  0.00  0.00    +0.000 N 
ATOM     17  C   UNL     1       2.955   2.943  20.481  0.00  0.00    +0.000 A 
ATOM     18  S   UNL     1       1.652   2.695  21.445  0.00  0.00    +0.000 S 
ATOM     19  O   UNL     1       2.970   3.896  19.519  0.00  0.00    +0.000 OA
ATOM     20  H   UNL     1       4.459   1.542  21.041  0.00  0.00    +0.000 HD
ENDBRANCH   5  14
TORSDOF 2
ENDMDL
