MODEL 1
REMARK VINA RESULT:      -7.7      0.000      0.000
REMARK  Name = 
REMARK  1 active torsions:
REMARK  status: ('A' for Active; 'I' for Inactive)
REMARK    1  A    between atoms: C_9  and  C_10
REMARK                            x       y       z     vdW  Elec       q    Type
REMARK                         _______ _______ _______ _____ _____    ______ ____
ROOT
ATOM      1 CL   UNL     1       0.271  11.350  18.472  0.00  0.00    +0.000 Cl
ATOM      2  C   UNL     1       1.024   9.871  18.900  0.00  0.00    +0.000 A 
ATOM      3  C   UNL     1       1.734   9.146  17.961  0.00  0.00    +0.000 A 
ATOM      4  C   UNL     1       2.325   7.945  18.348  0.00  0.00    +0.000 A 
ATOM      5  C   UNL     1       2.191   7.477  19.658  0.00  0.00    +0.000 A 
ATOM      6  N   UNL     1       2.714   6.261  20.097  0.00  0.00    +0.000 N 
ATOM      7  C   UNL     1       3.432   5.376  19.380  0.00  0.00    +0.000 A 
ATOM      8  N   UNL     1       4.195   5.677  18.354  0.00  0.00    +0.000 NA
ATOM      9  C   UNL     1       4.714   4.546  17.755  0.00  0.00    +0.000 A 
ATOM     10  C   UNL     1       4.343   3.362  18.359  0.00  0.00    +0.000 A 
ATOM     11  S   UNL     1       3.401   3.692  19.757  0.00  0.00    +0.000 S 
ATOM     12  N   UNL     1       1.494   8.183  20.576  0.00  0.00    +0.000 NA
ATOM     13  C   UNL     1       0.936   9.360  20.182  0.00  0.00    +0.000 A 
ATOM     14  H   UNL     1       2.373   6.029  21.021  0.00  0.00    +0.000 HD
ENDROOT
BRANCH   9  15
ATOM     15  C   UNL     1       5.557   4.648  16.575  0.00  0.00    +0.000 A 
ATOM     16  C   UNL     1       6.701   5.443  16.593  0.00  0.00    +0.000 A 
ATOM     17  N   UNL     1       7.529   5.581  15.524  0.00  0.00    +0.000 NA
ATOM     18  C   UNL     1       7.162   4.882  14.429  0.00  0.00    +0.000 A 
ATOM     19  C   UNL     1       6.027   4.091  14.399  0.00  0.00    +0.000 A 
ATOM     20  N   UNL     1       5.200   3.951  15.462  0.00  0.00    +0.000 NA
ENDBRANCH   9  15
TORSDOF 1
ENDMDL
MODEL 2
REMARK VINA RESULT:      -7.3      0.999      1.030
REMARK  Name = 
REMARK  1 active torsions:
REMARK  status: ('A' for Active; 'I' for Inactive)
REMARK    1  A    between atoms: C_9  and  C_10
REMARK                            x       y       z     vdW  Elec       q    Type
REMARK                         _______ _______ _______ _____ _____    ______ ____
ROOT
ATOM      1 CL   UNL     1       0.239  11.478  18.867  0.00  0.00    +0.000 Cl
ATOM      2  C   UNL     1       0.816   9.949  19.385  0.00  0.00    +0.000 A 
ATOM      3  C   UNL     1       1.583   9.165  18.544  0.00  0.00    +0.000 A 
ATOM      4  C   UNL     1       2.025   7.925  19.000  0.00  0.00    +0.000 A 
ATOM      5  C   UNL     1       1.689   7.479  20.281  0.00  0.00    +0.000 A 
ATOM      6  N   UNL     1       2.057   6.229  20.781  0.00  0.00    +0.000 N 
ATOM      7  C   UNL     1       2.791   5.287  20.160  0.00  0.00    +0.000 A 
ATOM      8  N   UNL     1       3.700   5.521  19.241  0.00  0.00    +0.000 NA
ATOM      9  C   UNL     1       4.203   4.349  18.711  0.00  0.00    +0.000 A 
ATOM     10  C   UNL     1       3.668   3.202  19.260  0.00  0.00    +0.000 A 
ATOM     11  S   UNL     1       2.582   3.613  20.525  0.00  0.00    +0.000 S 
ATOM     12  N   UNL     1       0.936   8.242  21.104  0.00  0.00    +0.000 NA
ATOM     13  C   UNL     1       0.525   9.455  20.644  0.00  0.00    +0.000 A 
ATOM     14  H   UNL     1       1.584   6.031  21.652  0.00  0.00    +0.000 HD
ENDROOT
BRANCH   9  15
ATOM     15  C   UNL     1       5.196   4.377  17.649  0.00  0.00    +0.000 A 
ATOM     16  C   UNL     1       6.510   4.752  17.923  0.00  0.00    +0.000 A 
ATOM     17  N   UNL     1       7.483   4.800  16.976  0.00  0.00    +0.000 NA
ATOM     18  C   UNL     1       7.084   4.453  15.734  0.00  0.00    +0.000 A 
ATOM     19  C   UNL     1       5.781   4.081  15.451  0.00  0.00    +0.000 A 
ATOM     20  N   UNL     1       4.809   4.032  16.392  0.00  0.00    +0.000 NA
ENDBRANCH   9  15
TORSDOF 1
ENDMDL
MODEL 3
REMARK VINA RESULT:      -7.3      1.138      1.585
REMARK  Name = 
REMARK  1 active torsions:
REMARK  status: ('A' for Active; 'I' for Inactive)
REMARK    1  A    between atoms: C_9  and  C_10
REMARK                            x       y       z     vdW  Elec       q    Type
REMARK                         _______ _______ _______ _____ _____    ______ ____
ROOT
ATOM      1 CL   UNL     1       0.278  11.525  18.719  0.00  0.00    +0.000 Cl
ATOM      2  C   UNL     1       0.829  10.013  19.311  0.00  0.00    +0.000 A 
ATOM      3  C   UNL     1       1.622   9.197  18.525  0.00  0.00    +0.000 A 
ATOM      4  C   UNL     1       2.042   7.973  19.041  0.00  0.00    +0.000 A 
ATOM      5  C   UNL     1       1.659   7.574  20.324  0.00  0.00    +0.000 A 
ATOM      6  N   UNL     1       2.003   6.342  20.881  0.00  0.00    +0.000 N 
ATOM      7  C   UNL     1       2.755   5.376  20.320  0.00  0.00    +0.000 A 
ATOM      8  N   UNL     1       3.697   5.574  19.426  0.00  0.00    +0.000 NA
ATOM      9  C   UNL     1       4.213   4.382  18.956  0.00  0.00    +0.000 A 
ATOM     10  C   UNL     1       3.654   3.257  19.526  0.00  0.00    +0.000 A 
ATOM     11  S   UNL     1       2.526   3.717  20.737  0.00  0.00    +0.000 S 
ATOM     12  N   UNL     1       0.881   8.369  21.092  0.00  0.00    +0.000 NA
ATOM     13  C   UNL     1       0.492   9.565  20.575  0.00  0.00    +0.000 A 
ATOM     14  H   UNL     1       1.499   6.176  21.741  0.00  0.00    +0.000 HD
ENDROOT
BRANCH   9  15
ATOM     15  C   UNL     1       5.243   4.369  17.930  0.00  0.00    +0.000 A 
ATOM     16  C   UNL     1       4.904   4.157  16.595  0.00  0.00    +0.000 A 
ATOM     17  N   UNL     1       5.818   4.132  15.589  0.00  0.00    +0.000 NA
ATOM     18  C   UNL     1       7.095   4.332  15.979  0.00  0.00    +0.000 A 
ATOM     19  C   UNL     1       7.443   4.542  17.302  0.00  0.00    +0.000 A 
ATOM     20  N   UNL     1       6.534   4.568  18.306  0.00  0.00    +0.000 NA
ENDBRANCH   9  15
TORSDOF 1
ENDMDL
MODEL 4
REMARK VINA RESULT:      -7.0      1.270      1.336
REMARK  Name = 
REMARK  1 active torsions:
REMARK  status: ('A' for Active; 'I' for Inactive)
REMARK    1  A    between atoms: C_9  and  C_10
REMARK                            x       y       z     vdW  Elec       q    Type
REMARK                         _______ _______ _______ _____ _____    ______ ____
ROOT
ATOM      1 CL   UNL     1       0.257  12.454  18.924  0.00  0.00    +0.000 Cl
ATOM      2  C   UNL     1       0.786  10.884  19.365  0.00  0.00    +0.000 A 
ATOM      3  C   UNL     1       1.380  10.054  18.432  0.00  0.00    +0.000 A 
ATOM      4  C   UNL     1       1.789   8.783  18.829  0.00  0.00    +0.000 A 
ATOM      5  C   UNL     1       1.591   8.351  20.143  0.00  0.00    +0.000 A 
ATOM      6  N   UNL     1       1.930   7.075  20.593  0.00  0.00    +0.000 N 
ATOM      7  C   UNL     1       2.509   6.089  19.883  0.00  0.00    +0.000 A 
ATOM      8  N   UNL     1       3.306   6.266  18.854  0.00  0.00    +0.000 NA
ATOM      9  C   UNL     1       3.652   5.065  18.264  0.00  0.00    +0.000 A 
ATOM     10  C   UNL     1       3.113   3.954  18.879  0.00  0.00    +0.000 A 
ATOM     11  S   UNL     1       2.232   4.431  20.275  0.00  0.00    +0.000 S 
ATOM     12  N   UNL     1       1.006   9.160  21.056  0.00  0.00    +0.000 NA
ATOM     13  C   UNL     1       0.627  10.402  20.652  0.00  0.00    +0.000 A 
ATOM     14  H   UNL     1       1.562   6.904  21.519  0.00  0.00    +0.000 HD
ENDROOT
BRANCH   9  15
ATOM     15  C   UNL     1       4.498   5.032  17.082  0.00  0.00    +0.000 A 
ATOM     16  C   UNL     1       4.837   6.213  16.425  0.00  0.00    +0.000 A 
ATOM     17  N   UNL     1       5.622   6.249  15.317  0.00  0.00    +0.000 NA
ATOM     18  C   UNL     1       6.059   5.045  14.891  0.00  0.00    +0.000 A 
ATOM     19  C   UNL     1       5.726   3.865  15.535  0.00  0.00    +0.000 A 
ATOM     20  N   UNL     1       4.945   3.826  16.640  0.00  0.00    +0.000 NA
ENDBRANCH   9  15
TORSDOF 1
ENDMDL
MODEL 5
REMARK VINA RESULT:      -6.5      4.091      7.231
REMARK  Name = 
REMARK  1 active torsions:
REMARK  status: ('A' for Active; 'I' for Inactive)
REMARK    1  A    between atoms: C_9  and  C_10
REMARK                            x       y       z     vdW  Elec       q    Type
REMARK                         _______ _______ _______ _____ _____    ______ ____
ROOT
ATOM      1 CL   UNL     1       7.382   2.637  11.009  0.00  0.00    +0.000 Cl
ATOM      2  C   UNL     1       7.025   3.596  12.384  0.00  0.00    +0.000 A 
ATOM      3  C   UNL     1       5.945   3.293  13.192  0.00  0.00    +0.000 A 
ATOM      4  C   UNL     1       5.685   4.102  14.296  0.00  0.00    +0.000 A 
ATOM      5  C   UNL     1       6.495   5.207  14.573  0.00  0.00    +0.000 A 
ATOM      6  N   UNL     1       6.261   6.085  15.631  0.00  0.00    +0.000 N 
ATOM      7  C   UNL     1       5.279   6.013  16.548  0.00  0.00    +0.000 A 
ATOM      8  N   UNL     1       4.695   4.905  16.945  0.00  0.00    +0.000 NA
ATOM      9  C   UNL     1       3.648   5.160  17.809  0.00  0.00    +0.000 A 
ATOM     10  C   UNL     1       3.451   6.498  18.083  0.00  0.00    +0.000 A 
ATOM     11  S   UNL     1       4.664   7.435  17.308  0.00  0.00    +0.000 S 
ATOM     12  N   UNL     1       7.549   5.507  13.782  0.00  0.00    +0.000 NA
ATOM     13  C   UNL     1       7.794   4.697  12.717  0.00  0.00    +0.000 A 
ATOM     14  H   UNL     1       6.853   6.902  15.565  0.00  0.00    +0.000 HD
ENDROOT
BRANCH   9  15
ATOM     15  C   UNL     1       2.838   4.076  18.340  0.00  0.00    +0.000 A 
ATOM     16  C   UNL     1       1.547   3.861  17.862  0.00  0.00    +0.000 A 
ATOM     17  N   UNL     1       0.740   2.867  18.317  0.00  0.00    +0.000 NA
ATOM     18  C   UNL     1       1.284   2.090  19.277  0.00  0.00    +0.000 A 
ATOM     19  C   UNL     1       2.565   2.296  19.761  0.00  0.00    +0.000 A 
ATOM     20  N   UNL     1       3.372   3.284  19.309  0.00  0.00    +0.000 NA
ENDBRANCH   9  15
TORSDOF 1
ENDMDL
MODEL 6
REMARK VINA RESULT:      -6.5      3.088      4.567
REMARK  Name = 
REMARK  1 active torsions:
REMARK  status: ('A' for Active; 'I' for Inactive)
REMARK    1  A    between atoms: C_9  and  C_10
REMARK                            x       y       z     vdW  Elec       q    Type
REMARK                         _______ _______ _______ _____ _____    ______ ____
ROOT
ATOM      1 CL   UNL     1      -1.194  11.286  23.089  0.00  0.00    +0.000 Cl
ATOM      2  C   UNL     1      -0.363  10.499  21.813  0.00  0.00    +0.000 A 
ATOM      3  C   UNL     1       0.318   9.317  22.040  0.00  0.00    +0.000 A 
ATOM      4  C   UNL     1       0.987   8.713  20.978  0.00  0.00    +0.000 A 
ATOM      5  C   UNL     1       0.979   9.298  19.709  0.00  0.00    +0.000 A 
ATOM      6  N   UNL     1       1.668   8.773  18.615  0.00  0.00    +0.000 N 
ATOM      7  C   UNL     1       2.404   7.646  18.582  0.00  0.00    +0.000 A 
ATOM      8  N   UNL     1       2.217   6.597  19.350  0.00  0.00    +0.000 NA
ATOM      9  C   UNL     1       3.199   5.645  19.161  0.00  0.00    +0.000 A 
ATOM     10  C   UNL     1       4.141   5.981  18.211  0.00  0.00    +0.000 A 
ATOM     11  S   UNL     1       3.726   7.481  17.485  0.00  0.00    +0.000 S 
ATOM     12  N   UNL     1       0.317  10.455  19.486  0.00  0.00    +0.000 NA
ATOM     13  C   UNL     1      -0.341  11.022  20.532  0.00  0.00    +0.000 A 
ATOM     14  H   UNL     1       1.672   9.421  17.840  0.00  0.00    +0.000 HD
ENDROOT
BRANCH   9  15
ATOM     15  C   UNL     1       3.206   4.417  19.940  0.00  0.00    +0.000 A 
ATOM     16  C   UNL     1       2.343   4.265  21.023  0.00  0.00    +0.000 A 
ATOM     17  N   UNL     1       2.302   3.144  21.790  0.00  0.00    +0.000 NA
ATOM     18  C   UNL     1       3.166   2.174  21.424  0.00  0.00    +0.000 A 
ATOM     19  C   UNL     1       4.029   2.315  20.351  0.00  0.00    +0.000 A 
ATOM     20  N   UNL     1       4.072   3.430  19.584  0.00  0.00    +0.000 NA
ENDBRANCH   9  15
TORSDOF 1
ENDMDL
MODEL 7
REMARK VINA RESULT:      -6.4      4.064      7.192
REMARK  Name = 
REMARK  1 active torsions:
REMARK  status: ('A' for Active; 'I' for Inactive)
REMARK    1  A    between atoms: C_9  and  C_10
REMARK                            x       y       z     vdW  Elec       q    Type
REMARK                         _______ _______ _______ _____ _____    ______ ____
ROOT
ATOM      1 CL   UNL     1       7.323   2.563  10.993  0.00  0.00    +0.000 Cl
ATOM      2  C   UNL     1       6.947   3.548  12.345  0.00  0.00    +0.000 A 
ATOM      3  C   UNL     1       5.888   3.230  13.174  0.00  0.00    +0.000 A 
ATOM      4  C   UNL     1       5.611   4.061  14.257  0.00  0.00    +0.000 A 
ATOM      5  C   UNL     1       6.383   5.201  14.493  0.00  0.00    +0.000 A 
ATOM      6  N   UNL     1       6.130   6.102  15.528  0.00  0.00    +0.000 N 
ATOM      7  C   UNL     1       5.161   6.020  16.459  0.00  0.00    +0.000 A 
ATOM      8  N   UNL     1       4.622   4.904  16.894  0.00  0.00    +0.000 NA
ATOM      9  C   UNL     1       3.577   5.147  17.764  0.00  0.00    +0.000 A 
ATOM     10  C   UNL     1       3.334   6.484  18.002  0.00  0.00    +0.000 A 
ATOM     11  S   UNL     1       4.504   7.441  17.185  0.00  0.00    +0.000 S 
ATOM     12  N   UNL     1       7.416   5.516  13.680  0.00  0.00    +0.000 NA
ATOM     13  C   UNL     1       7.679   4.685  12.636  0.00  0.00    +0.000 A 
ATOM     14  H   UNL     1       6.691   6.937  15.432  0.00  0.00    +0.000 HD
ENDROOT
BRANCH   9  15
ATOM     15  C   UNL     1       2.812   4.050  18.336  0.00  0.00    +0.000 A 
ATOM     16  C   UNL     1       3.440   3.096  19.134  0.00  0.00    +0.000 A 
ATOM     17  N   UNL     1       2.783   2.047  19.697  0.00  0.00    +0.000 NA
ATOM     18  C   UNL     1       1.462   1.994  19.426  0.00  0.00    +0.000 A 
ATOM     19  C   UNL     1       0.829   2.936  18.632  0.00  0.00    +0.000 A 
ATOM     20  N   UNL     1       1.480   3.982  18.071  0.00  0.00    +0.000 NA
ENDBRANCH   9  15
TORSDOF 1
ENDMDL
MODEL 8
REMARK VINA RESULT:      -6.4      4.141      8.014
REMARK  Name = 
REMARK  1 active torsions:
REMARK  status: ('A' for Active; 'I' for Inactive)
REMARK    1  A    between atoms: C_9  and  C_10
REMARK                            x       y       z     vdW  Elec       q    Type
REMARK                         _______ _______ _______ _____ _____    ______ ____
ROOT
ATOM      1 CL   UNL     1       2.548   1.849  21.603  0.00  0.00    +0.000 Cl
ATOM      2  C   UNL     1       2.614   3.378  20.829  0.00  0.00    +0.000 A 
ATOM      3  C   UNL     1       1.749   4.391  21.199  0.00  0.00    +0.000 A 
ATOM      4  C   UNL     1       1.830   5.616  20.541  0.00  0.00    +0.000 A 
ATOM      5  C   UNL     1       2.761   5.811  19.517  0.00  0.00    +0.000 A 
ATOM      6  N   UNL     1       2.861   6.994  18.784  0.00  0.00    +0.000 N 
ATOM      7  C   UNL     1       2.134   8.116  18.945  0.00  0.00    +0.000 A 
ATOM      8  N   UNL     1       1.588   8.508  20.074  0.00  0.00    +0.000 NA
ATOM      9  C   UNL     1       0.810   9.636  19.899  0.00  0.00    +0.000 A 
ATOM     10  C   UNL     1       0.785  10.114  18.606  0.00  0.00    +0.000 A 
ATOM     11  S   UNL     1       1.832   9.177  17.618  0.00  0.00    +0.000 S 
ATOM     12  N   UNL     1       3.604   4.820  19.151  0.00  0.00    +0.000 NA
ATOM     13  C   UNL     1       3.519   3.637  19.815  0.00  0.00    +0.000 A 
ATOM     14  H   UNL     1       3.476   6.881  17.989  0.00  0.00    +0.000 HD
ENDROOT
BRANCH   9  15
ATOM     15  C   UNL     1       0.081  10.218  21.015  0.00  0.00    +0.000 A 
ATOM     16  C   UNL     1       0.296   9.759  22.313  0.00  0.00    +0.000 A 
ATOM     17  N   UNL     1      -0.353  10.260  23.396  0.00  0.00    +0.000 NA
ATOM     18  C   UNL     1      -1.232  11.248  23.125  0.00  0.00    +0.000 A 
ATOM     19  C   UNL     1      -1.454  11.710  21.839  0.00  0.00    +0.000 A 
ATOM     20  N   UNL     1      -0.808  11.214  20.757  0.00  0.00    +0.000 NA
ENDBRANCH   9  15
TORSDOF 1
ENDMDL
MODEL 9
REMARK VINA RESULT:      -6.3      2.983      4.458
REMARK  Name = 
REMARK  1 active torsions:
REMARK  status: ('A' for Active; 'I' for Inactive)
REMARK    1  A    between atoms: C_9  and  C_10
REMARK                            x       y       z     vdW  Elec       q    Type
REMARK                         _______ _______ _______ _____ _____    ______ ____
ROOT
ATOM      1 CL   UNL     1      -1.210  11.929  21.319  0.00  0.00    +0.000 Cl
ATOM      2  C   UNL     1      -0.224  10.945  20.320  0.00  0.00    +0.000 A 
ATOM      3  C   UNL     1       0.317   9.769  20.805  0.00  0.00    +0.000 A 
ATOM      4  C   UNL     1       1.119   9.002  19.963  0.00  0.00    +0.000 A 
ATOM      5  C   UNL     1       1.380   9.421  18.656  0.00  0.00    +0.000 A 
ATOM      6  N   UNL     1       2.214   8.728  17.778  0.00  0.00    +0.000 N 
ATOM      7  C   UNL     1       2.860   7.571  18.012  0.00  0.00    +0.000 A 
ATOM      8  N   UNL     1       2.463   6.638  18.848  0.00  0.00    +0.000 NA
ATOM      9  C   UNL     1       3.391   5.621  18.956  0.00  0.00    +0.000 A 
ATOM     10  C   UNL     1       4.510   5.786  18.166  0.00  0.00    +0.000 A 
ATOM     11  S   UNL     1       4.341   7.201  17.207  0.00  0.00    +0.000 S 
ATOM     12  N   UNL     1       0.855  10.573  18.181  0.00  0.00    +0.000 NA
ATOM     13  C   UNL     1       0.064  11.301  19.015  0.00  0.00    +0.000 A 
ATOM     14  H   UNL     1       2.404   9.272  16.948  0.00  0.00    +0.000 HD
ENDROOT
BRANCH   9  15
ATOM     15  C   UNL     1       3.169   4.502  19.859  0.00  0.00    +0.000 A 
ATOM     16  C   UNL     1       3.904   3.327  19.718  0.00  0.00    +0.000 A 
ATOM     17  N   UNL     1       3.744   2.247  20.527  0.00  0.00    +0.000 NA
ATOM     18  C   UNL     1       2.811   2.395  21.491  0.00  0.00    +0.000 A 
ATOM     19  C   UNL     1       2.074   3.557  21.639  0.00  0.00    +0.000 A 
ATOM     20  N   UNL     1       2.232   4.635  20.835  0.00  0.00    +0.000 NA
ENDBRANCH   9  15
TORSDOF 1
ENDMDL
