MODEL 1
REMARK VINA RESULT:      -6.5      0.000      0.000
REMARK  Name = 
REMARK  6 active torsions:
REMARK  status: ('A' for Active; 'I' for Inactive)
REMARK    1  A    between atoms: C_1  and  O_2
REMARK    2  A    between atoms: O_2  and  C_3
REMARK    3  A    between atoms: C_3  and  C_5
REMARK    4  A    between atoms: C_11  and  S_12
REMARK    5  A    between atoms: S_12  and  N_13
REMARK    6  A    between atoms: N_21  and  C_22
REMARK                            x       y       z     vdW  Elec       q    Type
REMARK                         _______ _______ _______ _____ _____    ______ ____
ROOT
ATOM      1  C   UNL     1       5.869   4.974  15.557  0.00  0.00    +0.000 C 
ATOM      2  N   UNL     1       5.099   3.774  15.944  0.00  0.00    +0.000 N 
ATOM      3  C   UNL     1       4.356   3.752  17.118  0.00  0.00    +0.000 A 
ATOM      4  C   UNL     1       3.387   2.756  17.316  0.00  0.00    +0.000 A 
ATOM      5  C   UNL     1       2.658   2.657  18.519  0.00  0.00    +0.000 A 
ATOM      6 CL   UNL     1       1.437   1.436  18.585  0.00  0.00    +0.000 Cl
ATOM      7  C   UNL     1       2.930   3.538  19.564  0.00  0.00    +0.000 A 
ATOM      8  C   UNL     1       3.933   4.497  19.413  0.00  0.00    +0.000 A 
ATOM      9  C   UNL     1       4.612   4.593  18.194  0.00  0.00    +0.000 A 
ATOM     10  S   UNL     1       5.786   5.873  17.997  0.00  0.00    +0.000 S 
ATOM     11  O   UNL     1       6.627   5.895  19.174  0.00  0.00    +0.000 OA
ATOM     12  O   UNL     1       5.051   7.049  17.578  0.00  0.00    +0.000 OA
ATOM     13  N   UNL     1       6.729   5.366  16.689  0.00  0.00    +0.000 NA
ATOM     14  C   UNL     1       7.767   6.376  16.369  0.00  0.00    +0.000 C 
ATOM     15  H   UNL     1       4.653   3.334  15.140  0.00  0.00    +0.000 HD
ENDROOT
BRANCH   7  16
ATOM     16  S   UNL     1       2.031   3.515  21.083  0.00  0.00    +0.000 S 
ATOM     17  O   UNL     1       0.619   3.404  20.813  0.00  0.00    +0.000 OA
ATOM     18  O   UNL     1       2.703   2.634  22.010  0.00  0.00    +0.000 OA
BRANCH  16  19
ATOM     19  N   UNL     1       2.311   5.055  21.692  0.00  0.00    +0.000 NA
ATOM     20  H   UNL     1       2.106   5.076  22.691  0.00  0.00    +0.000 HD
ATOM     21  H   UNL     1       3.257   5.354  21.456  0.00  0.00    +0.000 HD
ENDBRANCH  16  19
ENDBRANCH   7  16
BRANCH   1  22
ATOM     22  C   UNL     1       6.617   4.696  14.213  0.00  0.00    +0.000 C 
ATOM     23  O   UNL     1       7.460   5.423  13.696  0.00  0.00    +0.000 OA
BRANCH  22  25
ATOM     24  C   UNL     1       6.502   3.480  12.214  0.00  0.00    +0.000 C 
ATOM     25  O   UNL     1       6.129   3.571  13.593  0.00  0.00    +0.000 OA
ENDBRANCH  22  25
ENDBRANCH   1  22
TORSDOF 4
ENDMDL
MODEL 2
REMARK VINA RESULT:      -6.5      4.222      6.450
REMARK  Name = 
REMARK  6 active torsions:
REMARK  status: ('A' for Active; 'I' for Inactive)
REMARK    1  A    between atoms: C_1  and  O_2
REMARK    2  A    between atoms: O_2  and  C_3
REMARK    3  A    between atoms: C_3  and  C_5
REMARK    4  A    between atoms: C_11  and  S_12
REMARK    5  A    between atoms: S_12  and  N_13
REMARK    6  A    between atoms: N_21  and  C_22
REMARK                            x       y       z     vdW  Elec       q    Type
REMARK                         _______ _______ _______ _____ _____    ______ ____
ROOT
ATOM      1  C   UNL     1       3.177   4.082  20.045  0.00  0.00    +0.000 C 
ATOM      2  N   UNL     1       2.616   5.128  20.924  0.00  0.00    +0.000 N 
ATOM      3  C   UNL     1       2.174   6.337  20.401  0.00  0.00    +0.000 A 
ATOM      4  C   UNL     1       1.360   7.179  21.173  0.00  0.00    +0.000 A 
ATOM      5  C   UNL     1       0.945   8.445  20.707  0.00  0.00    +0.000 A 
ATOM      6 CL   UNL     1      -0.128   9.332  21.730  0.00  0.00    +0.000 Cl
ATOM      7  C   UNL     1       1.388   8.901  19.467  0.00  0.00    +0.000 A 
ATOM      8  C   UNL     1       2.249   8.107  18.708  0.00  0.00    +0.000 A 
ATOM      9  C   UNL     1       2.612   6.842  19.182  0.00  0.00    +0.000 A 
ATOM     10  S   UNL     1       3.604   5.826  18.162  0.00  0.00    +0.000 S 
ATOM     11  O   UNL     1       4.695   6.629  17.655  0.00  0.00    +0.000 OA
ATOM     12  O   UNL     1       2.702   5.133  17.265  0.00  0.00    +0.000 OA
ATOM     13  N   UNL     1       4.247   4.682  19.226  0.00  0.00    +0.000 NA
ATOM     14  C   UNL     1       5.100   3.710  18.498  0.00  0.00    +0.000 C 
ATOM     15  H   UNL     1       2.027   4.732  21.656  0.00  0.00    +0.000 HD
ENDROOT
BRANCH   7  16
ATOM     16  S   UNL     1       0.878  10.448  18.787  0.00  0.00    +0.000 S 
ATOM     17  O   UNL     1      -0.414  10.304  18.162  0.00  0.00    +0.000 OA
ATOM     18  O   UNL     1       1.150  11.492  19.748  0.00  0.00    +0.000 OA
BRANCH  16  19
ATOM     19  N   UNL     1       2.005  10.696  17.568  0.00  0.00    +0.000 NA
ATOM     20  H   UNL     1       1.631  10.369  16.677  0.00  0.00    +0.000 HD
ATOM     21  H   UNL     1       2.300  11.673  17.562  0.00  0.00    +0.000 HD
ENDBRANCH  16  19
ENDBRANCH   7  16
BRANCH   1  22
ATOM     22  C   UNL     1       3.606   2.854  20.912  0.00  0.00    +0.000 C 
ATOM     23  O   UNL     1       4.527   2.083  20.660  0.00  0.00    +0.000 OA
BRANCH  22  25
ATOM     24  C   UNL     1       1.383   2.461  21.539  0.00  0.00    +0.000 C 
ATOM     25  O   UNL     1       2.738   2.654  21.959  0.00  0.00    +0.000 OA
ENDBRANCH  22  25
ENDBRANCH   1  22
TORSDOF 4
ENDMDL
MODEL 3
REMARK VINA RESULT:      -6.5      4.168      5.092
REMARK  Name = 
REMARK  6 active torsions:
REMARK  status: ('A' for Active; 'I' for Inactive)
REMARK    1  A    between atoms: C_1  and  O_2
REMARK    2  A    between atoms: O_2  and  C_3
REMARK    3  A    between atoms: C_3  and  C_5
REMARK    4  A    between atoms: C_11  and  S_12
REMARK    5  A    between atoms: S_12  and  N_13
REMARK    6  A    between atoms: N_21  and  C_22
REMARK                            x       y       z     vdW  Elec       q    Type
REMARK                         _______ _______ _______ _____ _____    ______ ____
ROOT
ATOM      1  C   UNL     1       4.650   5.148  17.438  0.00  0.00    +0.000 C 
ATOM      2  N   UNL     1       4.045   6.437  17.047  0.00  0.00    +0.000 N 
ATOM      3  C   UNL     1       3.251   7.151  17.936  0.00  0.00    +0.000 A 
ATOM      4  C   UNL     1       2.953   8.499  17.684  0.00  0.00    +0.000 A 
ATOM      5  C   UNL     1       2.098   9.241  18.524  0.00  0.00    +0.000 A 
ATOM      6 CL   UNL     1       1.894  10.913  18.138  0.00  0.00    +0.000 Cl
ATOM      7  C   UNL     1       1.490   8.618  19.612  0.00  0.00    +0.000 A 
ATOM      8  C   UNL     1       1.722   7.262  19.847  0.00  0.00    +0.000 A 
ATOM      9  C   UNL     1       2.605   6.563  19.017  0.00  0.00    +0.000 A 
ATOM     10  S   UNL     1       2.960   4.895  19.400  0.00  0.00    +0.000 S 
ATOM     11  O   UNL     1       1.710   4.221  19.674  0.00  0.00    +0.000 OA
ATOM     12  O   UNL     1       4.033   4.913  20.374  0.00  0.00    +0.000 OA
ATOM     13  N   UNL     1       3.587   4.269  17.961  0.00  0.00    +0.000 NA
ATOM     14  C   UNL     1       3.975   2.847  18.133  0.00  0.00    +0.000 C 
ATOM     15  H   UNL     1       4.683   7.000  16.487  0.00  0.00    +0.000 HD
ENDROOT
BRANCH   7  16
ATOM     16  S   UNL     1       0.447   9.485  20.742  0.00  0.00    +0.000 S 
ATOM     17  O   UNL     1       1.251  10.267  21.647  0.00  0.00    +0.000 OA
ATOM     18  O   UNL     1      -0.658  10.060  20.009  0.00  0.00    +0.000 OA
BRANCH  16  19
ATOM     19  N   UNL     1      -0.243   8.236  21.627  0.00  0.00    +0.000 NA
ATOM     20  H   UNL     1       0.152   8.218  22.568  0.00  0.00    +0.000 HD
ATOM     21  H   UNL     1      -1.260   8.316  21.605  0.00  0.00    +0.000 HD
ENDBRANCH  16  19
ENDBRANCH   7  16
BRANCH   1  22
ATOM     22  C   UNL     1       5.463   4.572  16.233  0.00  0.00    +0.000 C 
ATOM     23  O   UNL     1       5.017   4.332  15.115  0.00  0.00    +0.000 OA
BRANCH  22  25
ATOM     24  C   UNL     1       7.157   4.874  17.822  0.00  0.00    +0.000 C 
ATOM     25  O   UNL     1       6.744   4.242  16.607  0.00  0.00    +0.000 OA
ENDBRANCH  22  25
ENDBRANCH   1  22
TORSDOF 4
ENDMDL
MODEL 4
REMARK VINA RESULT:      -6.4      6.100      7.756
REMARK  Name = 
REMARK  6 active torsions:
REMARK  status: ('A' for Active; 'I' for Inactive)
REMARK    1  A    between atoms: C_1  and  O_2
REMARK    2  A    between atoms: O_2  and  C_3
REMARK    3  A    between atoms: C_3  and  C_5
REMARK    4  A    between atoms: C_11  and  S_12
REMARK    5  A    between atoms: S_12  and  N_13
REMARK    6  A    between atoms: N_21  and  C_22
REMARK                            x       y       z     vdW  Elec       q    Type
REMARK                         _______ _______ _______ _____ _____    ______ ____
ROOT
ATOM      1  C   UNL     1       0.511  11.439  19.047  0.00  0.00    +0.000 C 
ATOM      2  N   UNL     1       1.558  10.695  18.319  0.00  0.00    +0.000 N 
ATOM      3  C   UNL     1       1.843   9.372  18.636  0.00  0.00    +0.000 A 
ATOM      4  C   UNL     1       2.591   8.584  17.748  0.00  0.00    +0.000 A 
ATOM      5  C   UNL     1       2.959   7.258  18.060  0.00  0.00    +0.000 A 
ATOM      6 CL   UNL     1       3.803   6.381  16.834  0.00  0.00    +0.000 Cl
ATOM      7  C   UNL     1       2.615   6.721  19.299  0.00  0.00    +0.000 A 
ATOM      8  C   UNL     1       1.925   7.507  20.223  0.00  0.00    +0.000 A 
ATOM      9  C   UNL     1       1.543   8.806  19.869  0.00  0.00    +0.000 A 
ATOM     10  S   UNL     1       0.586   9.728  21.005  0.00  0.00    +0.000 S 
ATOM     11  O   UNL     1       1.195   9.601  22.311  0.00  0.00    +0.000 OA
ATOM     12  O   UNL     1      -0.796   9.356  20.781  0.00  0.00    +0.000 OA
ATOM     13  N   UNL     1       0.775  11.328  20.494  0.00  0.00    +0.000 NA
ATOM     14  C   UNL     1      -0.016  12.247  21.349  0.00  0.00    +0.000 C 
ATOM     15  H   UNL     1       1.554  10.910  17.323  0.00  0.00    +0.000 HD
ENDROOT
BRANCH   7  16
ATOM     16  S   UNL     1       2.992   5.057  19.750  0.00  0.00    +0.000 S 
ATOM     17  O   UNL     1       2.196   4.146  18.965  0.00  0.00    +0.000 OA
ATOM     18  O   UNL     1       4.426   4.917  19.862  0.00  0.00    +0.000 OA
BRANCH  16  19
ATOM     19  N   UNL     1       2.439   4.977  21.333  0.00  0.00    +0.000 NA
ATOM     20  H   UNL     1       2.862   4.180  21.809  0.00  0.00    +0.000 HD
ATOM     21  H   UNL     1       2.595   5.870  21.801  0.00  0.00    +0.000 HD
ENDBRANCH  16  19
ENDBRANCH   7  16
BRANCH   1  22
ATOM     22  C   UNL     1       0.435  12.899  18.491  0.00  0.00    +0.000 C 
ATOM     23  O   UNL     1      -0.581  13.467  18.101  0.00  0.00    +0.000 OA
BRANCH  22  25
ATOM     24  C   UNL     1       1.825  14.689  19.085  0.00  0.00    +0.000 C 
ATOM     25  O   UNL     1       1.686  13.454  18.373  0.00  0.00    +0.000 OA
ENDBRANCH  22  25
ENDBRANCH   1  22
TORSDOF 4
ENDMDL
MODEL 5
REMARK VINA RESULT:      -6.4      3.953      5.549
REMARK  Name = 
REMARK  6 active torsions:
REMARK  status: ('A' for Active; 'I' for Inactive)
REMARK    1  A    between atoms: C_1  and  O_2
REMARK    2  A    between atoms: O_2  and  C_3
REMARK    3  A    between atoms: C_3  and  C_5
REMARK    4  A    between atoms: C_11  and  S_12
REMARK    5  A    between atoms: S_12  and  N_13
REMARK    6  A    between atoms: N_21  and  C_22
REMARK                            x       y       z     vdW  Elec       q    Type
REMARK                         _______ _______ _______ _____ _____    ______ ____
ROOT
ATOM      1  C   UNL     1       3.908   3.918  19.173  0.00  0.00    +0.000 C 
ATOM      2  N   UNL     1       3.151   4.715  20.159  0.00  0.00    +0.000 N 
ATOM      3  C   UNL     1       2.623   5.955  19.819  0.00  0.00    +0.000 A 
ATOM      4  C   UNL     1       1.648   6.549  20.635  0.00  0.00    +0.000 A 
ATOM      5  C   UNL     1       1.135   7.835  20.364  0.00  0.00    +0.000 A 
ATOM      6 CL   UNL     1      -0.123   8.400  21.404  0.00  0.00    +0.000 Cl
ATOM      7  C   UNL     1       1.635   8.563  19.286  0.00  0.00    +0.000 A 
ATOM      8  C   UNL     1       2.650   8.017  18.498  0.00  0.00    +0.000 A 
ATOM      9  C   UNL     1       3.111   6.725  18.770  0.00  0.00    +0.000 A 
ATOM     10  S   UNL     1       4.304   6.027  17.700  0.00  0.00    +0.000 S 
ATOM     11  O   UNL     1       5.337   7.013  17.476  0.00  0.00    +0.000 OA
ATOM     12  O   UNL     1       3.575   5.437  16.596  0.00  0.00    +0.000 OA
ATOM     13  N   UNL     1       4.973   4.765  18.604  0.00  0.00    +0.000 NA
ATOM     14  C   UNL     1       5.996   4.039  17.811  0.00  0.00    +0.000 C 
ATOM     15  H   UNL     1       2.546   4.130  20.735  0.00  0.00    +0.000 HD
ENDROOT
BRANCH   7  16
ATOM     16  S   UNL     1       1.015  10.156  18.847  0.00  0.00    +0.000 S 
ATOM     17  O   UNL     1      -0.311  10.029  18.297  0.00  0.00    +0.000 OA
ATOM     18  O   UNL     1       1.314  11.084  19.914  0.00  0.00    +0.000 OA
BRANCH  16  19
ATOM     19  N   UNL     1       2.040  10.612  17.598  0.00  0.00    +0.000 NA
ATOM     20  H   UNL     1       1.608  11.354  17.047  0.00  0.00    +0.000 HD
ATOM     21  H   UNL     1       2.958  10.852  17.972  0.00  0.00    +0.000 HD
ENDBRANCH  16  19
ENDBRANCH   7  16
BRANCH   1  22
ATOM     22  C   UNL     1       4.394   2.592  19.844  0.00  0.00    +0.000 C 
ATOM     23  O   UNL     1       5.120   2.510  20.830  0.00  0.00    +0.000 OA
BRANCH  22  25
ATOM     24  C   UNL     1       3.044   1.801  18.100  0.00  0.00    +0.000 C 
ATOM     25  O   UNL     1       4.003   1.493  19.117  0.00  0.00    +0.000 OA
ENDBRANCH  22  25
ENDBRANCH   1  22
TORSDOF 4
ENDMDL
MODEL 6
REMARK VINA RESULT:      -6.4      4.170      4.933
REMARK  Name = 
REMARK  6 active torsions:
REMARK  status: ('A' for Active; 'I' for Inactive)
REMARK    1  A    between atoms: C_1  and  O_2
REMARK    2  A    between atoms: O_2  and  C_3
REMARK    3  A    between atoms: C_3  and  C_5
REMARK    4  A    between atoms: C_11  and  S_12
REMARK    5  A    between atoms: S_12  and  N_13
REMARK    6  A    between atoms: N_21  and  C_22
REMARK                            x       y       z     vdW  Elec       q    Type
REMARK                         _______ _______ _______ _____ _____    ______ ____
ROOT
ATOM      1  C   UNL     1       4.730   5.990  17.103  0.00  0.00    +0.000 C 
ATOM      2  N   UNL     1       3.869   7.173  16.909  0.00  0.00    +0.000 N 
ATOM      3  C   UNL     1       3.054   7.637  17.935  0.00  0.00    +0.000 A 
ATOM      4  C   UNL     1       2.496   8.923  17.860  0.00  0.00    +0.000 A 
ATOM      5  C   UNL     1       1.611   9.408  18.845  0.00  0.00    +0.000 A 
ATOM      6 CL   UNL     1       1.074  11.040  18.667  0.00  0.00    +0.000 Cl
ATOM      7  C   UNL     1       1.237   8.581  19.903  0.00  0.00    +0.000 A 
ATOM      8  C   UNL     1       1.730   7.276  19.964  0.00  0.00    +0.000 A 
ATOM      9  C   UNL     1       2.635   6.838  18.992  0.00  0.00    +0.000 A 
ATOM     10  S   UNL     1       3.318   5.238  19.156  0.00  0.00    +0.000 S 
ATOM     11  O   UNL     1       2.242   4.318  19.453  0.00  0.00    +0.000 OA
ATOM     12  O   UNL     1       4.463   5.364  20.035  0.00  0.00    +0.000 OA
ATOM     13  N   UNL     1       3.899   4.881  17.608  0.00  0.00    +0.000 NA
ATOM     14  C   UNL     1       4.550   3.548  17.588  0.00  0.00    +0.000 C 
ATOM     15  H   UNL     1       4.336   7.898  16.366  0.00  0.00    +0.000 HD
ENDROOT
BRANCH   7  16
ATOM     16  S   UNL     1       0.174   9.124  21.203  0.00  0.00    +0.000 S 
ATOM     17  O   UNL     1      -0.529  10.315  20.794  0.00  0.00    +0.000 OA
ATOM     18  O   UNL     1      -0.516   7.979  21.751  0.00  0.00    +0.000 OA
BRANCH  16  19
ATOM     19  N   UNL     1       1.265   9.567  22.400  0.00  0.00    +0.000 NA
ATOM     20  H   UNL     1       0.766   9.961  23.197  0.00  0.00    +0.000 HD
ATOM     21  H   UNL     1       1.863   8.774  22.635  0.00  0.00    +0.000 HD
ENDBRANCH  16  19
ENDBRANCH   7  16
BRANCH   1  22
ATOM     22  C   UNL     1       5.507   5.694  15.779  0.00  0.00    +0.000 C 
ATOM     23  O   UNL     1       5.039   5.169  14.774  0.00  0.00    +0.000 OA
BRANCH  22  25
ATOM     24  C   UNL     1       7.225   6.304  17.251  0.00  0.00    +0.000 C 
ATOM     25  O   UNL     1       6.844   5.988  15.908  0.00  0.00    +0.000 OA
ENDBRANCH  22  25
ENDBRANCH   1  22
TORSDOF 4
ENDMDL
MODEL 7
REMARK VINA RESULT:      -6.4      6.038      7.747
REMARK  Name = 
REMARK  6 active torsions:
REMARK  status: ('A' for Active; 'I' for Inactive)
REMARK    1  A    between atoms: C_1  and  O_2
REMARK    2  A    between atoms: O_2  and  C_3
REMARK    3  A    between atoms: C_3  and  C_5
REMARK    4  A    between atoms: C_11  and  S_12
REMARK    5  A    between atoms: S_12  and  N_13
REMARK    6  A    between atoms: N_21  and  C_22
REMARK                            x       y       z     vdW  Elec       q    Type
REMARK                         _______ _______ _______ _____ _____    ______ ____
ROOT
ATOM      1  C   UNL     1       0.341  11.316  19.128  0.00  0.00    +0.000 C 
ATOM      2  N   UNL     1       1.406  10.632  18.367  0.00  0.00    +0.000 N 
ATOM      3  C   UNL     1       1.775   9.328  18.673  0.00  0.00    +0.000 A 
ATOM      4  C   UNL     1       2.539   8.583  17.762  0.00  0.00    +0.000 A 
ATOM      5  C   UNL     1       2.991   7.281  18.060  0.00  0.00    +0.000 A 
ATOM      6 CL   UNL     1       3.845   6.453  16.808  0.00  0.00    +0.000 Cl
ATOM      7  C   UNL     1       2.716   6.725  19.309  0.00  0.00    +0.000 A 
ATOM      8  C   UNL     1       2.011   7.471  20.254  0.00  0.00    +0.000 A 
ATOM      9  C   UNL     1       1.545   8.746  19.914  0.00  0.00    +0.000 A 
ATOM     10  S   UNL     1       0.572   9.612  21.080  0.00  0.00    +0.000 S 
ATOM     11  O   UNL     1       1.226   9.520  22.367  0.00  0.00    +0.000 OA
ATOM     12  O   UNL     1      -0.792   9.163  20.897  0.00  0.00    +0.000 OA
ATOM     13  N   UNL     1       0.654  11.220  20.566  0.00  0.00    +0.000 NA
ATOM     14  C   UNL     1      -0.160  12.094  21.446  0.00  0.00    +0.000 C 
ATOM     15  H   UNL     1       1.360  10.847  17.372  0.00  0.00    +0.000 HD
ENDROOT
BRANCH   7  16
ATOM     16  S   UNL     1       3.200   5.085  19.745  0.00  0.00    +0.000 S 
ATOM     17  O   UNL     1       2.561   4.137  18.867  0.00  0.00    +0.000 OA
ATOM     18  O   UNL     1       4.626   5.067  19.982  0.00  0.00    +0.000 OA
BRANCH  16  19
ATOM     19  N   UNL     1       2.520   4.901  21.269  0.00  0.00    +0.000 NA
ATOM     20  H   UNL     1       3.133   4.335  21.857  0.00  0.00    +0.000 HD
ATOM     21  H   UNL     1       2.296   5.815  21.662  0.00  0.00    +0.000 HD
ENDBRANCH  16  19
ENDBRANCH   7  16
BRANCH   1  22
ATOM     22  C   UNL     1       0.165  12.769  18.577  0.00  0.00    +0.000 C 
ATOM     23  O   UNL     1       0.913  13.717  18.799  0.00  0.00    +0.000 OA
BRANCH  22  25
ATOM     24  C   UNL     1      -1.968  11.879  18.200  0.00  0.00    +0.000 C 
ATOM     25  O   UNL     1      -1.018  12.903  17.891  0.00  0.00    +0.000 OA
ENDBRANCH  22  25
ENDBRANCH   1  22
TORSDOF 4
ENDMDL
MODEL 8
REMARK VINA RESULT:      -6.4      4.578      7.785
REMARK  Name = 
REMARK  6 active torsions:
REMARK  status: ('A' for Active; 'I' for Inactive)
REMARK    1  A    between atoms: C_1  and  O_2
REMARK    2  A    between atoms: O_2  and  C_3
REMARK    3  A    between atoms: C_3  and  C_5
REMARK    4  A    between atoms: C_11  and  S_12
REMARK    5  A    between atoms: S_12  and  N_13
REMARK    6  A    between atoms: N_21  and  C_22
REMARK                            x       y       z     vdW  Elec       q    Type
REMARK                         _______ _______ _______ _____ _____    ______ ____
ROOT
ATOM      1  C   UNL     1       1.020   8.878  20.812  0.00  0.00    +0.000 C 
ATOM      2  N   UNL     1       1.601   7.521  20.765  0.00  0.00    +0.000 N 
ATOM      3  C   UNL     1       2.468   7.153  19.743  0.00  0.00    +0.000 A 
ATOM      4  C   UNL     1       3.258   6.000  19.875  0.00  0.00    +0.000 A 
ATOM      5  C   UNL     1       4.100   5.553  18.836  0.00  0.00    +0.000 A 
ATOM      6 CL   UNL     1       5.079   4.170  19.175  0.00  0.00    +0.000 Cl
ATOM      7  C   UNL     1       4.123   6.240  17.624  0.00  0.00    +0.000 A 
ATOM      8  C   UNL     1       3.299   7.353  17.447  0.00  0.00    +0.000 A 
ATOM      9  C   UNL     1       2.503   7.793  18.510  0.00  0.00    +0.000 A 
ATOM     10  S   UNL     1       1.564   9.252  18.295  0.00  0.00    +0.000 S 
ATOM     11  O   UNL     1       0.893   9.169  17.017  0.00  0.00    +0.000 OA
ATOM     12  O   UNL     1       2.442  10.360  18.613  0.00  0.00    +0.000 OA
ATOM     13  N   UNL     1       0.391   9.165  19.509  0.00  0.00    +0.000 NA
ATOM     14  C   UNL     1      -0.479  10.366  19.483  0.00  0.00    +0.000 C 
ATOM     15  H   UNL     1       1.858   7.186  21.692  0.00  0.00    +0.000 HD
ENDROOT
BRANCH   7  16
ATOM     16  S   UNL     1       5.184   5.779  16.291  0.00  0.00    +0.000 S 
ATOM     17  O   UNL     1       5.002   4.381  15.984  0.00  0.00    +0.000 OA
ATOM     18  O   UNL     1       5.122   6.799  15.270  0.00  0.00    +0.000 OA
BRANCH  16  19
ATOM     19  N   UNL     1       6.711   5.954  16.966  0.00  0.00    +0.000 NA
ATOM     20  H   UNL     1       6.629   6.253  17.938  0.00  0.00    +0.000 HD
ATOM     21  H   UNL     1       7.247   5.095  16.839  0.00  0.00    +0.000 HD
ENDBRANCH  16  19
ENDBRANCH   7  16
BRANCH   1  22
ATOM     22  C   UNL     1       0.073   8.991  22.051  0.00  0.00    +0.000 C 
ATOM     23  O   UNL     1      -0.857   8.235  22.316  0.00  0.00    +0.000 OA
BRANCH  22  25
ATOM     24  C   UNL     1      -0.850  10.889  23.067  0.00  0.00    +0.000 C 
ATOM     25  O   UNL     1       0.328  10.133  22.772  0.00  0.00    +0.000 OA
ENDBRANCH  22  25
ENDBRANCH   1  22
TORSDOF 4
ENDMDL
MODEL 9
REMARK VINA RESULT:      -6.3      4.150      4.976
REMARK  Name = 
REMARK  6 active torsions:
REMARK  status: ('A' for Active; 'I' for Inactive)
REMARK    1  A    between atoms: C_1  and  O_2
REMARK    2  A    between atoms: O_2  and  C_3
REMARK    3  A    between atoms: C_3  and  C_5
REMARK    4  A    between atoms: C_11  and  S_12
REMARK    5  A    between atoms: S_12  and  N_13
REMARK    6  A    between atoms: N_21  and  C_22
REMARK                            x       y       z     vdW  Elec       q    Type
REMARK                         _______ _______ _______ _____ _____    ______ ____
ROOT
ATOM      1  C   UNL     1       4.709   5.073  17.581  0.00  0.00    +0.000 C 
ATOM      2  N   UNL     1       4.158   6.369  17.138  0.00  0.00    +0.000 N 
ATOM      3  C   UNL     1       3.327   7.112  17.968  0.00  0.00    +0.000 A 
ATOM      4  C   UNL     1       3.075   8.462  17.681  0.00  0.00    +0.000 A 
ATOM      5  C   UNL     1       2.186   9.234  18.458  0.00  0.00    +0.000 A 
ATOM      6 CL   UNL     1       2.043  10.904  18.040  0.00  0.00    +0.000 Cl
ATOM      7  C   UNL     1       1.499   8.638  19.515  0.00  0.00    +0.000 A 
ATOM      8  C   UNL     1       1.686   7.280  19.779  0.00  0.00    +0.000 A 
ATOM      9  C   UNL     1       2.602   6.551  19.014  0.00  0.00    +0.000 A 
ATOM     10  S   UNL     1       2.897   4.882  19.438  0.00  0.00    +0.000 S 
ATOM     11  O   UNL     1       1.617   4.239  19.642  0.00  0.00    +0.000 OA
ATOM     12  O   UNL     1       3.907   4.890  20.476  0.00  0.00    +0.000 OA
ATOM     13  N   UNL     1       3.597   4.224  18.047  0.00  0.00    +0.000 NA
ATOM     14  C   UNL     1       3.943   2.797  18.260  0.00  0.00    +0.000 C 
ATOM     15  H   UNL     1       4.842   6.912  16.612  0.00  0.00    +0.000 HD
ENDROOT
BRANCH   7  16
ATOM     16  S   UNL     1       0.407   9.541  20.567  0.00  0.00    +0.000 S 
ATOM     17  O   UNL     1       1.167  10.426  21.414  0.00  0.00    +0.000 OA
ATOM     18  O   UNL     1      -0.715  10.008  19.785  0.00  0.00    +0.000 OA
BRANCH  16  19
ATOM     19  N   UNL     1      -0.236   8.335  21.542  0.00  0.00    +0.000 NA
ATOM     20  H   UNL     1      -0.115   8.581  22.525  0.00  0.00    +0.000 HD
ATOM     21  H   UNL     1      -1.203   8.152  21.276  0.00  0.00    +0.000 HD
ENDBRANCH  16  19
ENDBRANCH   7  16
BRANCH   1  22
ATOM     22  C   UNL     1       5.582   4.464  16.436  0.00  0.00    +0.000 C 
ATOM     23  O   UNL     1       6.771   4.170  16.517  0.00  0.00    +0.000 OA
BRANCH  22  25
ATOM     24  C   UNL     1       5.717   4.176  14.115  0.00  0.00    +0.000 C 
ATOM     25  O   UNL     1       4.881   4.400  15.255  0.00  0.00    +0.000 OA
ENDBRANCH  22  25
ENDBRANCH   1  22
TORSDOF 4
ENDMDL
