MODEL 1
REMARK VINA RESULT:      -5.7      0.000      0.000
REMARK  Name = 
REMARK  15 active torsions:
REMARK  status: ('A' for Active; 'I' for Inactive)
REMARK    1  A    between atoms: C_1  and  C_2
REMARK    2  A    between atoms: C_2  and  C_3
REMARK    3  A    between atoms: C_3  and  C_4
REMARK    4  A    between atoms: C_4  and  N_5
REMARK    5  A    between atoms: N_8  and  C_9
REMARK    6  A    between atoms: C_9  and  S_11
REMARK    7  A    between atoms: S_11  and  C_12
REMARK    8  A    between atoms: C_12  and  C_13
REMARK    9  A    between atoms: C_13  and  S_14
REMARK   10  A    between atoms: S_14  and  C_15
REMARK   11  A    between atoms: C_15  and  N_17
REMARK   12  A    between atoms: N_20  and  C_21
REMARK   13  A    between atoms: C_21  and  C_22
REMARK   14  A    between atoms: C_22  and  C_23
REMARK   15  A    between atoms: C_23  and  C_24
REMARK                            x       y       z     vdW  Elec       q    Type
REMARK                         _______ _______ _______ _____ _____    ______ ____
ROOT
ATOM      1  C   UNL     1       1.512   5.167  18.278  0.00  0.00    +0.000 C 
ENDROOT
BRANCH   1   2
ATOM      2  S   UNL     1       2.251   6.060  19.696  0.00  0.00    +0.000 S 
BRANCH   2   3
ATOM      3  C   UNL     1       2.097   7.733  19.139  0.00  0.00    +0.000 C 
ATOM      4  S   UNL     1       2.847   8.165  17.692  0.00  0.00    +0.000 S 
BRANCH   3   8
ATOM      5  N   UNL     1       0.510  10.646  21.965  0.00  0.00    +0.000 NA
ATOM      6  C   UNL     1       1.198   9.396  22.343  0.00  0.00    +0.000 C 
ATOM      7  C   UNL     1       1.001   8.233  21.353  0.00  0.00    +0.000 C 
ATOM      8  N   UNL     1       1.392   8.611  19.978  0.00  0.00    +0.000 N 
ATOM      9  C   UNL     1       0.759   9.875  19.540  0.00  0.00    +0.000 C 
ATOM     10  C   UNL     1       0.915  11.002  20.588  0.00  0.00    +0.000 C 
BRANCH   5  11
ATOM     11  C   UNL     1      -0.954  10.585  22.103  0.00  0.00    +0.000 C 
BRANCH  11  12
ATOM     12  C   UNL     1      -1.524  11.431  23.257  0.00  0.00    +0.000 C 
BRANCH  12  14
ATOM     13  C   UNL     1      -0.948  13.879  23.136  0.00  0.00    +0.000 C 
ATOM     14  C   UNL     1      -1.989  12.818  22.812  0.00  0.00    +0.000 C 
ENDBRANCH  12  14
ENDBRANCH  11  12
ENDBRANCH   5  11
ENDBRANCH   3   8
ENDBRANCH   2   3
ENDBRANCH   1   2
BRANCH   1  15
ATOM     15  C   UNL     1       1.545   3.646  18.474  0.00  0.00    +0.000 C 
BRANCH  15  16
ATOM     16  S   UNL     1       2.830   2.845  17.451  0.00  0.00    +0.000 S 
BRANCH  16  17
ATOM     17  C   UNL     1       4.239   3.183  18.463  0.00  0.00    +0.000 C 
ATOM     18  S   UNL     1       4.334   2.392  19.946  0.00  0.00    +0.000 S 
BRANCH  17  19
ATOM     19  N   UNL     1       5.180   4.094  17.957  0.00  0.00    +0.000 N 
ATOM     20  C   UNL     1       6.438   4.378  18.683  0.00  0.00    +0.000 C 
ATOM     21  C   UNL     1       7.605   4.695  17.729  0.00  0.00    +0.000 C 
ATOM     22  N   UNL     1       7.330   5.767  16.752  0.00  0.00    +0.000 NA
ATOM     23  C   UNL     1       6.089   5.426  16.026  0.00  0.00    +0.000 C 
ATOM     24  C   UNL     1       4.875   5.107  16.922  0.00  0.00    +0.000 C 
BRANCH  22  25
ATOM     25  C   UNL     1       7.260   7.110  17.349  0.00  0.00    +0.000 C 
BRANCH  25  26
ATOM     26  C   UNL     1       8.259   7.340  18.493  0.00  0.00    +0.000 C 
BRANCH  26  27
ATOM     27  C   UNL     1       8.571   8.820  18.724  0.00  0.00    +0.000 C 
ATOM     28  C   UNL     1       8.114   9.674  17.552  0.00  0.00    +0.000 C 
ENDBRANCH  26  27
ENDBRANCH  25  26
ENDBRANCH  22  25
ENDBRANCH  17  19
ENDBRANCH  16  17
ENDBRANCH  15  16
ENDBRANCH   1  15
TORSDOF 13
ENDMDL
MODEL 2
REMARK VINA RESULT:      -5.6      1.662      8.536
REMARK  Name = 
REMARK  15 active torsions:
REMARK  status: ('A' for Active; 'I' for Inactive)
REMARK    1  A    between atoms: C_1  and  C_2
REMARK    2  A    between atoms: C_2  and  C_3
REMARK    3  A    between atoms: C_3  and  C_4
REMARK    4  A    between atoms: C_4  and  N_5
REMARK    5  A    between atoms: N_8  and  C_9
REMARK    6  A    between atoms: C_9  and  S_11
REMARK    7  A    between atoms: S_11  and  C_12
REMARK    8  A    between atoms: C_12  and  C_13
REMARK    9  A    between atoms: C_13  and  S_14
REMARK   10  A    between atoms: S_14  and  C_15
REMARK   11  A    between atoms: C_15  and  N_17
REMARK   12  A    between atoms: N_20  and  C_21
REMARK   13  A    between atoms: C_21  and  C_22
REMARK   14  A    between atoms: C_22  and  C_23
REMARK   15  A    between atoms: C_23  and  C_24
REMARK                            x       y       z     vdW  Elec       q    Type
REMARK                         _______ _______ _______ _____ _____    ______ ____
ROOT
ATOM      1  C   UNL     1       1.889   4.855  19.709  0.00  0.00    +0.000 C 
ENDROOT
BRANCH   1   2
ATOM      2  S   UNL     1       2.017   4.305  17.967  0.00  0.00    +0.000 S 
BRANCH   2   3
ATOM      3  C   UNL     1       3.612   3.539  17.987  0.00  0.00    +0.000 C 
ATOM      4  S   UNL     1       3.709   1.909  18.408  0.00  0.00    +0.000 S 
BRANCH   3   8
ATOM      5  N   UNL     1       7.375   5.540  17.080  0.00  0.00    +0.000 NA
ATOM      6  C   UNL     1       7.059   4.883  18.364  0.00  0.00    +0.000 C 
ATOM      7  C   UNL     1       5.571   4.925  18.755  0.00  0.00    +0.000 C 
ATOM      8  N   UNL     1       4.709   4.365  17.693  0.00  0.00    +0.000 N 
ATOM      9  C   UNL     1       4.989   4.960  16.368  0.00  0.00    +0.000 C 
ATOM     10  C   UNL     1       6.500   4.965  16.035  0.00  0.00    +0.000 C 
BRANCH   5  11
ATOM     11  C   UNL     1       7.279   7.008  17.123  0.00  0.00    +0.000 C 
BRANCH  11  12
ATOM     12  C   UNL     1       8.164   7.677  18.191  0.00  0.00    +0.000 C 
BRANCH  12  14
ATOM     13  C   UNL     1       9.109   9.818  19.122  0.00  0.00    +0.000 C 
ATOM     14  C   UNL     1       8.292   9.189  18.003  0.00  0.00    +0.000 C 
ENDBRANCH  12  14
ENDBRANCH  11  12
ENDBRANCH   5  11
ENDBRANCH   3   8
ENDBRANCH   2   3
ENDBRANCH   1   2
BRANCH   1  15
ATOM     15  C   UNL     1       2.582   6.203  19.941  0.00  0.00    +0.000 C 
BRANCH  15  16
ATOM     16  S   UNL     1       1.461   7.438  20.687  0.00  0.00    +0.000 S 
BRANCH  16  17
ATOM     17  C   UNL     1       1.534   8.675  19.428  0.00  0.00    +0.000 C 
ATOM     18  S   UNL     1       2.360   8.290  18.012  0.00  0.00    +0.000 S 
BRANCH  17  19
ATOM     19  N   UNL     1       0.899   9.896  19.701  0.00  0.00    +0.000 N 
ATOM     20  C   UNL     1       0.595  10.861  18.619  0.00  0.00    +0.000 C 
ATOM     21  C   UNL     1      -0.693  11.660  18.893  0.00  0.00    +0.000 C 
ATOM     22  N   UNL     1      -0.730  12.339  20.203  0.00  0.00    +0.000 NA
ATOM     23  C   UNL     1      -0.459  11.337  21.254  0.00  0.00    +0.000 C 
ATOM     24  C   UNL     1       0.824  10.506  21.047  0.00  0.00    +0.000 C 
BRANCH  22  25
ATOM     25  C   UNL     1       0.180  13.491  20.300  0.00  0.00    +0.000 C 
BRANCH  25  26
ATOM     26  C   UNL     1       0.228  14.136  21.694  0.00  0.00    +0.000 C 
BRANCH  26  27
ATOM     27  C   UNL     1       1.404  15.099  21.866  0.00  0.00    +0.000 C 
ATOM     28  C   UNL     1       1.590  15.974  20.637  0.00  0.00    +0.000 C 
ENDBRANCH  26  27
ENDBRANCH  25  26
ENDBRANCH  22  25
ENDBRANCH  17  19
ENDBRANCH  16  17
ENDBRANCH  15  16
ENDBRANCH   1  15
TORSDOF 13
ENDMDL
MODEL 3
REMARK VINA RESULT:      -5.5      2.746      9.299
REMARK  Name = 
REMARK  15 active torsions:
REMARK  status: ('A' for Active; 'I' for Inactive)
REMARK    1  A    between atoms: C_1  and  C_2
REMARK    2  A    between atoms: C_2  and  C_3
REMARK    3  A    between atoms: C_3  and  C_4
REMARK    4  A    between atoms: C_4  and  N_5
REMARK    5  A    between atoms: N_8  and  C_9
REMARK    6  A    between atoms: C_9  and  S_11
REMARK    7  A    between atoms: S_11  and  C_12
REMARK    8  A    between atoms: C_12  and  C_13
REMARK    9  A    between atoms: C_13  and  S_14
REMARK   10  A    between atoms: S_14  and  C_15
REMARK   11  A    between atoms: C_15  and  N_17
REMARK   12  A    between atoms: N_20  and  C_21
REMARK   13  A    between atoms: C_21  and  C_22
REMARK   14  A    between atoms: C_22  and  C_23
REMARK   15  A    between atoms: C_23  and  C_24
REMARK                            x       y       z     vdW  Elec       q    Type
REMARK                         _______ _______ _______ _____ _____    ______ ____
ROOT
ATOM      1  C   UNL     1       1.357   5.826  20.665  0.00  0.00    +0.000 C 
ENDROOT
BRANCH   1   2
ATOM      2  S   UNL     1       2.557   4.461  20.885  0.00  0.00    +0.000 S 
BRANCH   2   3
ATOM      3  C   UNL     1       2.639   3.833  19.232  0.00  0.00    +0.000 C 
ATOM      4  S   UNL     1       1.368   2.873  18.678  0.00  0.00    +0.000 S 
BRANCH   3   8
ATOM      5  N   UNL     1       6.126   5.419  17.154  0.00  0.00    +0.000 NA
ATOM      6  C   UNL     1       4.725   5.705  16.787  0.00  0.00    +0.000 C 
ATOM      7  C   UNL     1       3.739   4.560  17.085  0.00  0.00    +0.000 C 
ATOM      8  N   UNL     1       3.798   4.141  18.501  0.00  0.00    +0.000 N 
ATOM      9  C   UNL     1       5.180   3.862  18.948  0.00  0.00    +0.000 C 
ATOM     10  C   UNL     1       6.159   4.999  18.573  0.00  0.00    +0.000 C 
BRANCH   5  11
ATOM     11  C   UNL     1       6.781   4.432  16.281  0.00  0.00    +0.000 C 
BRANCH  11  12
ATOM     12  C   UNL     1       6.797   4.810  14.787  0.00  0.00    +0.000 C 
BRANCH  12  14
ATOM     13  C   UNL     1       6.607   3.768  12.502  0.00  0.00    +0.000 C 
ATOM     14  C   UNL     1       6.032   3.818  13.910  0.00  0.00    +0.000 C 
ENDBRANCH  12  14
ENDBRANCH  11  12
ENDBRANCH   5  11
ENDBRANCH   3   8
ENDBRANCH   2   3
ENDBRANCH   1   2
BRANCH   1  15
ATOM     15  C   UNL     1       2.045   7.145  20.293  0.00  0.00    +0.000 C 
BRANCH  15  16
ATOM     16  S   UNL     1       1.110   8.601  20.879  0.00  0.00    +0.000 S 
BRANCH  16  17
ATOM     17  C   UNL     1       1.163   9.574  19.405  0.00  0.00    +0.000 C 
ATOM     18  S   UNL     1       1.861   8.877  18.041  0.00  0.00    +0.000 S 
BRANCH  17  19
ATOM     19  N   UNL     1       0.620  10.867  19.479  0.00  0.00    +0.000 N 
ATOM     20  C   UNL     1      -0.492  11.283  18.593  0.00  0.00    +0.000 C 
ATOM     21  C   UNL     1      -1.433  12.295  19.273  0.00  0.00    +0.000 C 
ATOM     22  N   UNL     1      -0.760  13.483  19.833  0.00  0.00    +0.000 NA
ATOM     23  C   UNL     1       0.315  13.025  20.737  0.00  0.00    +0.000 C 
ATOM     24  C   UNL     1       1.303  12.015  20.117  0.00  0.00    +0.000 C 
BRANCH  22  25
ATOM     25  C   UNL     1      -0.254  14.415  18.814  0.00  0.00    +0.000 C 
BRANCH  25  26
ATOM     26  C   UNL     1       0.529  15.607  19.387  0.00  0.00    +0.000 C 
BRANCH  26  27
ATOM     27  C   UNL     1       1.872  15.830  18.690  0.00  0.00    +0.000 C 
ATOM     28  C   UNL     1       1.898  17.155  17.945  0.00  0.00    +0.000 C 
ENDBRANCH  26  27
ENDBRANCH  25  26
ENDBRANCH  22  25
ENDBRANCH  17  19
ENDBRANCH  16  17
ENDBRANCH  15  16
ENDBRANCH   1  15
TORSDOF 13
ENDMDL
MODEL 4
REMARK VINA RESULT:      -5.4      3.690     10.694
REMARK  Name = 
REMARK  15 active torsions:
REMARK  status: ('A' for Active; 'I' for Inactive)
REMARK    1  A    between atoms: C_1  and  C_2
REMARK    2  A    between atoms: C_2  and  C_3
REMARK    3  A    between atoms: C_3  and  C_4
REMARK    4  A    between atoms: C_4  and  N_5
REMARK    5  A    between atoms: N_8  and  C_9
REMARK    6  A    between atoms: C_9  and  S_11
REMARK    7  A    between atoms: S_11  and  C_12
REMARK    8  A    between atoms: C_12  and  C_13
REMARK    9  A    between atoms: C_13  and  S_14
REMARK   10  A    between atoms: S_14  and  C_15
REMARK   11  A    between atoms: C_15  and  N_17
REMARK   12  A    between atoms: N_20  and  C_21
REMARK   13  A    between atoms: C_21  and  C_22
REMARK   14  A    between atoms: C_22  and  C_23
REMARK   15  A    between atoms: C_23  and  C_24
REMARK                            x       y       z     vdW  Elec       q    Type
REMARK                         _______ _______ _______ _____ _____    ______ ____
ROOT
ATOM      1  C   UNL     1       1.533   8.033  20.550  0.00  0.00    +0.000 C 
ENDROOT
BRANCH   1   2
ATOM      2  S   UNL     1       2.284   7.628  18.930  0.00  0.00    +0.000 S 
BRANCH   2   3
ATOM      3  C   UNL     1       2.858   5.983  19.242  0.00  0.00    +0.000 C 
ATOM      4  S   UNL     1       2.208   5.146  20.553  0.00  0.00    +0.000 S 
BRANCH   3   8
ATOM      5  N   UNL     1       6.375   4.948  16.886  0.00  0.00    +0.000 NA
ATOM      6  C   UNL     1       5.620   6.211  16.760  0.00  0.00    +0.000 C 
ATOM      7  C   UNL     1       4.114   6.087  17.060  0.00  0.00    +0.000 C 
ATOM      8  N   UNL     1       3.867   5.499  18.393  0.00  0.00    +0.000 N 
ATOM      9  C   UNL     1       4.616   4.240  18.600  0.00  0.00    +0.000 C 
ATOM     10  C   UNL     1       6.110   4.378  18.225  0.00  0.00    +0.000 C 
BRANCH   5  11
ATOM     11  C   UNL     1       6.094   3.977  15.816  0.00  0.00    +0.000 C 
BRANCH  11  12
ATOM     12  C   UNL     1       5.836   4.604  14.433  0.00  0.00    +0.000 C 
BRANCH  12  14
ATOM     13  C   UNL     1       5.310   3.392  12.289  0.00  0.00    +0.000 C 
ATOM     14  C   UNL     1       6.399   3.770  13.282  0.00  0.00    +0.000 C 
ENDBRANCH  12  14
ENDBRANCH  11  12
ENDBRANCH   5  11
ENDBRANCH   3   8
ENDBRANCH   2   3
ENDBRANCH   1   2
BRANCH   1  15
ATOM     15  C   UNL     1       0.631   9.271  20.474  0.00  0.00    +0.000 C 
BRANCH  15  16
ATOM     16  S   UNL     1       0.593   9.997  18.798  0.00  0.00    +0.000 S 
BRANCH  16  17
ATOM     17  C   UNL     1      -0.508  11.344  19.105  0.00  0.00    +0.000 C 
ATOM     18  S   UNL     1       0.130  12.707  19.861  0.00  0.00    +0.000 S 
BRANCH  17  19
ATOM     19  N   UNL     1      -1.841  11.180  18.699  0.00  0.00    +0.000 N 
ATOM     20  C   UNL     1      -2.930  11.985  19.299  0.00  0.00    +0.000 C 
ATOM     21  C   UNL     1      -4.062  12.277  18.296  0.00  0.00    +0.000 C 
ATOM     22  N   UNL     1      -4.621  11.083  17.632  0.00  0.00    +0.000 NA
ATOM     23  C   UNL     1      -3.509  10.330  17.017  0.00  0.00    +0.000 C 
ATOM     24  C   UNL     1      -2.342   9.994  17.970  0.00  0.00    +0.000 C 
BRANCH  22  25
ATOM     25  C   UNL     1      -5.428  10.233  18.520  0.00  0.00    +0.000 C 
BRANCH  25  26
ATOM     26  C   UNL     1      -6.895  10.673  18.647  0.00  0.00    +0.000 C 
BRANCH  26  27
ATOM     27  C   UNL     1      -7.335  10.874  20.098  0.00  0.00    +0.000 C 
ATOM     28  C   UNL     1      -6.468  11.904  20.804  0.00  0.00    +0.000 C 
ENDBRANCH  26  27
ENDBRANCH  25  26
ENDBRANCH  22  25
ENDBRANCH  17  19
ENDBRANCH  16  17
ENDBRANCH  15  16
ENDBRANCH   1  15
TORSDOF 13
ENDMDL
MODEL 5
REMARK VINA RESULT:      -5.3      3.255      5.296
REMARK  Name = 
REMARK  15 active torsions:
REMARK  status: ('A' for Active; 'I' for Inactive)
REMARK    1  A    between atoms: C_1  and  C_2
REMARK    2  A    between atoms: C_2  and  C_3
REMARK    3  A    between atoms: C_3  and  C_4
REMARK    4  A    between atoms: C_4  and  N_5
REMARK    5  A    between atoms: N_8  and  C_9
REMARK    6  A    between atoms: C_9  and  S_11
REMARK    7  A    between atoms: S_11  and  C_12
REMARK    8  A    between atoms: C_12  and  C_13
REMARK    9  A    between atoms: C_13  and  S_14
REMARK   10  A    between atoms: S_14  and  C_15
REMARK   11  A    between atoms: C_15  and  N_17
REMARK   12  A    between atoms: N_20  and  C_21
REMARK   13  A    between atoms: C_21  and  C_22
REMARK   14  A    between atoms: C_22  and  C_23
REMARK   15  A    between atoms: C_23  and  C_24
REMARK                            x       y       z     vdW  Elec       q    Type
REMARK                         _______ _______ _______ _____ _____    ______ ____
ROOT
ATOM      1  C   UNL     1       2.613   7.860  18.552  0.00  0.00    +0.000 C 
ENDROOT
BRANCH   1   2
ATOM      2  S   UNL     1       1.838   9.453  18.090  0.00  0.00    +0.000 S 
BRANCH   2   3
ATOM      3  C   UNL     1       0.656   9.629  19.395  0.00  0.00    +0.000 C 
ATOM      4  S   UNL     1       1.013   8.943  20.893  0.00  0.00    +0.000 S 
BRANCH   3   8
ATOM      5  N   UNL     1      -2.666  12.091  18.019  0.00  0.00    +0.000 NA
ATOM      6  C   UNL     1      -1.578  12.561  18.898  0.00  0.00    +0.000 C 
ATOM      7  C   UNL     1      -0.995  11.482  19.829  0.00  0.00    +0.000 C 
ATOM      8  N   UNL     1      -0.537  10.296  19.075  0.00  0.00    +0.000 N 
ATOM      9  C   UNL     1      -1.572   9.784  18.150  0.00  0.00    +0.000 C 
ATOM     10  C   UNL     1      -2.186  10.904  17.277  0.00  0.00    +0.000 C 
BRANCH   5  11
ATOM     11  C   UNL     1      -3.926  11.815  18.727  0.00  0.00    +0.000 C 
BRANCH  11  12
ATOM     12  C   UNL     1      -5.183  11.855  17.837  0.00  0.00    +0.000 C 
BRANCH  12  14
ATOM     13  C   UNL     1      -7.225  11.498  19.268  0.00  0.00    +0.000 C 
ATOM     14  C   UNL     1      -6.261  10.863  18.276  0.00  0.00    +0.000 C 
ENDBRANCH  12  14
ENDBRANCH  11  12
ENDBRANCH   5  11
ENDBRANCH   3   8
ENDBRANCH   2   3
ENDBRANCH   1   2
BRANCH   1  15
ATOM     15  C   UNL     1       3.094   7.075  17.326  0.00  0.00    +0.000 C 
BRANCH  15  16
ATOM     16  S   UNL     1       4.878   6.688  17.410  0.00  0.00    +0.000 S 
BRANCH  16  17
ATOM     17  C   UNL     1       4.831   5.033  16.793  0.00  0.00    +0.000 C 
ATOM     18  S   UNL     1       5.520   4.750  15.283  0.00  0.00    +0.000 S 
BRANCH  17  19
ATOM     19  N   UNL     1       4.216   4.069  17.608  0.00  0.00    +0.000 N 
ATOM     20  C   UNL     1       2.819   3.641  17.367  0.00  0.00    +0.000 C 
ATOM     21  C   UNL     1       2.588   2.164  17.741  0.00  0.00    +0.000 C 
ATOM     22  N   UNL     1       3.000   1.803  19.111  0.00  0.00    +0.000 NA
ATOM     23  C   UNL     1       4.407   2.214  19.297  0.00  0.00    +0.000 C 
ATOM     24  C   UNL     1       4.708   3.687  18.950  0.00  0.00    +0.000 C 
BRANCH  22  25
ATOM     25  C   UNL     1       2.128   2.357  20.159  0.00  0.00    +0.000 C 
BRANCH  25  26
ATOM     26  C   UNL     1       0.977   3.223  19.624  0.00  0.00    +0.000 C 
BRANCH  26  27
ATOM     27  C   UNL     1       0.782   4.515  20.419  0.00  0.00    +0.000 C 
ATOM     28  C   UNL     1       2.114   5.108  20.850  0.00  0.00    +0.000 C 
ENDBRANCH  26  27
ENDBRANCH  25  26
ENDBRANCH  22  25
ENDBRANCH  17  19
ENDBRANCH  16  17
ENDBRANCH  15  16
ENDBRANCH   1  15
TORSDOF 13
ENDMDL
MODEL 6
REMARK VINA RESULT:      -5.3      2.159      9.800
REMARK  Name = 
REMARK  15 active torsions:
REMARK  status: ('A' for Active; 'I' for Inactive)
REMARK    1  A    between atoms: C_1  and  C_2
REMARK    2  A    between atoms: C_2  and  C_3
REMARK    3  A    between atoms: C_3  and  C_4
REMARK    4  A    between atoms: C_4  and  N_5
REMARK    5  A    between atoms: N_8  and  C_9
REMARK    6  A    between atoms: C_9  and  S_11
REMARK    7  A    between atoms: S_11  and  C_12
REMARK    8  A    between atoms: C_12  and  C_13
REMARK    9  A    between atoms: C_13  and  S_14
REMARK   10  A    between atoms: S_14  and  C_15
REMARK   11  A    between atoms: C_15  and  N_17
REMARK   12  A    between atoms: N_20  and  C_21
REMARK   13  A    between atoms: C_21  and  C_22
REMARK   14  A    between atoms: C_22  and  C_23
REMARK   15  A    between atoms: C_23  and  C_24
REMARK                            x       y       z     vdW  Elec       q    Type
REMARK                         _______ _______ _______ _____ _____    ______ ____
ROOT
ATOM      1  C   UNL     1       1.657   5.940  19.676  0.00  0.00    +0.000 C 
ENDROOT
BRANCH   1   2
ATOM      2  S   UNL     1       2.419   4.588  20.648  0.00  0.00    +0.000 S 
BRANCH   2   3
ATOM      3  C   UNL     1       2.995   3.538  19.345  0.00  0.00    +0.000 C 
ATOM      4  S   UNL     1       2.275   2.024  19.162  0.00  0.00    +0.000 S 
BRANCH   3   8
ATOM      5  N   UNL     1       6.046   5.652  17.061  0.00  0.00    +0.000 NA
ATOM      6  C   UNL     1       4.624   5.554  16.677  0.00  0.00    +0.000 C 
ATOM      7  C   UNL     1       3.930   4.251  17.117  0.00  0.00    +0.000 C 
ATOM      8  N   UNL     1       4.061   4.024  18.571  0.00  0.00    +0.000 N 
ATOM      9  C   UNL     1       5.462   4.134  19.034  0.00  0.00    +0.000 C 
ATOM     10  C   UNL     1       6.151   5.419  18.519  0.00  0.00    +0.000 C 
BRANCH   5  11
ATOM     11  C   UNL     1       6.931   4.753  16.303  0.00  0.00    +0.000 C 
BRANCH  11  12
ATOM     12  C   UNL     1       6.820   4.888  14.772  0.00  0.00    +0.000 C 
BRANCH  12  14
ATOM     13  C   UNL     1       6.463   3.646  12.611  0.00  0.00    +0.000 C 
ATOM     14  C   UNL     1       6.185   3.666  14.107  0.00  0.00    +0.000 C 
ENDBRANCH  12  14
ENDBRANCH  11  12
ENDBRANCH   5  11
ENDBRANCH   3   8
ENDBRANCH   2   3
ENDBRANCH   1   2
BRANCH   1  15
ATOM     15  C   UNL     1       2.290   7.301  19.986  0.00  0.00    +0.000 C 
BRANCH  15  16
ATOM     16  S   UNL     1       1.086   8.477  20.698  0.00  0.00    +0.000 S 
BRANCH  16  17
ATOM     17  C   UNL     1       0.980   9.615  19.350  0.00  0.00    +0.000 C 
ATOM     18  S   UNL     1       1.897   9.278  17.979  0.00  0.00    +0.000 S 
BRANCH  17  19
ATOM     19  N   UNL     1       0.137  10.724  19.522  0.00  0.00    +0.000 N 
ATOM     20  C   UNL     1       0.635  11.976  20.136  0.00  0.00    +0.000 C 
ATOM     21  C   UNL     1      -0.056  13.226  19.558  0.00  0.00    +0.000 C 
ATOM     22  N   UNL     1      -1.531  13.191  19.601  0.00  0.00    +0.000 NA
ATOM     23  C   UNL     1      -1.985  11.947  18.947  0.00  0.00    +0.000 C 
ATOM     24  C   UNL     1      -1.341  10.653  19.485  0.00  0.00    +0.000 C 
BRANCH  22  25
ATOM     25  C   UNL     1      -2.089  13.329  20.955  0.00  0.00    +0.000 C 
BRANCH  25  26
ATOM     26  C   UNL     1      -3.610  13.127  21.030  0.00  0.00    +0.000 C 
BRANCH  26  27
ATOM     27  C   UNL     1      -4.121  12.970  22.464  0.00  0.00    +0.000 C 
ATOM     28  C   UNL     1      -2.979  12.729  23.438  0.00  0.00    +0.000 C 
ENDBRANCH  26  27
ENDBRANCH  25  26
ENDBRANCH  22  25
ENDBRANCH  17  19
ENDBRANCH  16  17
ENDBRANCH  15  16
ENDBRANCH   1  15
TORSDOF 13
ENDMDL
MODEL 7
REMARK VINA RESULT:      -5.3      4.179     10.840
REMARK  Name = 
REMARK  15 active torsions:
REMARK  status: ('A' for Active; 'I' for Inactive)
REMARK    1  A    between atoms: C_1  and  C_2
REMARK    2  A    between atoms: C_2  and  C_3
REMARK    3  A    between atoms: C_3  and  C_4
REMARK    4  A    between atoms: C_4  and  N_5
REMARK    5  A    between atoms: N_8  and  C_9
REMARK    6  A    between atoms: C_9  and  S_11
REMARK    7  A    between atoms: S_11  and  C_12
REMARK    8  A    between atoms: C_12  and  C_13
REMARK    9  A    between atoms: C_13  and  S_14
REMARK   10  A    between atoms: S_14  and  C_15
REMARK   11  A    between atoms: C_15  and  N_17
REMARK   12  A    between atoms: N_20  and  C_21
REMARK   13  A    between atoms: C_21  and  C_22
REMARK   14  A    between atoms: C_22  and  C_23
REMARK   15  A    between atoms: C_23  and  C_24
REMARK                            x       y       z     vdW  Elec       q    Type
REMARK                         _______ _______ _______ _____ _____    ______ ____
ROOT
ATOM      1  C   UNL     1       1.418   8.706  20.210  0.00  0.00    +0.000 C 
ENDROOT
BRANCH   1   2
ATOM      2  S   UNL     1       2.106   8.050  18.645  0.00  0.00    +0.000 S 
BRANCH   2   3
ATOM      3  C   UNL     1       2.709   6.478  19.191  0.00  0.00    +0.000 C 
ATOM      4  S   UNL     1       1.875   5.688  20.425  0.00  0.00    +0.000 S 
BRANCH   3   8
ATOM      5  N   UNL     1       6.658   5.559  17.594  0.00  0.00    +0.000 NA
ATOM      6  C   UNL     1       5.845   6.728  17.206  0.00  0.00    +0.000 C 
ATOM      7  C   UNL     1       4.324   6.494  17.256  0.00  0.00    +0.000 C 
ATOM      8  N   UNL     1       3.886   6.013  18.584  0.00  0.00    +0.000 N 
ATOM      9  C   UNL     1       4.679   4.854  19.051  0.00  0.00    +0.000 C 
ATOM     10  C   UNL     1       6.201   5.094  18.923  0.00  0.00    +0.000 C 
BRANCH   5  11
ATOM     11  C   UNL     1       6.646   4.470  16.605  0.00  0.00    +0.000 C 
BRANCH  11  12
ATOM     12  C   UNL     1       7.099   4.883  15.192  0.00  0.00    +0.000 C 
BRANCH  12  14
ATOM     13  C   UNL     1       6.199   3.567  13.243  0.00  0.00    +0.000 C 
ATOM     14  C   UNL     1       5.987   4.771  14.148  0.00  0.00    +0.000 C 
ENDBRANCH  12  14
ENDBRANCH  11  12
ENDBRANCH   5  11
ENDBRANCH   3   8
ENDBRANCH   2   3
ENDBRANCH   1   2
BRANCH   1  15
ATOM     15  C   UNL     1       0.263   9.684  19.966  0.00  0.00    +0.000 C 
BRANCH  15  16
ATOM     16  S   UNL     1       0.116  10.157  18.208  0.00  0.00    +0.000 S 
BRANCH  16  17
ATOM     17  C   UNL     1      -0.828  11.639  18.397  0.00  0.00    +0.000 C 
ATOM     18  S   UNL     1      -0.016  13.010  18.941  0.00  0.00    +0.000 S 
BRANCH  17  19
ATOM     19  N   UNL     1      -2.194  11.565  18.083  0.00  0.00    +0.000 N 
ATOM     20  C   UNL     1      -2.651  11.372  16.688  0.00  0.00    +0.000 C 
ATOM     21  C   UNL     1      -3.957  10.559  16.607  0.00  0.00    +0.000 C 
ATOM     22  N   UNL     1      -5.061  11.083  17.435  0.00  0.00    +0.000 NA
ATOM     23  C   UNL     1      -4.576  11.226  18.822  0.00  0.00    +0.000 C 
ATOM     24  C   UNL     1      -3.274  12.039  18.978  0.00  0.00    +0.000 C 
BRANCH  22  25
ATOM     25  C   UNL     1      -5.639  12.338  16.928  0.00  0.00    +0.000 C 
BRANCH  25  26
ATOM     26  C   UNL     1      -6.998  12.698  17.548  0.00  0.00    +0.000 C 
BRANCH  26  27
ATOM     27  C   UNL     1      -7.197  14.205  17.717  0.00  0.00    +0.000 C 
ATOM     28  C   UNL     1      -7.023  14.940  16.397  0.00  0.00    +0.000 C 
ENDBRANCH  26  27
ENDBRANCH  25  26
ENDBRANCH  22  25
ENDBRANCH  17  19
ENDBRANCH  16  17
ENDBRANCH  15  16
ENDBRANCH   1  15
TORSDOF 13
ENDMDL
MODEL 8
REMARK VINA RESULT:      -5.3      4.303     11.273
REMARK  Name = 
REMARK  15 active torsions:
REMARK  status: ('A' for Active; 'I' for Inactive)
REMARK    1  A    between atoms: C_1  and  C_2
REMARK    2  A    between atoms: C_2  and  C_3
REMARK    3  A    between atoms: C_3  and  C_4
REMARK    4  A    between atoms: C_4  and  N_5
REMARK    5  A    between atoms: N_8  and  C_9
REMARK    6  A    between atoms: C_9  and  S_11
REMARK    7  A    between atoms: S_11  and  C_12
REMARK    8  A    between atoms: C_12  and  C_13
REMARK    9  A    between atoms: C_13  and  S_14
REMARK   10  A    between atoms: S_14  and  C_15
REMARK   11  A    between atoms: C_15  and  N_17
REMARK   12  A    between atoms: N_20  and  C_21
REMARK   13  A    between atoms: C_21  and  C_22
REMARK   14  A    between atoms: C_22  and  C_23
REMARK   15  A    between atoms: C_23  and  C_24
REMARK                            x       y       z     vdW  Elec       q    Type
REMARK                         _______ _______ _______ _____ _____    ______ ____
ROOT
ATOM      1  C   UNL     1       1.521   8.854  19.406  0.00  0.00    +0.000 C 
ENDROOT
BRANCH   1   2
ATOM      2  S   UNL     1       2.411   8.347  17.888  0.00  0.00    +0.000 S 
BRANCH   2   3
ATOM      3  C   UNL     1       3.087   6.798  18.411  0.00  0.00    +0.000 C 
ATOM      4  S   UNL     1       2.478   6.095  19.817  0.00  0.00    +0.000 S 
BRANCH   3   8
ATOM      5  N   UNL     1       6.684   5.160  16.575  0.00  0.00    +0.000 NA
ATOM      6  C   UNL     1       6.575   6.515  17.150  0.00  0.00    +0.000 C 
ATOM      7  C   UNL     1       5.174   7.145  17.042  0.00  0.00    +0.000 C 
ATOM      8  N   UNL     1       4.135   6.277  17.635  0.00  0.00    +0.000 N 
ATOM      9  C   UNL     1       4.201   4.891  17.123  0.00  0.00    +0.000 C 
ATOM     10  C   UNL     1       5.634   4.311  17.181  0.00  0.00    +0.000 C 
BRANCH   5  11
ATOM     11  C   UNL     1       6.625   5.130  15.105  0.00  0.00    +0.000 C 
BRANCH  11  12
ATOM     12  C   UNL     1       6.305   3.749  14.504  0.00  0.00    +0.000 C 
BRANCH  12  14
ATOM     13  C   UNL     1       6.421   3.279  12.033  0.00  0.00    +0.000 C 
ATOM     14  C   UNL     1       5.570   3.832  13.166  0.00  0.00    +0.000 C 
ENDBRANCH  12  14
ENDBRANCH  11  12
ENDBRANCH   5  11
ENDBRANCH   3   8
ENDBRANCH   2   3
ENDBRANCH   1   2
BRANCH   1  15
ATOM     15  C   UNL     1       0.966  10.279  19.301  0.00  0.00    +0.000 C 
BRANCH  15  16
ATOM     16  S   UNL     1      -0.731  10.411  19.964  0.00  0.00    +0.000 S 
BRANCH  16  17
ATOM     17  C   UNL     1      -1.299  11.779  19.000  0.00  0.00    +0.000 C 
ATOM     18  S   UNL     1      -0.182  12.984  18.632  0.00  0.00    +0.000 S 
BRANCH  17  19
ATOM     19  N   UNL     1      -2.648  11.765  18.612  0.00  0.00    +0.000 N 
ATOM     20  C   UNL     1      -3.038  11.510  17.207  0.00  0.00    +0.000 C 
ATOM     21  C   UNL     1      -4.385  10.770  17.099  0.00  0.00    +0.000 C 
ATOM     22  N   UNL     1      -5.499  11.409  17.827  0.00  0.00    +0.000 NA
ATOM     23  C   UNL     1      -5.083  11.611  19.230  0.00  0.00    +0.000 C 
ATOM     24  C   UNL     1      -3.744  12.357  19.412  0.00  0.00    +0.000 C 
BRANCH  22  25
ATOM     25  C   UNL     1      -5.970  12.660  17.213  0.00  0.00    +0.000 C 
BRANCH  25  26
ATOM     26  C   UNL     1      -6.999  13.426  18.058  0.00  0.00    +0.000 C 
BRANCH  26  27
ATOM     27  C   UNL     1      -7.075  14.912  17.705  0.00  0.00    +0.000 C 
ATOM     28  C   UNL     1      -7.114  15.125  16.201  0.00  0.00    +0.000 C 
ENDBRANCH  26  27
ENDBRANCH  25  26
ENDBRANCH  22  25
ENDBRANCH  17  19
ENDBRANCH  16  17
ENDBRANCH  15  16
ENDBRANCH   1  15
TORSDOF 13
ENDMDL
MODEL 9
REMARK VINA RESULT:      -5.2      1.868      2.652
REMARK  Name = 
REMARK  15 active torsions:
REMARK  status: ('A' for Active; 'I' for Inactive)
REMARK    1  A    between atoms: C_1  and  C_2
REMARK    2  A    between atoms: C_2  and  C_3
REMARK    3  A    between atoms: C_3  and  C_4
REMARK    4  A    between atoms: C_4  and  N_5
REMARK    5  A    between atoms: N_8  and  C_9
REMARK    6  A    between atoms: C_9  and  S_11
REMARK    7  A    between atoms: S_11  and  C_12
REMARK    8  A    between atoms: C_12  and  C_13
REMARK    9  A    between atoms: C_13  and  S_14
REMARK   10  A    between atoms: S_14  and  C_15
REMARK   11  A    between atoms: C_15  and  N_17
REMARK   12  A    between atoms: N_20  and  C_21
REMARK   13  A    between atoms: C_21  and  C_22
REMARK   14  A    between atoms: C_22  and  C_23
REMARK   15  A    between atoms: C_23  and  C_24
REMARK                            x       y       z     vdW  Elec       q    Type
REMARK                         _______ _______ _______ _____ _____    ______ ____
ROOT
ATOM      1  C   UNL     1       1.932   6.884  20.104  0.00  0.00    +0.000 C 
ENDROOT
BRANCH   1   2
ATOM      2  S   UNL     1       0.989   8.206  20.951  0.00  0.00    +0.000 S 
BRANCH   2   3
ATOM      3  C   UNL     1       0.813   9.373  19.632  0.00  0.00    +0.000 C 
ATOM      4  S   UNL     1       1.745   9.155  18.243  0.00  0.00    +0.000 S 
BRANCH   3   8
ATOM      5  N   UNL     1      -1.371  13.059  20.424  0.00  0.00    +0.000 NA
ATOM      6  C   UNL     1      -0.585  12.315  21.428  0.00  0.00    +0.000 C 
ATOM      7  C   UNL     1      -0.547  10.791  21.209  0.00  0.00    +0.000 C 
ATOM      8  N   UNL     1      -0.068  10.443  19.855  0.00  0.00    +0.000 N 
ATOM      9  C   UNL     1      -0.796  11.175  18.795  0.00  0.00    +0.000 C 
ATOM     10  C   UNL     1      -0.875  12.694  19.079  0.00  0.00    +0.000 C 
BRANCH   5  11
ATOM     11  C   UNL     1      -2.825  12.861  20.540  0.00  0.00    +0.000 C 
BRANCH  11  12
ATOM     12  C   UNL     1      -3.489  13.647  21.686  0.00  0.00    +0.000 C 
BRANCH  12  14
ATOM     13  C   UNL     1      -3.796  13.519  24.182  0.00  0.00    +0.000 C 
ATOM     14  C   UNL     1      -3.893  12.762  22.866  0.00  0.00    +0.000 C 
ENDBRANCH  12  14
ENDBRANCH  11  12
ENDBRANCH   5  11
ENDBRANCH   3   8
ENDBRANCH   2   3
ENDBRANCH   1   2
BRANCH   1  15
ATOM     15  C   UNL     1       1.469   5.485  20.527  0.00  0.00    +0.000 C 
BRANCH  15  16
ATOM     16  S   UNL     1       2.863   4.312  20.678  0.00  0.00    +0.000 S 
BRANCH  16  17
ATOM     17  C   UNL     1       2.928   3.743  19.007  0.00  0.00    +0.000 C 
ATOM     18  S   UNL     1       1.902   2.479  18.579  0.00  0.00    +0.000 S 
BRANCH  17  19
ATOM     19  N   UNL     1       3.838   4.385  18.153  0.00  0.00    +0.000 N 
ATOM     20  C   UNL     1       4.631   3.621  17.163  0.00  0.00    +0.000 C 
ATOM     21  C   UNL     1       4.912   4.434  15.885  0.00  0.00    +0.000 C 
ATOM     22  N   UNL     1       5.529   5.755  16.118  0.00  0.00    +0.000 NA
ATOM     23  C   UNL     1       4.689   6.497  17.081  0.00  0.00    +0.000 C 
ATOM     24  C   UNL     1       4.376   5.744  18.390  0.00  0.00    +0.000 C 
BRANCH  22  25
ATOM     25  C   UNL     1       6.931   5.686  16.559  0.00  0.00    +0.000 C 
BRANCH  25  26
ATOM     26  C   UNL     1       7.494   7.021  17.069  0.00  0.00    +0.000 C 
BRANCH  26  27
ATOM     27  C   UNL     1       7.929   6.965  18.535  0.00  0.00    +0.000 C 
ATOM     28  C   UNL     1       7.912   5.540  19.065  0.00  0.00    +0.000 C 
ENDBRANCH  26  27
ENDBRANCH  25  26
ENDBRANCH  22  25
ENDBRANCH  17  19
ENDBRANCH  16  17
ENDBRANCH  15  16
ENDBRANCH   1  15
TORSDOF 13
ENDMDL
