MODEL 1
REMARK VINA RESULT:      -6.7      0.000      0.000
REMARK  Name = 
REMARK  7 active torsions:
REMARK  status: ('A' for Active; 'I' for Inactive)
REMARK    1  A    between atoms: C_1  and  O_2
REMARK    2  A    between atoms: O_2  and  C_3
REMARK    3  A    between atoms: C_6  and  C_7
REMARK    4  A    between atoms: C_25  and  O_26
REMARK    5  A    between atoms: O_26  and  C_27
REMARK    6  A    between atoms: C_28  and  O_29
REMARK    7  A    between atoms: O_29  and  C_30
REMARK                            x       y       z     vdW  Elec       q    Type
REMARK                         _______ _______ _______ _____ _____    ______ ____
ROOT
ATOM      1  C   UNL     1       1.270  12.266  19.184  0.00  0.00    +0.000 C 
ATOM      2  C   UNL     1       0.588  11.105  19.346  0.00  0.00    +0.000 C 
ATOM      3  C   UNL     1       1.308   9.854  19.036  0.00  0.00    +0.000 A 
ATOM      4  C   UNL     1       1.924   9.616  17.801  0.00  0.00    +0.000 A 
ATOM      5  C   UNL     1       2.532   8.390  17.554  0.00  0.00    +0.000 A 
ATOM      6  C   UNL     1       2.480   7.383  18.519  0.00  0.00    +0.000 A 
ATOM      7  C   UNL     1       1.873   7.613  19.763  0.00  0.00    +0.000 A 
ATOM      8 CL   UNL     1       1.775   6.268  20.840  0.00  0.00    +0.000 Cl
ATOM      9  C   UNL     1       1.326   8.870  20.044  0.00  0.00    +0.000 A 
ATOM     10  C   UNL     1       0.817   9.289  21.391  0.00  0.00    +0.000 C 
ATOM     11  O   UNL     1       1.176   8.727  22.429  0.00  0.00    +0.000 OA
ATOM     12  C   UNL     1      -0.118  10.447  21.497  0.00  0.00    +0.000 A 
ATOM     13  C   UNL     1      -0.487  10.999  22.720  0.00  0.00    +0.000 A 
ATOM     14  C   UNL     1      -1.415  12.039  22.746  0.00  0.00    +0.000 A 
ATOM     15  C   UNL     1      -2.083  12.405  21.572  0.00  0.00    +0.000 A 
ATOM     16  C   UNL     1      -1.666  11.883  20.347  0.00  0.00    +0.000 A 
ATOM     17 CL   UNL     1      -2.523  12.304  18.916  0.00  0.00    +0.000 Cl
ATOM     18  C   UNL     1      -0.539  11.059  20.316  0.00  0.00    +0.000 A 
ENDROOT
BRANCH   1  22
ATOM     19  C   UNL     1       0.147  16.351  19.747  0.00  0.00    +0.000 A 
ATOM     20  C   UNL     1      -0.415  15.614  18.689  0.00  0.00    +0.000 A 
ATOM     21  C   UNL     1      -0.156  14.248  18.544  0.00  0.00    +0.000 A 
ATOM     22  C   UNL     1       0.725  13.611  19.416  0.00  0.00    +0.000 A 
ATOM     23  C   UNL     1       1.265  14.334  20.506  0.00  0.00    +0.000 A 
ATOM     24  C   UNL     1       1.011  15.712  20.665  0.00  0.00    +0.000 A 
BRANCH  19  26
ATOM     25  C   UNL     1       0.703  18.592  19.152  0.00  0.00    +0.000 C 
ATOM     26  O   UNL     1      -0.116  17.690  19.895  0.00  0.00    +0.000 OA
ENDBRANCH  19  26
BRANCH  23  27
ATOM     27  O   UNL     1       1.955  13.541  21.401  0.00  0.00    +0.000 OA
ATOM     28  C   UNL     1       3.352  13.742  21.528  0.00  0.00    +0.000 C 
ENDBRANCH  23  27
BRANCH  24  29
ATOM     29  O   UNL     1       1.634  16.274  21.741  0.00  0.00    +0.000 OA
ATOM     30  C   UNL     1       0.950  16.520  22.951  0.00  0.00    +0.000 C 
ENDBRANCH  24  29
ENDBRANCH   1  22
TORSDOF 4
ENDMDL
MODEL 2
REMARK VINA RESULT:      -6.1      3.229      6.896
REMARK  Name = 
REMARK  7 active torsions:
REMARK  status: ('A' for Active; 'I' for Inactive)
REMARK    1  A    between atoms: C_1  and  O_2
REMARK    2  A    between atoms: O_2  and  C_3
REMARK    3  A    between atoms: C_6  and  C_7
REMARK    4  A    between atoms: C_25  and  O_26
REMARK    5  A    between atoms: O_26  and  C_27
REMARK    6  A    between atoms: C_28  and  O_29
REMARK    7  A    between atoms: O_29  and  C_30
REMARK                            x       y       z     vdW  Elec       q    Type
REMARK                         _______ _______ _______ _____ _____    ______ ____
ROOT
ATOM      1  C   UNL     1      -1.382  15.899  20.727  0.00  0.00    +0.000 C 
ATOM      2  C   UNL     1      -0.816  15.515  19.555  0.00  0.00    +0.000 C 
ATOM      3  C   UNL     1      -0.288  16.582  18.683  0.00  0.00    +0.000 A 
ATOM      4  C   UNL     1      -1.064  17.662  18.246  0.00  0.00    +0.000 A 
ATOM      5  C   UNL     1      -0.520  18.599  17.374  0.00  0.00    +0.000 A 
ATOM      6  C   UNL     1       0.780  18.430  16.896  0.00  0.00    +0.000 A 
ATOM      7  C   UNL     1       1.570  17.356  17.333  0.00  0.00    +0.000 A 
ATOM      8 CL   UNL     1       3.123  17.186  16.601  0.00  0.00    +0.000 Cl
ATOM      9  C   UNL     1       1.053  16.453  18.269  0.00  0.00    +0.000 A 
ATOM     10  C   UNL     1       1.856  15.380  18.943  0.00  0.00    +0.000 C 
ATOM     11  O   UNL     1       3.085  15.439  19.026  0.00  0.00    +0.000 OA
ATOM     12  C   UNL     1       1.156  14.223  19.572  0.00  0.00    +0.000 A 
ATOM     13  C   UNL     1       1.820  13.289  20.363  0.00  0.00    +0.000 A 
ATOM     14  C   UNL     1       1.114  12.198  20.868  0.00  0.00    +0.000 A 
ATOM     15  C   UNL     1      -0.199  11.964  20.445  0.00  0.00    +0.000 A 
ATOM     16  C   UNL     1      -0.869  12.933  19.697  0.00  0.00    +0.000 A 
ATOM     17 CL   UNL     1      -2.467  12.615  19.144  0.00  0.00    +0.000 Cl
ATOM     18  C   UNL     1      -0.231  14.150  19.450  0.00  0.00    +0.000 A 
ENDROOT
BRANCH   1  22
ATOM     19  C   UNL     1      -3.185  12.939  23.227  0.00  0.00    +0.000 A 
ATOM     20  C   UNL     1      -1.843  13.304  23.437  0.00  0.00    +0.000 A 
ATOM     21  C   UNL     1      -1.257  14.346  22.713  0.00  0.00    +0.000 A 
ATOM     22  C   UNL     1      -1.984  14.995  21.716  0.00  0.00    +0.000 A 
ATOM     23  C   UNL     1      -3.346  14.662  21.523  0.00  0.00    +0.000 A 
ATOM     24  C   UNL     1      -3.950  13.613  22.248  0.00  0.00    +0.000 A 
BRANCH  19  26
ATOM     25  C   UNL     1      -4.668  12.302  24.982  0.00  0.00    +0.000 C 
ATOM     26  O   UNL     1      -3.763  11.922  23.946  0.00  0.00    +0.000 OA
ENDBRANCH  19  26
BRANCH  23  27
ATOM     27  O   UNL     1      -4.000  15.511  20.654  0.00  0.00    +0.000 OA
ATOM     28  C   UNL     1      -4.774  16.561  21.207  0.00  0.00    +0.000 C 
ENDBRANCH  23  27
BRANCH  24  29
ATOM     29  O   UNL     1      -5.255  13.389  21.921  0.00  0.00    +0.000 OA
ATOM     30  C   UNL     1      -5.628  12.396  20.989  0.00  0.00    +0.000 C 
ENDBRANCH  24  29
ENDBRANCH   1  22
TORSDOF 4
ENDMDL
MODEL 3
REMARK VINA RESULT:      -6.0      3.139      5.922
REMARK  Name = 
REMARK  7 active torsions:
REMARK  status: ('A' for Active; 'I' for Inactive)
REMARK    1  A    between atoms: C_1  and  O_2
REMARK    2  A    between atoms: O_2  and  C_3
REMARK    3  A    between atoms: C_6  and  C_7
REMARK    4  A    between atoms: C_25  and  O_26
REMARK    5  A    between atoms: O_26  and  C_27
REMARK    6  A    between atoms: C_28  and  O_29
REMARK    7  A    between atoms: O_29  and  C_30
REMARK                            x       y       z     vdW  Elec       q    Type
REMARK                         _______ _______ _______ _____ _____    ______ ____
ROOT
ATOM      1  C   UNL     1      -1.599  14.591  20.435  0.00  0.00    +0.000 C 
ATOM      2  C   UNL     1      -0.556  14.231  19.647  0.00  0.00    +0.000 C 
ATOM      3  C   UNL     1       0.512  15.231  19.448  0.00  0.00    +0.000 A 
ATOM      4  C   UNL     1       0.266  16.522  18.967  0.00  0.00    +0.000 A 
ATOM      5  C   UNL     1       1.327  17.393  18.744  0.00  0.00    +0.000 A 
ATOM      6  C   UNL     1       2.637  16.958  18.950  0.00  0.00    +0.000 A 
ATOM      7  C   UNL     1       2.895  15.669  19.439  0.00  0.00    +0.000 A 
ATOM      8 CL   UNL     1       4.552  15.201  19.560  0.00  0.00    +0.000 Cl
ATOM      9  C   UNL     1       1.827  14.815  19.738  0.00  0.00    +0.000 A 
ATOM     10  C   UNL     1       1.969  13.493  20.431  0.00  0.00    +0.000 C 
ATOM     11  O   UNL     1       2.951  13.221  21.125  0.00  0.00    +0.000 OA
ATOM     12  C   UNL     1       0.876  12.483  20.320  0.00  0.00    +0.000 A 
ATOM     13  C   UNL     1       0.860  11.315  21.076  0.00  0.00    +0.000 A 
ATOM     14  C   UNL     1      -0.160  10.387  20.875  0.00  0.00    +0.000 A 
ATOM     15  C   UNL     1      -1.056  10.556  19.813  0.00  0.00    +0.000 A 
ATOM     16  C   UNL     1      -1.062  11.755  19.098  0.00  0.00    +0.000 A 
ATOM     17 CL   UNL     1      -2.136  11.936  17.767  0.00  0.00    +0.000 Cl
ATOM     18  C   UNL     1      -0.218  12.788  19.511  0.00  0.00    +0.000 A 
ENDROOT
BRANCH   1  22
ATOM     19  C   UNL     1      -5.110  12.488  21.667  0.00  0.00    +0.000 A 
ATOM     20  C   UNL     1      -5.056  13.063  20.384  0.00  0.00    +0.000 A 
ATOM     21  C   UNL     1      -3.884  13.659  19.908  0.00  0.00    +0.000 A 
ATOM     22  C   UNL     1      -2.767  13.752  20.736  0.00  0.00    +0.000 A 
ATOM     23  C   UNL     1      -2.797  13.143  22.013  0.00  0.00    +0.000 A 
ATOM     24  C   UNL     1      -3.972  12.537  22.504  0.00  0.00    +0.000 A 
BRANCH  19  26
ATOM     25  C   UNL     1      -7.320  11.732  21.190  0.00  0.00    +0.000 C 
ATOM     26  O   UNL     1      -6.257  11.893  22.128  0.00  0.00    +0.000 OA
ENDBRANCH  19  26
BRANCH  23  27
ATOM     27  O   UNL     1      -1.569  13.132  22.644  0.00  0.00    +0.000 OA
ATOM     28  C   UNL     1      -1.317  14.122  23.626  0.00  0.00    +0.000 C 
ENDBRANCH  23  27
BRANCH  24  29
ATOM     29  O   UNL     1      -3.853  12.031  23.766  0.00  0.00    +0.000 OA
ATOM     30  C   UNL     1      -4.493  12.632  24.872  0.00  0.00    +0.000 C 
ENDBRANCH  24  29
ENDBRANCH   1  22
TORSDOF 4
ENDMDL
MODEL 4
REMARK VINA RESULT:      -6.0      2.900      5.793
REMARK  Name = 
REMARK  7 active torsions:
REMARK  status: ('A' for Active; 'I' for Inactive)
REMARK    1  A    between atoms: C_1  and  O_2
REMARK    2  A    between atoms: O_2  and  C_3
REMARK    3  A    between atoms: C_6  and  C_7
REMARK    4  A    between atoms: C_25  and  O_26
REMARK    5  A    between atoms: O_26  and  C_27
REMARK    6  A    between atoms: C_28  and  O_29
REMARK    7  A    between atoms: O_29  and  C_30
REMARK                            x       y       z     vdW  Elec       q    Type
REMARK                         _______ _______ _______ _____ _____    ______ ____
ROOT
ATOM      1  C   UNL     1      -1.838  14.486  20.977  0.00  0.00    +0.000 C 
ATOM      2  C   UNL     1      -2.505  13.319  21.164  0.00  0.00    +0.000 C 
ATOM      3  C   UNL     1      -3.879  13.409  21.695  0.00  0.00    +0.000 A 
ATOM      4  C   UNL     1      -4.194  14.074  22.886  0.00  0.00    +0.000 A 
ATOM      5  C   UNL     1      -5.501  14.066  23.360  0.00  0.00    +0.000 A 
ATOM      6  C   UNL     1      -6.484  13.351  22.674  0.00  0.00    +0.000 A 
ATOM      7  C   UNL     1      -6.182  12.688  21.476  0.00  0.00    +0.000 A 
ATOM      8 CL   UNL     1      -7.446  11.751  20.767  0.00  0.00    +0.000 Cl
ATOM      9  C   UNL     1      -4.885  12.756  20.955  0.00  0.00    +0.000 A 
ATOM     10  C   UNL     1      -4.488  12.245  19.601  0.00  0.00    +0.000 C 
ATOM     11  O   UNL     1      -5.312  12.078  18.699  0.00  0.00    +0.000 OA
ATOM     12  C   UNL     1      -3.052  11.969  19.311  0.00  0.00    +0.000 A 
ATOM     13  C   UNL     1      -2.593  11.666  18.032  0.00  0.00    +0.000 A 
ATOM     14  C   UNL     1      -1.247  11.357  17.846  0.00  0.00    +0.000 A 
ATOM     15  C   UNL     1      -0.411  11.193  18.956  0.00  0.00    +0.000 A 
ATOM     16  C   UNL     1      -0.867  11.551  20.226  0.00  0.00    +0.000 A 
ATOM     17 CL   UNL     1       0.152  11.303  21.589  0.00  0.00    +0.000 Cl
ATOM     18  C   UNL     1      -2.130  12.135  20.345  0.00  0.00    +0.000 A 
ENDROOT
BRANCH   1  22
ATOM     19  C   UNL     1       2.240  14.365  19.703  0.00  0.00    +0.000 A 
ATOM     20  C   UNL     1       1.214  14.459  18.745  0.00  0.00    +0.000 A 
ATOM     21  C   UNL     1      -0.121  14.614  19.131  0.00  0.00    +0.000 A 
ATOM     22  C   UNL     1      -0.459  14.607  20.483  0.00  0.00    +0.000 A 
ATOM     23  C   UNL     1       0.568  14.551  21.455  0.00  0.00    +0.000 A 
ATOM     24  C   UNL     1       1.919  14.397  21.079  0.00  0.00    +0.000 A 
BRANCH  19  26
ATOM     25  C   UNL     1       4.090  15.241  18.480  0.00  0.00    +0.000 C 
ATOM     26  O   UNL     1       3.551  14.224  19.323  0.00  0.00    +0.000 OA
ENDBRANCH  19  26
BRANCH  23  27
ATOM     27  O   UNL     1       0.116  14.755  22.743  0.00  0.00    +0.000 OA
ATOM     28  C   UNL     1       0.077  16.085  23.230  0.00  0.00    +0.000 C 
ENDBRANCH  23  27
BRANCH  24  29
ATOM     29  O   UNL     1       2.785  14.320  22.131  0.00  0.00    +0.000 OA
ATOM     30  C   UNL     1       3.652  15.385  22.459  0.00  0.00    +0.000 C 
ENDBRANCH  24  29
ENDBRANCH   1  22
TORSDOF 4
ENDMDL
MODEL 5
REMARK VINA RESULT:      -6.0      3.303      4.918
REMARK  Name = 
REMARK  7 active torsions:
REMARK  status: ('A' for Active; 'I' for Inactive)
REMARK    1  A    between atoms: C_1  and  O_2
REMARK    2  A    between atoms: O_2  and  C_3
REMARK    3  A    between atoms: C_6  and  C_7
REMARK    4  A    between atoms: C_25  and  O_26
REMARK    5  A    between atoms: O_26  and  C_27
REMARK    6  A    between atoms: C_28  and  O_29
REMARK    7  A    between atoms: O_29  and  C_30
REMARK                            x       y       z     vdW  Elec       q    Type
REMARK                         _______ _______ _______ _____ _____    ______ ____
ROOT
ATOM      1  C   UNL     1      -1.847  11.953  21.711  0.00  0.00    +0.000 C 
ATOM      2  C   UNL     1      -2.034  12.295  20.412  0.00  0.00    +0.000 C 
ATOM      3  C   UNL     1      -1.563  11.338  19.392  0.00  0.00    +0.000 A 
ATOM      4  C   UNL     1      -0.245  10.866  19.342  0.00  0.00    +0.000 A 
ATOM      5  C   UNL     1       0.148  10.014  18.315  0.00  0.00    +0.000 A 
ATOM      6  C   UNL     1      -0.759   9.675  17.310  0.00  0.00    +0.000 A 
ATOM      7  C   UNL     1      -2.083  10.135  17.354  0.00  0.00    +0.000 A 
ATOM      8 CL   UNL     1      -3.088   9.740  16.008  0.00  0.00    +0.000 Cl
ATOM      9  C   UNL     1      -2.504  10.931  18.425  0.00  0.00    +0.000 A 
ATOM     10  C   UNL     1      -3.928  11.330  18.675  0.00  0.00    +0.000 C 
ATOM     11  O   UNL     1      -4.876  10.698  18.203  0.00  0.00    +0.000 OA
ATOM     12  C   UNL     1      -4.221  12.498  19.555  0.00  0.00    +0.000 A 
ATOM     13  C   UNL     1      -5.511  12.814  19.972  0.00  0.00    +0.000 A 
ATOM     14  C   UNL     1      -5.718  13.957  20.742  0.00  0.00    +0.000 A 
ATOM     15  C   UNL     1      -4.667  14.857  20.948  0.00  0.00    +0.000 A 
ATOM     16  C   UNL     1      -3.370  14.504  20.572  0.00  0.00    +0.000 A 
ATOM     17 CL   UNL     1      -2.092  15.635  20.790  0.00  0.00    +0.000 Cl
ATOM     18  C   UNL     1      -3.143  13.223  20.063  0.00  0.00    +0.000 A 
ENDROOT
BRANCH   1  22
ATOM     19  C   UNL     1      -2.895  14.747  24.772  0.00  0.00    +0.000 A 
ATOM     20  C   UNL     1      -3.854  13.827  24.311  0.00  0.00    +0.000 A 
ATOM     21  C   UNL     1      -3.513  12.828  23.394  0.00  0.00    +0.000 A 
ATOM     22  C   UNL     1      -2.223  12.777  22.869  0.00  0.00    +0.000 A 
ATOM     23  C   UNL     1      -1.241  13.673  23.354  0.00  0.00    +0.000 A 
ATOM     24  C   UNL     1      -1.571  14.684  24.281  0.00  0.00    +0.000 A 
BRANCH  19  26
ATOM     25  C   UNL     1      -4.015  16.808  25.198  0.00  0.00    +0.000 C 
ATOM     26  O   UNL     1      -3.227  15.720  25.681  0.00  0.00    +0.000 OA
ENDBRANCH  19  26
BRANCH  23  27
ATOM     27  O   UNL     1       0.032  13.386  22.905  0.00  0.00    +0.000 OA
ATOM     28  C   UNL     1       0.594  14.230  21.914  0.00  0.00    +0.000 C 
ENDBRANCH  23  27
BRANCH  24  29
ATOM     29  O   UNL     1      -0.524  15.491  24.621  0.00  0.00    +0.000 OA
ATOM     30  C   UNL     1      -0.420  16.815  24.141  0.00  0.00    +0.000 C 
ENDBRANCH  24  29
ENDBRANCH   1  22
TORSDOF 4
ENDMDL
MODEL 6
REMARK VINA RESULT:      -6.0      3.986      5.582
REMARK  Name = 
REMARK  7 active torsions:
REMARK  status: ('A' for Active; 'I' for Inactive)
REMARK    1  A    between atoms: C_1  and  O_2
REMARK    2  A    between atoms: O_2  and  C_3
REMARK    3  A    between atoms: C_6  and  C_7
REMARK    4  A    between atoms: C_25  and  O_26
REMARK    5  A    between atoms: O_26  and  C_27
REMARK    6  A    between atoms: C_28  and  O_29
REMARK    7  A    between atoms: O_29  and  C_30
REMARK                            x       y       z     vdW  Elec       q    Type
REMARK                         _______ _______ _______ _____ _____    ______ ____
ROOT
ATOM      1  C   UNL     1      -3.405  13.296  20.056  0.00  0.00    +0.000 C 
ATOM      2  C   UNL     1      -2.454  12.408  20.439  0.00  0.00    +0.000 C 
ATOM      3  C   UNL     1      -1.886  11.539  19.389  0.00  0.00    +0.000 A 
ATOM      4  C   UNL     1      -2.673  10.727  18.564  0.00  0.00    +0.000 A 
ATOM      5  C   UNL     1      -2.067   9.885  17.637  0.00  0.00    +0.000 A 
ATOM      6  C   UNL     1      -0.675   9.815  17.570  0.00  0.00    +0.000 A 
ATOM      7  C   UNL     1       0.124  10.630  18.386  0.00  0.00    +0.000 A 
ATOM      8 CL   UNL     1       1.830  10.387  18.294  0.00  0.00    +0.000 Cl
ATOM      9  C   UNL     1      -0.482  11.533  19.267  0.00  0.00    +0.000 A 
ATOM     10  C   UNL     1       0.258  12.576  20.052  0.00  0.00    +0.000 C 
ATOM     11  O   UNL     1       1.374  12.977  19.715  0.00  0.00    +0.000 OA
ATOM     12  C   UNL     1      -0.382  13.184  21.254  0.00  0.00    +0.000 A 
ATOM     13  C   UNL     1       0.166  14.275  21.921  0.00  0.00    +0.000 A 
ATOM     14  C   UNL     1      -0.454  14.751  23.075  0.00  0.00    +0.000 A 
ATOM     15  C   UNL     1      -1.515  14.036  23.640  0.00  0.00    +0.000 A 
ATOM     16  C   UNL     1      -2.090  12.977  22.935  0.00  0.00    +0.000 A 
ATOM     17 CL   UNL     1      -3.365  12.077  23.658  0.00  0.00    +0.000 Cl
ATOM     18  C   UNL     1      -1.633  12.704  21.644  0.00  0.00    +0.000 A 
ENDROOT
BRANCH   1  22
ATOM     19  C   UNL     1      -5.334  15.685  23.030  0.00  0.00    +0.000 A 
ATOM     20  C   UNL     1      -4.185  16.173  22.381  0.00  0.00    +0.000 A 
ATOM     21  C   UNL     1      -3.597  15.469  21.327  0.00  0.00    +0.000 A 
ATOM     22  C   UNL     1      -4.107  14.228  20.950  0.00  0.00    +0.000 A 
ATOM     23  C   UNL     1      -5.284  13.745  21.570  0.00  0.00    +0.000 A 
ATOM     24  C   UNL     1      -5.889  14.446  22.633  0.00  0.00    +0.000 A 
BRANCH  19  26
ATOM     25  C   UNL     1      -5.040  17.075  24.944  0.00  0.00    +0.000 C 
ATOM     26  O   UNL     1      -5.918  16.382  24.058  0.00  0.00    +0.000 OA
ENDBRANCH  19  26
BRANCH  23  27
ATOM     27  O   UNL     1      -5.794  12.611  20.969  0.00  0.00    +0.000 OA
ATOM     28  C   UNL     1      -6.912  12.760  20.110  0.00  0.00    +0.000 C 
ENDBRANCH  23  27
BRANCH  24  29
ATOM     29  O   UNL     1      -6.993  13.833  23.150  0.00  0.00    +0.000 OA
ATOM     30  C   UNL     1      -6.896  12.881  24.188  0.00  0.00    +0.000 C 
ENDBRANCH  24  29
ENDBRANCH   1  22
TORSDOF 4
ENDMDL
MODEL 7
REMARK VINA RESULT:      -5.9      2.856      5.459
REMARK  Name = 
REMARK  7 active torsions:
REMARK  status: ('A' for Active; 'I' for Inactive)
REMARK    1  A    between atoms: C_1  and  O_2
REMARK    2  A    between atoms: O_2  and  C_3
REMARK    3  A    between atoms: C_6  and  C_7
REMARK    4  A    between atoms: C_25  and  O_26
REMARK    5  A    between atoms: O_26  and  C_27
REMARK    6  A    between atoms: C_28  and  O_29
REMARK    7  A    between atoms: O_29  and  C_30
REMARK                            x       y       z     vdW  Elec       q    Type
REMARK                         _______ _______ _______ _____ _____    ______ ____
ROOT
ATOM      1  C   UNL     1      -1.736  14.001  19.776  0.00  0.00    +0.000 C 
ATOM      2  C   UNL     1      -2.404  12.860  20.076  0.00  0.00    +0.000 C 
ATOM      3  C   UNL     1      -3.879  12.917  20.042  0.00  0.00    +0.000 A 
ATOM      4  C   UNL     1      -4.622  13.846  20.778  0.00  0.00    +0.000 A 
ATOM      5  C   UNL     1      -6.012  13.803  20.748  0.00  0.00    +0.000 A 
ATOM      6  C   UNL     1      -6.660  12.800  20.025  0.00  0.00    +0.000 A 
ATOM      7  C   UNL     1      -5.925  11.868  19.277  0.00  0.00    +0.000 A 
ATOM      8 CL   UNL     1      -6.822  10.611  18.507  0.00  0.00    +0.000 Cl
ATOM      9  C   UNL     1      -4.529  11.954  19.244  0.00  0.00    +0.000 A 
ATOM     10  C   UNL     1      -3.651  11.135  18.344  0.00  0.00    +0.000 C 
ATOM     11  O   UNL     1      -4.081  10.611  17.313  0.00  0.00    +0.000 OA
ATOM     12  C   UNL     1      -2.205  10.977  18.671  0.00  0.00    +0.000 A 
ATOM     13  C   UNL     1      -1.301  10.386  17.793  0.00  0.00    +0.000 A 
ATOM     14  C   UNL     1       0.024  10.215  18.191  0.00  0.00    +0.000 A 
ATOM     15  C   UNL     1       0.393  10.485  19.513  0.00  0.00    +0.000 A 
ATOM     16  C   UNL     1      -0.506  11.127  20.366  0.00  0.00    +0.000 A 
ATOM     17 CL   UNL     1      -0.058  11.415  22.002  0.00  0.00    +0.000 Cl
ATOM     18  C   UNL     1      -1.733  11.551  19.852  0.00  0.00    +0.000 A 
ENDROOT
BRANCH   1  22
ATOM     19  C   UNL     1       2.525  14.064  20.105  0.00  0.00    +0.000 A 
ATOM     20  C   UNL     1       1.926  13.720  18.880  0.00  0.00    +0.000 A 
ATOM     21  C   UNL     1       0.541  13.799  18.706  0.00  0.00    +0.000 A 
ATOM     22  C   UNL     1      -0.274  14.156  19.778  0.00  0.00    +0.000 A 
ATOM     23  C   UNL     1       0.320  14.541  21.003  0.00  0.00    +0.000 A 
ATOM     24  C   UNL     1       1.716  14.468  21.192  0.00  0.00    +0.000 A 
BRANCH  19  26
ATOM     25  C   UNL     1       4.658  15.041  19.681  0.00  0.00    +0.000 C 
ATOM     26  O   UNL     1       3.886  13.997  20.272  0.00  0.00    +0.000 OA
ENDBRANCH  19  26
BRANCH  23  27
ATOM     27  O   UNL     1      -0.582  15.062  21.909  0.00  0.00    +0.000 OA
ATOM     28  C   UNL     1      -0.828  16.457  21.874  0.00  0.00    +0.000 C 
ENDBRANCH  23  27
BRANCH  24  29
ATOM     29  O   UNL     1       2.130  14.835  22.439  0.00  0.00    +0.000 OA
ATOM     30  C   UNL     1       2.709  16.098  22.687  0.00  0.00    +0.000 C 
ENDBRANCH  24  29
ENDBRANCH   1  22
TORSDOF 4
ENDMDL
MODEL 8
REMARK VINA RESULT:      -5.8      1.281      1.950
REMARK  Name = 
REMARK  7 active torsions:
REMARK  status: ('A' for Active; 'I' for Inactive)
REMARK    1  A    between atoms: C_1  and  O_2
REMARK    2  A    between atoms: O_2  and  C_3
REMARK    3  A    between atoms: C_6  and  C_7
REMARK    4  A    between atoms: C_25  and  O_26
REMARK    5  A    between atoms: O_26  and  C_27
REMARK    6  A    between atoms: C_28  and  O_29
REMARK    7  A    between atoms: O_29  and  C_30
REMARK                            x       y       z     vdW  Elec       q    Type
REMARK                         _______ _______ _______ _____ _____    ______ ____
ROOT
ATOM      1  C   UNL     1       1.413  12.267  19.936  0.00  0.00    +0.000 C 
ATOM      2  C   UNL     1       0.675  11.134  19.828  0.00  0.00    +0.000 C 
ATOM      3  C   UNL     1       1.373   9.920  19.361  0.00  0.00    +0.000 A 
ATOM      4  C   UNL     1       2.091   9.869  18.160  0.00  0.00    +0.000 A 
ATOM      5  C   UNL     1       2.673   8.674  17.750  0.00  0.00    +0.000 A 
ATOM      6  C   UNL     1       2.492   7.517  18.511  0.00  0.00    +0.000 A 
ATOM      7  C   UNL     1       1.781   7.558  19.719  0.00  0.00    +0.000 A 
ATOM      8 CL   UNL     1       1.532   6.053  20.525  0.00  0.00    +0.000 Cl
ATOM      9  C   UNL     1       1.259   8.775  20.174  0.00  0.00    +0.000 A 
ATOM     10  C   UNL     1       0.643   8.978  21.526  0.00  0.00    +0.000 C 
ATOM     11  O   UNL     1       0.881   8.224  22.473  0.00  0.00    +0.000 OA
ATOM     12  C   UNL     1      -0.253  10.148  21.758  0.00  0.00    +0.000 A 
ATOM     13  C   UNL     1      -0.713  10.497  23.025  0.00  0.00    +0.000 A 
ATOM     14  C   UNL     1      -1.598  11.565  23.158  0.00  0.00    +0.000 A 
ATOM     15  C   UNL     1      -2.140  12.167  22.017  0.00  0.00    +0.000 A 
ATOM     16  C   UNL     1      -1.631  11.845  20.757  0.00  0.00    +0.000 A 
ATOM     17 CL   UNL     1      -2.334  12.557  19.358  0.00  0.00    +0.000 Cl
ATOM     18  C   UNL     1      -0.538  10.980  20.675  0.00  0.00    +0.000 A 
ENDROOT
BRANCH   1  22
ATOM     19  C   UNL     1      -0.517  15.941  20.959  0.00  0.00    +0.000 A 
ATOM     20  C   UNL     1      -0.101  15.065  21.978  0.00  0.00    +0.000 A 
ATOM     21  C   UNL     1       0.632  13.912  21.684  0.00  0.00    +0.000 A 
ATOM     22  C   UNL     1       0.901  13.578  20.358  0.00  0.00    +0.000 A 
ATOM     23  C   UNL     1       0.521  14.470  19.328  0.00  0.00    +0.000 A 
ATOM     24  C   UNL     1      -0.218  15.639  19.610  0.00  0.00    +0.000 A 
BRANCH  19  26
ATOM     25  C   UNL     1      -0.540  18.098  21.974  0.00  0.00    +0.000 C 
ATOM     26  O   UNL     1      -1.227  17.079  21.249  0.00  0.00    +0.000 OA
ENDBRANCH  19  26
BRANCH  23  27
ATOM     27  O   UNL     1       1.022  14.123  18.089  0.00  0.00    +0.000 OA
ATOM     28  C   UNL     1       2.360  14.480  17.790  0.00  0.00    +0.000 C 
ENDBRANCH  23  27
BRANCH  24  29
ATOM     29  O   UNL     1      -0.541  16.374  18.508  0.00  0.00    +0.000 OA
ATOM     30  C   UNL     1       0.181  17.533  18.149  0.00  0.00    +0.000 C 
ENDBRANCH  24  29
ENDBRANCH   1  22
TORSDOF 4
ENDMDL
MODEL 9
REMARK VINA RESULT:      -5.7      3.319      6.299
REMARK  Name = 
REMARK  7 active torsions:
REMARK  status: ('A' for Active; 'I' for Inactive)
REMARK    1  A    between atoms: C_1  and  O_2
REMARK    2  A    between atoms: O_2  and  C_3
REMARK    3  A    between atoms: C_6  and  C_7
REMARK    4  A    between atoms: C_25  and  O_26
REMARK    5  A    between atoms: O_26  and  C_27
REMARK    6  A    between atoms: C_28  and  O_29
REMARK    7  A    between atoms: O_29  and  C_30
REMARK                            x       y       z     vdW  Elec       q    Type
REMARK                         _______ _______ _______ _____ _____    ______ ____
ROOT
ATOM      1  C   UNL     1      -2.832  12.387  19.772  0.00  0.00    +0.000 C 
ATOM      2  C   UNL     1      -3.609  13.216  20.512  0.00  0.00    +0.000 C 
ATOM      3  C   UNL     1      -5.039  12.869  20.630  0.00  0.00    +0.000 A 
ATOM      4  C   UNL     1      -5.868  12.670  19.520  0.00  0.00    +0.000 A 
ATOM      5  C   UNL     1      -7.221  12.407  19.703  0.00  0.00    +0.000 A 
ATOM      6  C   UNL     1      -7.757  12.394  20.992  0.00  0.00    +0.000 A 
ATOM      7  C   UNL     1      -6.935  12.585  22.112  0.00  0.00    +0.000 A 
ATOM      8 CL   UNL     1      -7.718  12.652  23.648  0.00  0.00    +0.000 Cl
ATOM      9  C   UNL     1      -5.559  12.774  21.936  0.00  0.00    +0.000 A 
ATOM     10  C   UNL     1      -4.560  12.807  23.054  0.00  0.00    +0.000 C 
ATOM     11  O   UNL     1      -4.793  12.300  24.154  0.00  0.00    +0.000 OA
ATOM     12  C   UNL     1      -3.223  13.430  22.829  0.00  0.00    +0.000 A 
ATOM     13  C   UNL     1      -2.190  13.338  23.757  0.00  0.00    +0.000 A 
ATOM     14  C   UNL     1      -0.989  13.998  23.507  0.00  0.00    +0.000 A 
ATOM     15  C   UNL     1      -0.888  14.873  22.420  0.00  0.00    +0.000 A 
ATOM     16  C   UNL     1      -1.909  14.915  21.469  0.00  0.00    +0.000 A 
ATOM     17 CL   UNL     1      -1.797  16.026  20.160  0.00  0.00    +0.000 Cl
ATOM     18  C   UNL     1      -2.978  14.024  21.591  0.00  0.00    +0.000 A 
ENDROOT
BRANCH   1  22
ATOM     19  C   UNL     1       1.304  12.534  18.704  0.00  0.00    +0.000 A 
ATOM     20  C   UNL     1       0.456  13.601  18.354  0.00  0.00    +0.000 A 
ATOM     21  C   UNL     1      -0.873  13.637  18.785  0.00  0.00    +0.000 A 
ATOM     22  C   UNL     1      -1.397  12.571  19.515  0.00  0.00    +0.000 A 
ATOM     23  C   UNL     1      -0.543  11.512  19.905  0.00  0.00    +0.000 A 
ATOM     24  C   UNL     1       0.801  11.464  19.478  0.00  0.00    +0.000 A 
BRANCH  19  26
ATOM     25  C   UNL     1       3.317  13.745  18.298  0.00  0.00    +0.000 C 
ATOM     26  O   UNL     1       2.612  12.505  18.290  0.00  0.00    +0.000 OA
ENDBRANCH  19  26
BRANCH  23  27
ATOM     27  O   UNL     1      -1.132  10.630  20.788  0.00  0.00    +0.000 OA
ATOM     28  C   UNL     1      -0.671  10.624  22.128  0.00  0.00    +0.000 C 
ENDBRANCH  23  27
BRANCH  24  29
ATOM     29  O   UNL     1       1.482  10.361  19.904  0.00  0.00    +0.000 OA
ATOM     30  C   UNL     1       1.513   9.168  19.149  0.00  0.00    +0.000 C 
ENDBRANCH  24  29
ENDBRANCH   1  22
TORSDOF 4
ENDMDL
