MODEL 1
REMARK VINA RESULT:      -7.5      0.000      0.000
REMARK  Name = 
REMARK  7 active torsions:
REMARK  status: ('A' for Active; 'I' for Inactive)
REMARK    1  A    between atoms: C_1  and  O_2
REMARK    2  A    between atoms: O_2  and  C_3
REMARK    3  A    between atoms: C_6  and  S_7
REMARK    4  A    between atoms: S_7  and  N_10
REMARK    5  A    between atoms: N_10  and  C_11
REMARK    6  A    between atoms: C_12  and  C_13
REMARK    7  A    between atoms: C_17  and  C_18
REMARK                            x       y       z     vdW  Elec       q    Type
REMARK                         _______ _______ _______ _____ _____    ______ ____
ROOT
ATOM      1  S   UNL     1       5.215   4.571  18.267  0.00  0.00    +0.000 S 
ATOM      2  O   UNL     1       6.331   4.258  19.137  0.00  0.00    +0.000 OA
ATOM      3  O   UNL     1       4.435   5.773  18.479  0.00  0.00    +0.000 OA
ENDROOT
BRANCH   1   7
ATOM      4  C   UNL     1       6.812   4.640  13.983  0.00  0.00    +0.000 A 
ATOM      5  C   UNL     1       5.544   4.124  14.260  0.00  0.00    +0.000 A 
ATOM      6  C   UNL     1       5.045   4.122  15.564  0.00  0.00    +0.000 A 
ATOM      7  C   UNL     1       5.842   4.600  16.605  0.00  0.00    +0.000 A 
ATOM      8  C   UNL     1       7.104   5.142  16.336  0.00  0.00    +0.000 A 
ATOM      9  C   UNL     1       7.591   5.158  15.022  0.00  0.00    +0.000 A 
BRANCH   4  11
ATOM     10  C   UNL     1       6.616   3.475  11.929  0.00  0.00    +0.000 C 
ATOM     11  O   UNL     1       7.199   4.538  12.675  0.00  0.00    +0.000 OA
ENDBRANCH   4  11
ENDBRANCH   1   7
BRANCH   1  12
ATOM     12  N   UNL     1       4.214   3.201  18.305  0.00  0.00    +0.000 N 
ATOM     13  H   UNL     1       4.771   2.359  18.172  0.00  0.00    +0.000 HD
BRANCH  12  14
ATOM     14  C   UNL     1       3.187   3.138  19.301  0.00  0.00    +0.000 A 
ATOM     15  C   UNL     1       1.925   3.705  19.035  0.00  0.00    +0.000 A 
ATOM     16  C   UNL     1       1.508   4.221  17.686  0.00  0.00    +0.000 C 
ATOM     17  C   UNL     1       0.965   3.743  20.059  0.00  0.00    +0.000 A 
ATOM     18  C   UNL     1       1.229   3.184  21.306  0.00  0.00    +0.000 A 
ATOM     19  C   UNL     1       2.452   2.563  21.540  0.00  0.00    +0.000 A 
ATOM     20  C   UNL     1       3.446   2.535  20.549  0.00  0.00    +0.000 A 
ATOM     21  C   UNL     1       4.723   1.795  20.846  0.00  0.00    +0.000 C 
ENDBRANCH  12  14
ENDBRANCH   1  12
TORSDOF 4
ENDMDL
MODEL 2
REMARK VINA RESULT:      -7.4      0.202      1.100
REMARK  Name = 
REMARK  7 active torsions:
REMARK  status: ('A' for Active; 'I' for Inactive)
REMARK    1  A    between atoms: C_1  and  O_2
REMARK    2  A    between atoms: O_2  and  C_3
REMARK    3  A    between atoms: C_6  and  S_7
REMARK    4  A    between atoms: S_7  and  N_10
REMARK    5  A    between atoms: N_10  and  C_11
REMARK    6  A    between atoms: C_12  and  C_13
REMARK    7  A    between atoms: C_17  and  C_18
REMARK                            x       y       z     vdW  Elec       q    Type
REMARK                         _______ _______ _______ _____ _____    ______ ____
ROOT
ATOM      1  S   UNL     1       5.186   4.607  18.316  0.00  0.00    +0.000 S 
ATOM      2  O   UNL     1       6.284   4.258  19.196  0.00  0.00    +0.000 OA
ATOM      3  O   UNL     1       4.426   5.820  18.538  0.00  0.00    +0.000 OA
ENDROOT
BRANCH   1   7
ATOM      4  C   UNL     1       6.874   4.728  14.068  0.00  0.00    +0.000 A 
ATOM      5  C   UNL     1       7.592   5.277  15.134  0.00  0.00    +0.000 A 
ATOM      6  C   UNL     1       7.089   5.221  16.435  0.00  0.00    +0.000 A 
ATOM      7  C   UNL     1       5.835   4.652  16.663  0.00  0.00    +0.000 A 
ATOM      8  C   UNL     1       5.119   4.078  15.607  0.00  0.00    +0.000 A 
ATOM      9  C   UNL     1       5.638   4.120  14.307  0.00  0.00    +0.000 A 
BRANCH   4  11
ATOM     10  C   UNL     1       7.052   3.979  11.828  0.00  0.00    +0.000 C 
ATOM     11  O   UNL     1       7.456   4.893  12.841  0.00  0.00    +0.000 OA
ENDBRANCH   4  11
ENDBRANCH   1   7
BRANCH   1  12
ATOM     12  N   UNL     1       4.158   3.256  18.319  0.00  0.00    +0.000 N 
ATOM     13  H   UNL     1       4.697   2.408  18.153  0.00  0.00    +0.000 HD
BRANCH  12  14
ATOM     14  C   UNL     1       3.137   3.182  19.320  0.00  0.00    +0.000 A 
ATOM     15  C   UNL     1       1.873   3.747  19.067  0.00  0.00    +0.000 A 
ATOM     16  C   UNL     1       1.446   4.275  17.725  0.00  0.00    +0.000 C 
ATOM     17  C   UNL     1       0.919   3.773  20.098  0.00  0.00    +0.000 A 
ATOM     18  C   UNL     1       1.192   3.204  21.338  0.00  0.00    +0.000 A 
ATOM     19  C   UNL     1       2.418   2.584  21.558  0.00  0.00    +0.000 A 
ATOM     20  C   UNL     1       3.406   2.568  20.561  0.00  0.00    +0.000 A 
ATOM     21  C   UNL     1       4.687   1.828  20.843  0.00  0.00    +0.000 C 
ENDBRANCH  12  14
ENDBRANCH   1  12
TORSDOF 4
ENDMDL
MODEL 3
REMARK VINA RESULT:      -7.2      2.786      3.882
REMARK  Name = 
REMARK  7 active torsions:
REMARK  status: ('A' for Active; 'I' for Inactive)
REMARK    1  A    between atoms: C_1  and  O_2
REMARK    2  A    between atoms: O_2  and  C_3
REMARK    3  A    between atoms: C_6  and  S_7
REMARK    4  A    between atoms: S_7  and  N_10
REMARK    5  A    between atoms: N_10  and  C_11
REMARK    6  A    between atoms: C_12  and  C_13
REMARK    7  A    between atoms: C_17  and  C_18
REMARK                            x       y       z     vdW  Elec       q    Type
REMARK                         _______ _______ _______ _____ _____    ______ ____
ROOT
ATOM      1  S   UNL     1       5.298   4.285  17.792  0.00  0.00    +0.000 S 
ATOM      2  O   UNL     1       5.623   3.601  16.556  0.00  0.00    +0.000 OA
ATOM      3  O   UNL     1       5.438   3.606  19.064  0.00  0.00    +0.000 OA
ENDROOT
BRANCH   1   7
ATOM      4  C   UNL     1       7.805   8.108  17.908  0.00  0.00    +0.000 A 
ATOM      5  C   UNL     1       6.631   8.050  17.152  0.00  0.00    +0.000 A 
ATOM      6  C   UNL     1       5.852   6.892  17.132  0.00  0.00    +0.000 A 
ATOM      7  C   UNL     1       6.277   5.767  17.841  0.00  0.00    +0.000 A 
ATOM      8  C   UNL     1       7.437   5.821  18.621  0.00  0.00    +0.000 A 
ATOM      9  C   UNL     1       8.204   6.993  18.651  0.00  0.00    +0.000 A 
BRANCH   4  11
ATOM     10  C   UNL     1       9.023   9.813  19.013  0.00  0.00    +0.000 C 
ATOM     11  O   UNL     1       8.498   9.282  17.802  0.00  0.00    +0.000 OA
ENDBRANCH   4  11
ENDBRANCH   1   7
BRANCH   1  12
ATOM     12  N   UNL     1       3.709   4.848  17.592  0.00  0.00    +0.000 N 
ATOM     13  H   UNL     1       3.428   4.758  16.617  0.00  0.00    +0.000 HD
BRANCH  12  14
ATOM     14  C   UNL     1       2.733   4.488  18.575  0.00  0.00    +0.000 A 
ATOM     15  C   UNL     1       2.317   5.442  19.524  0.00  0.00    +0.000 A 
ATOM     16  C   UNL     1       2.694   6.896  19.468  0.00  0.00    +0.000 C 
ATOM     17  C   UNL     1       1.449   5.045  20.555  0.00  0.00    +0.000 A 
ATOM     18  C   UNL     1       0.961   3.743  20.616  0.00  0.00    +0.000 A 
ATOM     19  C   UNL     1       1.321   2.824  19.635  0.00  0.00    +0.000 A 
ATOM     20  C   UNL     1       2.211   3.178  18.609  0.00  0.00    +0.000 A 
ATOM     21  C   UNL     1       2.510   2.155  17.546  0.00  0.00    +0.000 C 
ENDBRANCH  12  14
ENDBRANCH   1  12
TORSDOF 4
ENDMDL
MODEL 4
REMARK VINA RESULT:      -7.1      2.144      2.920
REMARK  Name = 
REMARK  7 active torsions:
REMARK  status: ('A' for Active; 'I' for Inactive)
REMARK    1  A    between atoms: C_1  and  O_2
REMARK    2  A    between atoms: O_2  and  C_3
REMARK    3  A    between atoms: C_6  and  S_7
REMARK    4  A    between atoms: S_7  and  N_10
REMARK    5  A    between atoms: N_10  and  C_11
REMARK    6  A    between atoms: C_12  and  C_13
REMARK    7  A    between atoms: C_17  and  C_18
REMARK                            x       y       z     vdW  Elec       q    Type
REMARK                         _______ _______ _______ _____ _____    ______ ____
ROOT
ATOM      1  S   UNL     1       4.071   3.339  18.228  0.00  0.00    +0.000 S 
ATOM      2  O   UNL     1       3.740   1.997  17.791  0.00  0.00    +0.000 OA
ATOM      3  O   UNL     1       4.591   3.568  19.560  0.00  0.00    +0.000 OA
ENDROOT
BRANCH   1   7
ATOM      4  C   UNL     1       7.051   5.028  15.199  0.00  0.00    +0.000 A 
ATOM      5  C   UNL     1       5.830   4.498  14.774  0.00  0.00    +0.000 A 
ATOM      6  C   UNL     1       4.909   4.002  15.699  0.00  0.00    +0.000 A 
ATOM      7  C   UNL     1       5.234   3.996  17.056  0.00  0.00    +0.000 A 
ATOM      8  C   UNL     1       6.444   4.546  17.495  0.00  0.00    +0.000 A 
ATOM      9  C   UNL     1       7.355   5.059  16.563  0.00  0.00    +0.000 A 
BRANCH   4  11
ATOM     10  C   UNL     1       7.519   5.024  12.876  0.00  0.00    +0.000 C 
ATOM     11  O   UNL     1       7.880   5.435  14.190  0.00  0.00    +0.000 OA
ENDBRANCH   4  11
ENDBRANCH   1   7
BRANCH   1  12
ATOM     12  N   UNL     1       2.667   4.257  17.974  0.00  0.00    +0.000 N 
ATOM     13  H   UNL     1       1.902   3.650  17.682  0.00  0.00    +0.000 HD
BRANCH  12  14
ATOM     14  C   UNL     1       2.346   5.282  18.920  0.00  0.00    +0.000 A 
ATOM     15  C   UNL     1       1.603   4.958  20.072  0.00  0.00    +0.000 A 
ATOM     16  C   UNL     1       1.270   3.551  20.483  0.00  0.00    +0.000 C 
ATOM     17  C   UNL     1       1.193   5.990  20.932  0.00  0.00    +0.000 A 
ATOM     18  C   UNL     1       1.556   7.311  20.686  0.00  0.00    +0.000 A 
ATOM     19  C   UNL     1       2.350   7.616  19.585  0.00  0.00    +0.000 A 
ATOM     20  C   UNL     1       2.750   6.613  18.687  0.00  0.00    +0.000 A 
ATOM     21  C   UNL     1       3.658   7.001  17.550  0.00  0.00    +0.000 C 
ENDBRANCH  12  14
ENDBRANCH   1  12
TORSDOF 4
ENDMDL
MODEL 5
REMARK VINA RESULT:      -7.1      2.136      2.572
REMARK  Name = 
REMARK  7 active torsions:
REMARK  status: ('A' for Active; 'I' for Inactive)
REMARK    1  A    between atoms: C_1  and  O_2
REMARK    2  A    between atoms: O_2  and  C_3
REMARK    3  A    between atoms: C_6  and  S_7
REMARK    4  A    between atoms: S_7  and  N_10
REMARK    5  A    between atoms: N_10  and  C_11
REMARK    6  A    between atoms: C_12  and  C_13
REMARK    7  A    between atoms: C_17  and  C_18
REMARK                            x       y       z     vdW  Elec       q    Type
REMARK                         _______ _______ _______ _____ _____    ______ ____
ROOT
ATOM      1  S   UNL     1       4.854   4.361  18.862  0.00  0.00    +0.000 S 
ATOM      2  O   UNL     1       4.967   2.987  19.311  0.00  0.00    +0.000 OA
ATOM      3  O   UNL     1       5.403   5.439  19.657  0.00  0.00    +0.000 OA
ENDROOT
BRANCH   1   7
ATOM      4  C   UNL     1       6.699   4.560  14.682  0.00  0.00    +0.000 A 
ATOM      5  C   UNL     1       5.372   4.160  14.855  0.00  0.00    +0.000 A 
ATOM      6  C   UNL     1       4.799   4.120  16.127  0.00  0.00    +0.000 A 
ATOM      7  C   UNL     1       5.578   4.440  17.241  0.00  0.00    +0.000 A 
ATOM      8  C   UNL     1       6.901   4.865  17.078  0.00  0.00    +0.000 A 
ATOM      9  C   UNL     1       7.463   4.921  15.796  0.00  0.00    +0.000 A 
BRANCH   4  11
ATOM     10  C   UNL     1       6.420   3.669  12.505  0.00  0.00    +0.000 C 
ATOM     11  O   UNL     1       7.150   4.509  13.392  0.00  0.00    +0.000 OA
ENDBRANCH   4  11
ENDBRANCH   1   7
BRANCH   1  12
ATOM     12  N   UNL     1       3.198   4.612  18.586  0.00  0.00    +0.000 N 
ATOM     13  H   UNL     1       2.705   3.721  18.596  0.00  0.00    +0.000 HD
BRANCH  12  14
ATOM     14  C   UNL     1       2.558   5.706  19.251  0.00  0.00    +0.000 A 
ATOM     15  C   UNL     1       2.666   7.004  18.716  0.00  0.00    +0.000 A 
ATOM     16  C   UNL     1       3.264   7.306  17.370  0.00  0.00    +0.000 C 
ATOM     17  C   UNL     1       2.135   8.086  19.438  0.00  0.00    +0.000 A 
ATOM     18  C   UNL     1       1.464   7.882  20.639  0.00  0.00    +0.000 A 
ATOM     19  C   UNL     1       1.299   6.589  21.128  0.00  0.00    +0.000 A 
ATOM     20  C   UNL     1       1.845   5.488  20.448  0.00  0.00    +0.000 A 
ATOM     21  C   UNL     1       1.578   4.112  20.998  0.00  0.00    +0.000 C 
ENDBRANCH  12  14
ENDBRANCH   1  12
TORSDOF 4
ENDMDL
MODEL 6
REMARK VINA RESULT:      -7.1      2.077      2.791
REMARK  Name = 
REMARK  7 active torsions:
REMARK  status: ('A' for Active; 'I' for Inactive)
REMARK    1  A    between atoms: C_1  and  O_2
REMARK    2  A    between atoms: O_2  and  C_3
REMARK    3  A    between atoms: C_6  and  S_7
REMARK    4  A    between atoms: S_7  and  N_10
REMARK    5  A    between atoms: N_10  and  C_11
REMARK    6  A    between atoms: C_12  and  C_13
REMARK    7  A    between atoms: C_17  and  C_18
REMARK                            x       y       z     vdW  Elec       q    Type
REMARK                         _______ _______ _______ _____ _____    ______ ____
ROOT
ATOM      1  S   UNL     1       4.183   3.340  18.122  0.00  0.00    +0.000 S 
ATOM      2  O   UNL     1       3.899   1.964  17.768  0.00  0.00    +0.000 OA
ATOM      3  O   UNL     1       4.707   3.667  19.432  0.00  0.00    +0.000 OA
ENDROOT
BRANCH   1   7
ATOM      4  C   UNL     1       7.090   4.971  14.991  0.00  0.00    +0.000 A 
ATOM      5  C   UNL     1       7.271   5.258  16.347  0.00  0.00    +0.000 A 
ATOM      6  C   UNL     1       6.398   4.743  17.307  0.00  0.00    +0.000 A 
ATOM      7  C   UNL     1       5.308   3.972  16.900  0.00  0.00    +0.000 A 
ATOM      8  C   UNL     1       5.130   3.658  15.548  0.00  0.00    +0.000 A 
ATOM      9  C   UNL     1       6.021   4.163  14.592  0.00  0.00    +0.000 A 
BRANCH   4  11
ATOM     10  C   UNL     1       7.874   5.248  12.773  0.00  0.00    +0.000 C 
ATOM     11  O   UNL     1       7.985   5.577  14.153  0.00  0.00    +0.000 OA
ENDBRANCH   4  11
ENDBRANCH   1   7
BRANCH   1  12
ATOM     12  N   UNL     1       2.742   4.189  17.832  0.00  0.00    +0.000 N 
ATOM     13  H   UNL     1       2.021   3.548  17.502  0.00  0.00    +0.000 HD
BRANCH  12  14
ATOM     14  C   UNL     1       2.333   5.177  18.783  0.00  0.00    +0.000 A 
ATOM     15  C   UNL     1       2.724   6.518  18.604  0.00  0.00    +0.000 A 
ATOM     16  C   UNL     1       3.401   7.033  17.365  0.00  0.00    +0.000 C 
ATOM     17  C   UNL     1       2.418   7.457  19.603  0.00  0.00    +0.000 A 
ATOM     18  C   UNL     1       1.694   7.088  20.732  0.00  0.00    +0.000 A 
ATOM     19  C   UNL     1       1.249   5.776  20.870  0.00  0.00    +0.000 A 
ATOM     20  C   UNL     1       1.564   4.805  19.906  0.00  0.00    +0.000 A 
ATOM     21  C   UNL     1       1.001   3.421  20.084  0.00  0.00    +0.000 C 
ENDBRANCH  12  14
ENDBRANCH   1  12
TORSDOF 4
ENDMDL
MODEL 7
REMARK VINA RESULT:      -7.1      2.796      3.968
REMARK  Name = 
REMARK  7 active torsions:
REMARK  status: ('A' for Active; 'I' for Inactive)
REMARK    1  A    between atoms: C_1  and  O_2
REMARK    2  A    between atoms: O_2  and  C_3
REMARK    3  A    between atoms: C_6  and  S_7
REMARK    4  A    between atoms: S_7  and  N_10
REMARK    5  A    between atoms: N_10  and  C_11
REMARK    6  A    between atoms: C_12  and  C_13
REMARK    7  A    between atoms: C_17  and  C_18
REMARK                            x       y       z     vdW  Elec       q    Type
REMARK                         _______ _______ _______ _____ _____    ______ ____
ROOT
ATOM      1  S   UNL     1       5.370   4.356  17.936  0.00  0.00    +0.000 S 
ATOM      2  O   UNL     1       5.734   3.589  16.761  0.00  0.00    +0.000 OA
ATOM      3  O   UNL     1       5.521   3.787  19.259  0.00  0.00    +0.000 OA
ENDROOT
BRANCH   1   7
ATOM      4  C   UNL     1       7.761   8.252  17.786  0.00  0.00    +0.000 A 
ATOM      5  C   UNL     1       8.228   7.160  18.522  0.00  0.00    +0.000 A 
ATOM      6  C   UNL     1       7.511   5.962  18.551  0.00  0.00    +0.000 A 
ATOM      7  C   UNL     1       6.294   5.873  17.874  0.00  0.00    +0.000 A 
ATOM      8  C   UNL     1       5.829   6.952  17.114  0.00  0.00    +0.000 A 
ATOM      9  C   UNL     1       6.563   8.145  17.074  0.00  0.00    +0.000 A 
BRANCH   4  11
ATOM     10  C   UNL     1       8.972   9.729  19.187  0.00  0.00    +0.000 C 
ATOM     11  O   UNL     1       8.532   9.377  17.881  0.00  0.00    +0.000 OA
ENDBRANCH   4  11
ENDBRANCH   1   7
BRANCH   1  12
ATOM     12  N   UNL     1       3.764   4.841  17.679  0.00  0.00    +0.000 N 
ATOM     13  H   UNL     1       3.517   4.721  16.698  0.00  0.00    +0.000 HD
BRANCH  12  14
ATOM     14  C   UNL     1       2.777   4.455  18.641  0.00  0.00    +0.000 A 
ATOM     15  C   UNL     1       2.320   5.395  19.585  0.00  0.00    +0.000 A 
ATOM     16  C   UNL     1       2.665   6.858  19.542  0.00  0.00    +0.000 C 
ATOM     17  C   UNL     1       1.441   4.974  20.596  0.00  0.00    +0.000 A 
ATOM     18  C   UNL     1       0.982   3.662  20.642  0.00  0.00    +0.000 A 
ATOM     19  C   UNL     1       1.381   2.755  19.665  0.00  0.00    +0.000 A 
ATOM     20  C   UNL     1       2.284   3.134  18.658  0.00  0.00    +0.000 A 
ATOM     21  C   UNL     1       2.628   2.122  17.598  0.00  0.00    +0.000 C 
ENDBRANCH  12  14
ENDBRANCH   1  12
TORSDOF 4
ENDMDL
MODEL 8
REMARK VINA RESULT:      -7.1      1.216      1.547
REMARK  Name = 
REMARK  7 active torsions:
REMARK  status: ('A' for Active; 'I' for Inactive)
REMARK    1  A    between atoms: C_1  and  O_2
REMARK    2  A    between atoms: O_2  and  C_3
REMARK    3  A    between atoms: C_6  and  S_7
REMARK    4  A    between atoms: S_7  and  N_10
REMARK    5  A    between atoms: N_10  and  C_11
REMARK    6  A    between atoms: C_12  and  C_13
REMARK    7  A    between atoms: C_17  and  C_18
REMARK                            x       y       z     vdW  Elec       q    Type
REMARK                         _______ _______ _______ _____ _____    ______ ____
ROOT
ATOM      1  S   UNL     1       5.055   5.034  18.135  0.00  0.00    +0.000 S 
ATOM      2  O   UNL     1       5.420   3.857  18.897  0.00  0.00    +0.000 OA
ATOM      3  O   UNL     1       5.435   6.354  18.595  0.00  0.00    +0.000 OA
ENDROOT
BRANCH   1   7
ATOM      4  C   UNL     1       6.693   4.457  13.904  0.00  0.00    +0.000 A 
ATOM      5  C   UNL     1       5.380   4.093  14.213  0.00  0.00    +0.000 A 
ATOM      6  C   UNL     1       4.870   4.289  15.498  0.00  0.00    +0.000 A 
ATOM      7  C   UNL     1       5.699   4.812  16.493  0.00  0.00    +0.000 A 
ATOM      8  C   UNL     1       7.008   5.202  16.189  0.00  0.00    +0.000 A 
ATOM      9  C   UNL     1       7.506   5.020  14.892  0.00  0.00    +0.000 A 
BRANCH   4  11
ATOM     10  C   UNL     1       6.362   3.130  11.970  0.00  0.00    +0.000 C 
ATOM     11  O   UNL     1       7.081   4.168  12.625  0.00  0.00    +0.000 OA
ENDBRANCH   4  11
ENDBRANCH   1   7
BRANCH   1  12
ATOM     12  N   UNL     1       3.372   4.939  17.934  0.00  0.00    +0.000 N 
ATOM     13  H   UNL     1       3.150   4.716  16.965  0.00  0.00    +0.000 HD
BRANCH  12  14
ATOM     14  C   UNL     1       2.607   4.266  18.939  0.00  0.00    +0.000 A 
ATOM     15  C   UNL     1       2.137   4.987  20.054  0.00  0.00    +0.000 A 
ATOM     16  C   UNL     1       2.227   6.482  20.181  0.00  0.00    +0.000 C 
ATOM     17  C   UNL     1       1.489   4.294  21.090  0.00  0.00    +0.000 A 
ATOM     18  C   UNL     1       1.263   2.924  21.001  0.00  0.00    +0.000 A 
ATOM     19  C   UNL     1       1.667   2.230  19.865  0.00  0.00    +0.000 A 
ATOM     20  C   UNL     1       2.346   2.885  18.824  0.00  0.00    +0.000 A 
ATOM     21  C   UNL     1       2.700   2.088  17.597  0.00  0.00    +0.000 C 
ENDBRANCH  12  14
ENDBRANCH   1  12
TORSDOF 4
ENDMDL
MODEL 9
REMARK VINA RESULT:      -7.1      2.095      2.629
REMARK  Name = 
REMARK  7 active torsions:
REMARK  status: ('A' for Active; 'I' for Inactive)
REMARK    1  A    between atoms: C_1  and  O_2
REMARK    2  A    between atoms: O_2  and  C_3
REMARK    3  A    between atoms: C_6  and  S_7
REMARK    4  A    between atoms: S_7  and  N_10
REMARK    5  A    between atoms: N_10  and  C_11
REMARK    6  A    between atoms: C_12  and  C_13
REMARK    7  A    between atoms: C_17  and  C_18
REMARK                            x       y       z     vdW  Elec       q    Type
REMARK                         _______ _______ _______ _____ _____    ______ ____
ROOT
ATOM      1  S   UNL     1       4.091   3.335  18.114  0.00  0.00    +0.000 S 
ATOM      2  O   UNL     1       3.807   1.986  17.666  0.00  0.00    +0.000 OA
ATOM      3  O   UNL     1       4.580   3.574  19.456  0.00  0.00    +0.000 OA
ENDROOT
BRANCH   1   7
ATOM      4  C   UNL     1       7.077   5.119  15.146  0.00  0.00    +0.000 A 
ATOM      5  C   UNL     1       5.998   4.355  14.695  0.00  0.00    +0.000 A 
ATOM      6  C   UNL     1       5.072   3.828  15.598  0.00  0.00    +0.000 A 
ATOM      7  C   UNL     1       5.256   4.030  16.966  0.00  0.00    +0.000 A 
ATOM      8  C   UNL     1       6.319   4.814  17.427  0.00  0.00    +0.000 A 
ATOM      9  C   UNL     1       7.234   5.356  16.514  0.00  0.00    +0.000 A 
BRANCH   4  11
ATOM     10  C   UNL     1       7.675   5.041  12.854  0.00  0.00    +0.000 C 
ATOM     11  O   UNL     1       7.934   5.534  14.164  0.00  0.00    +0.000 OA
ENDBRANCH   4  11
ENDBRANCH   1   7
BRANCH   1  12
ATOM     12  N   UNL     1       2.665   4.213  17.838  0.00  0.00    +0.000 N 
ATOM     13  H   UNL     1       1.931   3.589  17.507  0.00  0.00    +0.000 HD
BRANCH  12  14
ATOM     14  C   UNL     1       2.282   5.203  18.797  0.00  0.00    +0.000 A 
ATOM     15  C   UNL     1       2.674   6.543  18.610  0.00  0.00    +0.000 A 
ATOM     16  C   UNL     1       3.325   7.055  17.355  0.00  0.00    +0.000 C 
ATOM     17  C   UNL     1       2.394   7.483  19.615  0.00  0.00    +0.000 A 
ATOM     18  C   UNL     1       1.693   7.116  20.760  0.00  0.00    +0.000 A 
ATOM     19  C   UNL     1       1.247   5.807  20.907  0.00  0.00    +0.000 A 
ATOM     20  C   UNL     1       1.537   4.834  19.937  0.00  0.00    +0.000 A 
ATOM     21  C   UNL     1       0.972   3.452  20.128  0.00  0.00    +0.000 C 
ENDBRANCH  12  14
ENDBRANCH   1  12
TORSDOF 4
ENDMDL
