MODEL 1
REMARK VINA RESULT:      -7.6      0.000      0.000
REMARK  Name = 
REMARK  2 active torsions:
REMARK  status: ('A' for Active; 'I' for Inactive)
REMARK    1  A    between atoms: N_1  and  C_2
REMARK    2  A    between atoms: C_15  and  C_16
REMARK                            x       y       z     vdW  Elec       q    Type
REMARK                         _______ _______ _______ _____ _____    ______ ____
ROOT
ATOM      1  C   UNL     1      -1.911  12.842  20.798  0.00  0.00    +0.000 A 
ATOM      2  C   UNL     1      -1.184  11.646  21.066  0.00  0.00    +0.000 A 
ATOM      3  C   UNL     1      -1.390  11.152  22.414  0.00  0.00    +0.000 A 
ATOM      4  N   UNL     1      -2.338  11.567  23.277  0.00  0.00    +0.000 NA
ATOM      5  C   UNL     1      -3.066  12.619  22.959  0.00  0.00    +0.000 A 
ATOM      6  C   UNL     1      -3.947  13.030  23.947  0.00  0.00    +0.000 A 
ATOM      7  C   UNL     1      -4.697  14.192  23.823  0.00  0.00    +0.000 A 
ATOM      8  C   UNL     1      -4.564  14.945  22.670  0.00  0.00    +0.000 A 
ATOM      9  C   UNL     1      -3.690  14.527  21.648  0.00  0.00    +0.000 A 
ATOM     10  C   UNL     1      -2.902  13.337  21.759  0.00  0.00    +0.000 A 
ATOM     11  C   UNL     1      -0.408  10.223  23.127  0.00  0.00    +0.000 C 
ATOM     12  C   UNL     1       0.490   9.820  22.030  0.00  0.00    +0.000 C 
ATOM     13  C   UNL     1       1.264   8.656  21.655  0.00  0.00    +0.000 C 
ATOM     14  C   UNL     1       1.253   8.491  20.310  0.00  0.00    +0.000 C 
ATOM     15  C   UNL     1       0.429   9.587  19.428  0.00  0.00    +0.000 C 
ATOM     16  C   UNL     1       0.096  11.125  20.188  0.00  0.00    +0.000 C 
ATOM     17  C   UNL     1       1.102  11.046  21.312  0.00  0.00    +0.000 C 
ENDROOT
BRANCH  14  18
ATOM     18  C   UNL     1       2.039   7.297  19.943  0.00  0.00    +0.000 A 
ATOM     19  C   UNL     1       2.524   7.193  18.627  0.00  0.00    +0.000 A 
ATOM     20  C   UNL     1       2.636   5.945  17.994  0.00  0.00    +0.000 A 
ATOM     21  C   UNL     1       2.274   4.778  18.664  0.00  0.00    +0.000 A 
ATOM     22  C   UNL     1       1.857   4.852  19.990  0.00  0.00    +0.000 A 
ATOM     23  C   UNL     1       1.758   6.098  20.628  0.00  0.00    +0.000 A 
ENDBRANCH  14  18
BRANCH   1  24
ATOM     24  N   UNL     1      -1.772  13.514  19.556  0.00  0.00    +0.000 N 
ATOM     25  H   UNL     1      -2.085  14.473  19.553  0.00  0.00    +0.000 HD
ATOM     26  H   UNL     1      -2.193  13.007  18.777  0.00  0.00    +0.000 HD
ENDBRANCH   1  24
TORSDOF 2
ENDMDL
MODEL 2
REMARK VINA RESULT:      -7.5      2.828      4.192
REMARK  Name = 
REMARK  2 active torsions:
REMARK  status: ('A' for Active; 'I' for Inactive)
REMARK    1  A    between atoms: N_1  and  C_2
REMARK    2  A    between atoms: C_15  and  C_16
REMARK                            x       y       z     vdW  Elec       q    Type
REMARK                         _______ _______ _______ _____ _____    ______ ____
ROOT
ATOM      1  C   UNL     1       0.371  12.792  20.639  0.00  0.00    +0.000 A 
ATOM      2  C   UNL     1       0.964  11.647  20.032  0.00  0.00    +0.000 A 
ATOM      3  C   UNL     1       1.802  11.983  18.897  0.00  0.00    +0.000 A 
ATOM      4  N   UNL     1       2.225  13.216  18.558  0.00  0.00    +0.000 NA
ATOM      5  C   UNL     1       1.733  14.255  19.204  0.00  0.00    +0.000 A 
ATOM      6  C   UNL     1       2.153  15.485  18.724  0.00  0.00    +0.000 A 
ATOM      7  C   UNL     1       1.634  16.678  19.210  0.00  0.00    +0.000 A 
ATOM      8  C   UNL     1       0.682  16.624  20.213  0.00  0.00    +0.000 A 
ATOM      9  C   UNL     1       0.263  15.381  20.727  0.00  0.00    +0.000 A 
ATOM     10  C   UNL     1       0.780  14.140  20.234  0.00  0.00    +0.000 A 
ATOM     11  C   UNL     1       2.151  10.990  17.788  0.00  0.00    +0.000 C 
ATOM     12  C   UNL     1       1.689   9.712  18.359  0.00  0.00    +0.000 C 
ATOM     13  C   UNL     1       2.073   8.318  18.310  0.00  0.00    +0.000 C 
ATOM     14  C   UNL     1       1.876   7.728  19.513  0.00  0.00    +0.000 C 
ATOM     15  C   UNL     1       1.265   8.651  20.709  0.00  0.00    +0.000 C 
ATOM     16  C   UNL     1       0.432  10.112  20.234  0.00  0.00    +0.000 C 
ATOM     17  C   UNL     1       0.201   9.778  18.778  0.00  0.00    +0.000 C 
ENDROOT
BRANCH  14  18
ATOM     18  C   UNL     1       2.279   6.309  19.450  0.00  0.00    +0.000 A 
ATOM     19  C   UNL     1       2.410   5.705  18.187  0.00  0.00    +0.000 A 
ATOM     20  C   UNL     1       2.100   4.349  17.998  0.00  0.00    +0.000 A 
ATOM     21  C   UNL     1       1.662   3.570  19.067  0.00  0.00    +0.000 A 
ATOM     22  C   UNL     1       1.591   4.129  20.339  0.00  0.00    +0.000 A 
ATOM     23  C   UNL     1       1.915   5.482  20.531  0.00  0.00    +0.000 A 
ENDBRANCH  14  18
BRANCH   1  24
ATOM     24  N   UNL     1      -0.543  12.652  21.716  0.00  0.00    +0.000 N 
ATOM     25  H   UNL     1      -1.517  12.704  21.458  0.00  0.00    +0.000 HD
ATOM     26  H   UNL     1      -0.352  13.290  22.489  0.00  0.00    +0.000 HD
ENDBRANCH   1  24
TORSDOF 2
ENDMDL
MODEL 3
REMARK VINA RESULT:      -7.4      2.041      3.361
REMARK  Name = 
REMARK  2 active torsions:
REMARK  status: ('A' for Active; 'I' for Inactive)
REMARK    1  A    between atoms: N_1  and  C_2
REMARK    2  A    between atoms: C_15  and  C_16
REMARK                            x       y       z     vdW  Elec       q    Type
REMARK                         _______ _______ _______ _____ _____    ______ ____
ROOT
ATOM      1  C   UNL     1      -0.549  11.759  22.206  0.00  0.00    +0.000 A 
ATOM      2  C   UNL     1       0.220  11.203  21.143  0.00  0.00    +0.000 A 
ATOM      3  C   UNL     1       0.863  12.213  20.325  0.00  0.00    +0.000 A 
ATOM      4  N   UNL     1       0.981  13.521  20.623  0.00  0.00    +0.000 NA
ATOM      5  C   UNL     1       0.337  13.992  21.672  0.00  0.00    +0.000 A 
ATOM      6  C   UNL     1       0.440  15.363  21.844  0.00  0.00    +0.000 A 
ATOM      7  C   UNL     1      -0.278  16.035  22.826  0.00  0.00    +0.000 A 
ATOM      8  C   UNL     1      -1.105  15.301  23.659  0.00  0.00    +0.000 A 
ATOM      9  C   UNL     1      -1.201  13.904  23.510  0.00  0.00    +0.000 A 
ATOM     10  C   UNL     1      -0.475  13.194  22.500  0.00  0.00    +0.000 A 
ATOM     11  C   UNL     1       1.318  11.963  18.887  0.00  0.00    +0.000 C 
ATOM     12  C   UNL     1       1.193  10.499  18.771  0.00  0.00    +0.000 C 
ATOM     13  C   UNL     1       1.860   9.420  18.075  0.00  0.00    +0.000 C 
ATOM     14  C   UNL     1       1.902   8.309  18.849  0.00  0.00    +0.000 C 
ATOM     15  C   UNL     1       1.214   8.398  20.324  0.00  0.00    +0.000 C 
ATOM     16  C   UNL     1       0.049   9.675  20.579  0.00  0.00    +0.000 C 
ATOM     17  C   UNL     1      -0.232  10.018  19.134  0.00  0.00    +0.000 C 
ENDROOT
BRANCH  14  18
ATOM     18  C   UNL     1       2.592   7.220  18.130  0.00  0.00    +0.000 A 
ATOM     19  C   UNL     1       2.487   5.913  18.635  0.00  0.00    +0.000 A 
ATOM     20  C   UNL     1       3.550   5.003  18.513  0.00  0.00    +0.000 A 
ATOM     21  C   UNL     1       4.732   5.380  17.879  0.00  0.00    +0.000 A 
ATOM     22  C   UNL     1       4.831   6.646  17.311  0.00  0.00    +0.000 A 
ATOM     23  C   UNL     1       3.763   7.551  17.420  0.00  0.00    +0.000 A 
ENDBRANCH  14  18
BRANCH   1  24
ATOM     24  N   UNL     1      -1.313  10.926  23.064  0.00  0.00    +0.000 N 
ATOM     25  H   UNL     1      -0.779  10.252  23.590  0.00  0.00    +0.000 HD
ATOM     26  H   UNL     1      -2.088  10.464  22.586  0.00  0.00    +0.000 HD
ENDBRANCH   1  24
TORSDOF 2
ENDMDL
MODEL 4
REMARK VINA RESULT:      -7.3      9.305     10.284
REMARK  Name = 
REMARK  2 active torsions:
REMARK  status: ('A' for Active; 'I' for Inactive)
REMARK    1  A    between atoms: N_1  and  C_2
REMARK    2  A    between atoms: C_15  and  C_16
REMARK                            x       y       z     vdW  Elec       q    Type
REMARK                         _______ _______ _______ _____ _____    ______ ____
ROOT
ATOM      1  C   UNL     1       9.182  14.591  18.757  0.00  0.00    +0.000 A 
ATOM      2  C   UNL     1       9.073  13.187  18.974  0.00  0.00    +0.000 A 
ATOM      3  C   UNL     1       9.452  12.794  20.317  0.00  0.00    +0.000 A 
ATOM      4  N   UNL     1       9.644  13.621  21.363  0.00  0.00    +0.000 NA
ATOM      5  C   UNL     1       9.641  14.922  21.152  0.00  0.00    +0.000 A 
ATOM      6  C   UNL     1       9.941  15.688  22.267  0.00  0.00    +0.000 A 
ATOM      7  C   UNL     1      10.102  17.066  22.188  0.00  0.00    +0.000 A 
ATOM      8  C   UNL     1       9.942  17.680  20.958  0.00  0.00    +0.000 A 
ATOM      9  C   UNL     1       9.614  16.916  19.821  0.00  0.00    +0.000 A 
ATOM     10  C   UNL     1       9.451  15.495  19.880  0.00  0.00    +0.000 A 
ATOM     11  C   UNL     1       9.902  11.379  20.682  0.00  0.00    +0.000 C 
ATOM     12  C   UNL     1       9.552  10.620  19.468  0.00  0.00    +0.000 C 
ATOM     13  C   UNL     1       9.115   9.281  19.133  0.00  0.00    +0.000 C 
ATOM     14  C   UNL     1       8.234   9.314  18.105  0.00  0.00    +0.000 C 
ATOM     15  C   UNL     1       7.874  10.772  17.472  0.00  0.00    +0.000 C 
ATOM     16  C   UNL     1       9.004  12.069  17.780  0.00  0.00    +0.000 C 
ATOM     17  C   UNL     1      10.193  11.238  18.203  0.00  0.00    +0.000 C 
ENDROOT
BRANCH  14  18
ATOM     18  C   UNL     1       7.790   7.944  17.779  0.00  0.00    +0.000 A 
ATOM     19  C   UNL     1       6.552   7.776  17.135  0.00  0.00    +0.000 A 
ATOM     20  C   UNL     1       5.749   6.653  17.391  0.00  0.00    +0.000 A 
ATOM     21  C   UNL     1       6.172   5.674  18.288  0.00  0.00    +0.000 A 
ATOM     22  C   UNL     1       7.424   5.785  18.883  0.00  0.00    +0.000 A 
ATOM     23  C   UNL     1       8.233   6.901  18.617  0.00  0.00    +0.000 A 
ENDBRANCH  14  18
BRANCH   1  24
ATOM     24  N   UNL     1       8.928  15.151  17.478  0.00  0.00    +0.000 N 
ATOM     25  H   UNL     1       8.153  14.740  16.979  0.00  0.00    +0.000 HD
ATOM     26  H   UNL     1       9.755  15.176  16.880  0.00  0.00    +0.000 HD
ENDBRANCH   1  24
TORSDOF 2
ENDMDL
MODEL 5
REMARK VINA RESULT:      -7.2      2.596      4.026
REMARK  Name = 
REMARK  2 active torsions:
REMARK  status: ('A' for Active; 'I' for Inactive)
REMARK    1  A    between atoms: N_1  and  C_2
REMARK    2  A    between atoms: C_15  and  C_16
REMARK                            x       y       z     vdW  Elec       q    Type
REMARK                         _______ _______ _______ _____ _____    ______ ____
ROOT
ATOM      1  C   UNL     1       0.166  12.218  20.803  0.00  0.00    +0.000 A 
ATOM      2  C   UNL     1       0.911  11.261  20.056  0.00  0.00    +0.000 A 
ATOM      3  C   UNL     1       1.722  11.865  19.017  0.00  0.00    +0.000 A 
ATOM      4  N   UNL     1       1.994  13.177  18.883  0.00  0.00    +0.000 NA
ATOM      5  C   UNL     1       1.362  14.038  19.657  0.00  0.00    +0.000 A 
ATOM      6  C   UNL     1       1.634  15.368  19.382  0.00  0.00    +0.000 A 
ATOM      7  C   UNL     1       0.960  16.401  20.021  0.00  0.00    +0.000 A 
ATOM      8  C   UNL     1       0.002  16.080  20.966  0.00  0.00    +0.000 A 
ATOM      9  C   UNL     1      -0.268  14.732  21.272  0.00  0.00    +0.000 A 
ATOM     10  C   UNL     1       0.411  13.653  20.620  0.00  0.00    +0.000 A 
ATOM     11  C   UNL     1       2.216  11.103  17.787  0.00  0.00    +0.000 C 
ATOM     12  C   UNL     1       1.906   9.706  18.143  0.00  0.00    +0.000 C 
ATOM     13  C   UNL     1       2.463   8.392  17.901  0.00  0.00    +0.000 C 
ATOM     14  C   UNL     1       2.318   7.606  18.994  0.00  0.00    +0.000 C 
ATOM     15  C   UNL     1       1.572   8.255  20.290  0.00  0.00    +0.000 C 
ATOM     16  C   UNL     1       0.572   9.659  20.006  0.00  0.00    +0.000 C 
ATOM     17  C   UNL     1       0.414   9.527  18.509  0.00  0.00    +0.000 C 
ENDROOT
BRANCH  14  18
ATOM     18  C   UNL     1       2.897   6.273  18.736  0.00  0.00    +0.000 A 
ATOM     19  C   UNL     1       4.129   6.197  18.063  0.00  0.00    +0.000 A 
ATOM     20  C   UNL     1       4.415   5.130  17.195  0.00  0.00    +0.000 A 
ATOM     21  C   UNL     1       3.480   4.117  16.991  0.00  0.00    +0.000 A 
ATOM     22  C   UNL     1       2.283   4.137  17.700  0.00  0.00    +0.000 A 
ATOM     23  C   UNL     1       2.003   5.196  18.578  0.00  0.00    +0.000 A 
ENDBRANCH  14  18
BRANCH   1  24
ATOM     24  N   UNL     1      -0.744  11.806  21.811  0.00  0.00    +0.000 N 
ATOM     25  H   UNL     1      -1.359  11.051  21.546  0.00  0.00    +0.000 HD
ATOM     26  H   UNL     1      -1.286  12.578  22.201  0.00  0.00    +0.000 HD
ENDBRANCH   1  24
TORSDOF 2
ENDMDL
MODEL 6
REMARK VINA RESULT:      -7.2      2.360      7.985
REMARK  Name = 
REMARK  2 active torsions:
REMARK  status: ('A' for Active; 'I' for Inactive)
REMARK    1  A    between atoms: N_1  and  C_2
REMARK    2  A    between atoms: C_15  and  C_16
REMARK                            x       y       z     vdW  Elec       q    Type
REMARK                         _______ _______ _______ _____ _____    ______ ____
ROOT
ATOM      1  C   UNL     1       1.277   9.862  19.019  0.00  0.00    +0.000 A 
ATOM      2  C   UNL     1       0.671  10.442  20.171  0.00  0.00    +0.000 A 
ATOM      3  C   UNL     1       0.514   9.498  21.260  0.00  0.00    +0.000 A 
ATOM      4  N   UNL     1       1.081   8.279  21.344  0.00  0.00    +0.000 NA
ATOM      5  C   UNL     1       1.723   7.806  20.294  0.00  0.00    +0.000 A 
ATOM      6  C   UNL     1       2.189   6.509  20.440  0.00  0.00    +0.000 A 
ATOM      7  C   UNL     1       2.776   5.818  19.387  0.00  0.00    +0.000 A 
ATOM      8  C   UNL     1       2.906   6.459  18.167  0.00  0.00    +0.000 A 
ATOM      9  C   UNL     1       2.457   7.784  18.012  0.00  0.00    +0.000 A 
ATOM     10  C   UNL     1       1.843   8.511  19.082  0.00  0.00    +0.000 A 
ATOM     11  C   UNL     1      -0.506   9.676  22.385  0.00  0.00    +0.000 C 
ATOM     12  C   UNL     1      -0.955  11.065  22.179  0.00  0.00    +0.000 C 
ATOM     13  C   UNL     1      -1.409  12.173  22.992  0.00  0.00    +0.000 C 
ATOM     14  C   UNL     1      -0.959  13.347  22.487  0.00  0.00    +0.000 C 
ATOM     15  C   UNL     1      -0.059  13.284  21.130  0.00  0.00    +0.000 C 
ATOM     16  C   UNL     1      -0.190  11.835  20.161  0.00  0.00    +0.000 C 
ATOM     17  C   UNL     1      -1.475  11.290  20.740  0.00  0.00    +0.000 C 
ENDROOT
BRANCH  14  18
ATOM     18  C   UNL     1      -1.423  14.467  23.330  0.00  0.00    +0.000 A 
ATOM     19  C   UNL     1      -0.468  15.372  23.825  0.00  0.00    +0.000 A 
ATOM     20  C   UNL     1      -0.629  15.978  25.082  0.00  0.00    +0.000 A 
ATOM     21  C   UNL     1      -1.749  15.697  25.862  0.00  0.00    +0.000 A 
ATOM     22  C   UNL     1      -2.740  14.859  25.361  0.00  0.00    +0.000 A 
ATOM     23  C   UNL     1      -2.586  14.264  24.099  0.00  0.00    +0.000 A 
ENDBRANCH  14  18
BRANCH   1  24
ATOM     24  N   UNL     1       1.439  10.614  17.826  0.00  0.00    +0.000 N 
ATOM     25  H   UNL     1       0.727  11.309  17.660  0.00  0.00    +0.000 HD
ATOM     26  H   UNL     1       1.559  10.030  16.998  0.00  0.00    +0.000 HD
ENDBRANCH   1  24
TORSDOF 2
ENDMDL
MODEL 7
REMARK VINA RESULT:      -7.2      2.187      8.087
REMARK  Name = 
REMARK  2 active torsions:
REMARK  status: ('A' for Active; 'I' for Inactive)
REMARK    1  A    between atoms: N_1  and  C_2
REMARK    2  A    between atoms: C_15  and  C_16
REMARK                            x       y       z     vdW  Elec       q    Type
REMARK                         _______ _______ _______ _____ _____    ______ ____
ROOT
ATOM      1  C   UNL     1       1.424   9.808  18.959  0.00  0.00    +0.000 A 
ATOM      2  C   UNL     1       0.818  10.313  20.146  0.00  0.00    +0.000 A 
ATOM      3  C   UNL     1       0.640   9.296  21.164  0.00  0.00    +0.000 A 
ATOM      4  N   UNL     1       1.190   8.066  21.164  0.00  0.00    +0.000 NA
ATOM      5  C   UNL     1       1.833   7.660  20.088  0.00  0.00    +0.000 A 
ATOM      6  C   UNL     1       2.281   6.349  20.144  0.00  0.00    +0.000 A 
ATOM      7  C   UNL     1       2.867   5.727  19.048  0.00  0.00    +0.000 A 
ATOM      8  C   UNL     1       3.015   6.451  17.878  0.00  0.00    +0.000 A 
ATOM      9  C   UNL     1       2.585   7.791  17.815  0.00  0.00    +0.000 A 
ATOM     10  C   UNL     1       1.973   8.448  18.929  0.00  0.00    +0.000 A 
ATOM     11  C   UNL     1      -0.386   9.407  22.292  0.00  0.00    +0.000 C 
ATOM     12  C   UNL     1      -0.815  10.813  22.183  0.00  0.00    +0.000 C 
ATOM     13  C   UNL     1      -1.261  11.867  23.069  0.00  0.00    +0.000 C 
ATOM     14  C   UNL     1      -0.792  13.067  22.653  0.00  0.00    +0.000 C 
ATOM     15  C   UNL     1       0.118  13.088  21.301  0.00  0.00    +0.000 C 
ATOM     16  C   UNL     1      -0.024  11.715  20.230  0.00  0.00    +0.000 C 
ATOM     17  C   UNL     1      -1.321  11.147  20.760  0.00  0.00    +0.000 C 
ENDROOT
BRANCH  14  18
ATOM     18  C   UNL     1      -1.247  14.131  23.570  0.00  0.00    +0.000 A 
ATOM     19  C   UNL     1      -2.497  13.987  24.195  0.00  0.00    +0.000 A 
ATOM     20  C   UNL     1      -3.299  15.105  24.475  0.00  0.00    +0.000 A 
ATOM     21  C   UNL     1      -2.863  16.387  24.145  0.00  0.00    +0.000 A 
ATOM     22  C   UNL     1      -1.599  16.557  23.590  0.00  0.00    +0.000 A 
ATOM     23  C   UNL     1      -0.791  15.441  23.321  0.00  0.00    +0.000 A 
ENDBRANCH  14  18
BRANCH   1  24
ATOM     24  N   UNL     1       1.606  10.641  17.825  0.00  0.00    +0.000 N 
ATOM     25  H   UNL     1       2.061  11.522  18.011  0.00  0.00    +0.000 HD
ATOM     26  H   UNL     1       0.745  10.796  17.300  0.00  0.00    +0.000 HD
ENDBRANCH   1  24
TORSDOF 2
ENDMDL
MODEL 8
REMARK VINA RESULT:      -7.2      1.737      2.554
REMARK  Name = 
REMARK  2 active torsions:
REMARK  status: ('A' for Active; 'I' for Inactive)
REMARK    1  A    between atoms: N_1  and  C_2
REMARK    2  A    between atoms: C_15  and  C_16
REMARK                            x       y       z     vdW  Elec       q    Type
REMARK                         _______ _______ _______ _____ _____    ______ ____
ROOT
ATOM      1  C   UNL     1      -4.655  13.001  20.416  0.00  0.00    +0.000 A 
ATOM      2  C   UNL     1      -3.420  12.355  20.717  0.00  0.00    +0.000 A 
ATOM      3  C   UNL     1      -3.170  12.256  22.141  0.00  0.00    +0.000 A 
ATOM      4  N   UNL     1      -4.062  12.486  23.124  0.00  0.00    +0.000 NA
ATOM      5  C   UNL     1      -5.236  12.994  22.807  0.00  0.00    +0.000 A 
ATOM      6  C   UNL     1      -6.050  13.286  23.890  0.00  0.00    +0.000 A 
ATOM      7  C   UNL     1      -7.267  13.938  23.738  0.00  0.00    +0.000 A 
ATOM      8  C   UNL     1      -7.674  14.289  22.463  0.00  0.00    +0.000 A 
ATOM      9  C   UNL     1      -6.868  13.977  21.351  0.00  0.00    +0.000 A 
ATOM     10  C   UNL     1      -5.607  13.312  21.486  0.00  0.00    +0.000 A 
ATOM     11  C   UNL     1      -1.773  12.079  22.737  0.00  0.00    +0.000 C 
ATOM     12  C   UNL     1      -0.964  11.766  21.545  0.00  0.00    +0.000 C 
ATOM     13  C   UNL     1       0.200  10.970  21.221  0.00  0.00    +0.000 C 
ATOM     14  C   UNL     1       0.069  10.415  19.993  0.00  0.00    +0.000 C 
ATOM     15  C   UNL     1      -1.293  10.749  19.161  0.00  0.00    +0.000 C 
ATOM     16  C   UNL     1      -2.192  12.165  19.651  0.00  0.00    +0.000 C 
ATOM     17  C   UNL     1      -1.112  12.853  20.454  0.00  0.00    +0.000 C 
ENDROOT
BRANCH  14  18
ATOM     18  C   UNL     1       1.259   9.600  19.679  0.00  0.00    +0.000 A 
ATOM     19  C   UNL     1       1.723   9.574  18.352  0.00  0.00    +0.000 A 
ATOM     20  C   UNL     1       2.312   8.419  17.814  0.00  0.00    +0.000 A 
ATOM     21  C   UNL     1       2.455   7.272  18.592  0.00  0.00    +0.000 A 
ATOM     22  C   UNL     1       2.066   7.297  19.927  0.00  0.00    +0.000 A 
ATOM     23  C   UNL     1       1.490   8.457  20.470  0.00  0.00    +0.000 A 
ENDBRANCH  14  18
BRANCH   1  24
ATOM     24  N   UNL     1      -5.032  13.258  19.072  0.00  0.00    +0.000 N 
ATOM     25  H   UNL     1      -4.693  14.129  18.693  0.00  0.00    +0.000 HD
ATOM     26  H   UNL     1      -6.038  13.177  18.916  0.00  0.00    +0.000 HD
ENDBRANCH   1  24
TORSDOF 2
ENDMDL
MODEL 9
REMARK VINA RESULT:      -7.1      0.912      1.427
REMARK  Name = 
REMARK  2 active torsions:
REMARK  status: ('A' for Active; 'I' for Inactive)
REMARK    1  A    between atoms: N_1  and  C_2
REMARK    2  A    between atoms: C_15  and  C_16
REMARK                            x       y       z     vdW  Elec       q    Type
REMARK                         _______ _______ _______ _____ _____    ______ ____
ROOT
ATOM      1  C   UNL     1      -1.669  12.816  20.802  0.00  0.00    +0.000 A 
ATOM      2  C   UNL     1      -0.932  11.597  20.832  0.00  0.00    +0.000 A 
ATOM      3  C   UNL     1      -1.017  10.920  22.112  0.00  0.00    +0.000 A 
ATOM      4  N   UNL     1      -1.875  11.209  23.109  0.00  0.00    +0.000 NA
ATOM      5  C   UNL     1      -2.618  12.293  23.011  0.00  0.00    +0.000 A 
ATOM      6  C   UNL     1      -3.398  12.560  24.125  0.00  0.00    +0.000 A 
ATOM      7  C   UNL     1      -4.144  13.727  24.235  0.00  0.00    +0.000 A 
ATOM      8  C   UNL     1      -4.111  14.633  23.189  0.00  0.00    +0.000 A 
ATOM      9  C   UNL     1      -3.341  14.363  22.042  0.00  0.00    +0.000 A 
ATOM     10  C   UNL     1      -2.560  13.171  21.912  0.00  0.00    +0.000 A 
ATOM     11  C   UNL     1       0.018   9.903  22.594  0.00  0.00    +0.000 C 
ATOM     12  C   UNL     1       0.805   9.658  21.371  0.00  0.00    +0.000 C 
ATOM     13  C   UNL     1       1.528   8.559  20.767  0.00  0.00    +0.000 C 
ATOM     14  C   UNL     1       1.389   8.584  19.420  0.00  0.00    +0.000 C 
ATOM     15  C   UNL     1       0.498   9.789  18.780  0.00  0.00    +0.000 C 
ATOM     16  C   UNL     1       0.254  11.206  19.773  0.00  0.00    +0.000 C 
ATOM     17  C   UNL     1       1.360  10.973  20.776  0.00  0.00    +0.000 C 
ENDROOT
BRANCH  14  18
ATOM     18  C   UNL     1       2.124   7.454  18.818  0.00  0.00    +0.000 A 
ATOM     19  C   UNL     1       2.472   6.367  19.639  0.00  0.00    +0.000 A 
ATOM     20  C   UNL     1       3.661   5.651  19.426  0.00  0.00    +0.000 A 
ATOM     21  C   UNL     1       4.519   6.001  18.385  0.00  0.00    +0.000 A 
ATOM     22  C   UNL     1       4.160   7.028  17.518  0.00  0.00    +0.000 A 
ATOM     23  C   UNL     1       2.965   7.736  17.722  0.00  0.00    +0.000 A 
ENDBRANCH  14  18
BRANCH   1  24
ATOM     24  N   UNL     1      -1.639  13.655  19.658  0.00  0.00    +0.000 N 
ATOM     25  H   UNL     1      -2.329  14.391  19.651  0.00  0.00    +0.000 HD
ATOM     26  H   UNL     1      -1.673  13.136  18.780  0.00  0.00    +0.000 HD
ENDBRANCH   1  24
TORSDOF 2
ENDMDL
