MODEL 1
REMARK VINA RESULT:      -7.6      0.000      0.000
REMARK  Name = 
REMARK  5 active torsions:
REMARK  status: ('A' for Active; 'I' for Inactive)
REMARK    1  A    between atoms: C_1  and  C_2
REMARK    2  A    between atoms: C_4  and  O_5
REMARK    3  A    between atoms: C_8  and  N_9
REMARK    4  A    between atoms: N_13  and  C_14
REMARK    5  A    between atoms: N_22  and  C_23
REMARK                            x       y       z     vdW  Elec       q    Type
REMARK                         _______ _______ _______ _____ _____    ______ ____
ROOT
ATOM      1  N   UNL     1      -3.167  12.081  20.254  0.00  0.00    +0.000 N 
ATOM      2  C   UNL     1      -2.001  12.586  19.678  0.00  0.00    +0.000 A 
ATOM      3  N   UNL     1      -1.194  11.742  19.055  0.00  0.00    +0.000 NA
ATOM      4  C   UNL     1      -0.033  12.254  18.648  0.00  0.00    +0.000 A 
ATOM      5  N   UNL     1       0.979  11.415  18.162  0.00  0.00    +0.000 N 
ATOM      6  N   UNL     1       0.267  13.544  18.700  0.00  0.00    +0.000 NA
ATOM      7  C   UNL     1      -0.625  14.325  19.276  0.00  0.00    +0.000 A 
ATOM      8  N   UNL     1      -0.390  15.692  19.405  0.00  0.00    +0.000 N 
ATOM      9  N   UNL     1      -1.746  13.881  19.813  0.00  0.00    +0.000 NA
ATOM     10  H   UNL     1      -3.542  11.294  19.751  0.00  0.00    +0.000 HD
ATOM     11  H   UNL     1       1.800  12.001  18.032  0.00  0.00    +0.000 HD
ATOM     12  H   UNL     1      -1.182  16.121  19.872  0.00  0.00    +0.000 HD
ENDROOT
BRANCH   1  19
ATOM     13  C   UNL     1      -1.739  11.776  22.829  0.00  0.00    +0.000 C 
ATOM     14  C   UNL     1      -3.150  12.281  22.706  0.00  0.00    +0.000 A 
ATOM     15  C   UNL     1      -3.879  12.531  23.888  0.00  0.00    +0.000 A 
ATOM     16  C   UNL     1      -5.182  13.016  23.831  0.00  0.00    +0.000 A 
ATOM     17  C   UNL     1      -5.780  13.284  22.616  0.00  0.00    +0.000 A 
ATOM     18  C   UNL     1      -5.077  13.018  21.445  0.00  0.00    +0.000 A 
ATOM     19  C   UNL     1      -3.771  12.485  21.460  0.00  0.00    +0.000 A 
BRANCH  16  20
ATOM     20  O   UNL     1      -5.911  13.250  24.955  0.00  0.00    +0.000 OA
ATOM     21  H   UNL     1      -5.595  12.659  25.658  0.00  0.00    +0.000 HD
ENDBRANCH  16  20
ENDBRANCH   1  19
BRANCH   5  22
ATOM     22  C   UNL     1       1.325  10.152  18.697  0.00  0.00    +0.000 A 
ATOM     23  C   UNL     1       0.931   9.841  20.003  0.00  0.00    +0.000 A 
ATOM     24  C   UNL     1       1.277   8.616  20.581  0.00  0.00    +0.000 A 
ATOM     25  C   UNL     1       1.988   7.672  19.844  0.00  0.00    +0.000 A 
ATOM     26  C   UNL     1       2.329   7.941  18.522  0.00  0.00    +0.000 A 
ATOM     27  C   UNL     1       1.989   9.169  17.950  0.00  0.00    +0.000 A 
ENDBRANCH   5  22
BRANCH   8  28
ATOM     28  C   UNL     1       0.263  16.529  18.489  0.00  0.00    +0.000 A 
ATOM     29  C   UNL     1       1.653  16.544  18.339  0.00  0.00    +0.000 A 
ATOM     30  C   UNL     1       2.269  17.407  17.437  0.00  0.00    +0.000 A 
ATOM     31  C   UNL     1       1.496  18.275  16.670  0.00  0.00    +0.000 A 
ATOM     32  C   UNL     1       0.109  18.270  16.801  0.00  0.00    +0.000 A 
ATOM     33  C   UNL     1      -0.507  17.394  17.696  0.00  0.00    +0.000 A 
ENDBRANCH   8  28
TORSDOF 4
ENDMDL
MODEL 2
REMARK VINA RESULT:      -7.5      0.258      1.289
REMARK  Name = 
REMARK  5 active torsions:
REMARK  status: ('A' for Active; 'I' for Inactive)
REMARK    1  A    between atoms: C_1  and  C_2
REMARK    2  A    between atoms: C_4  and  O_5
REMARK    3  A    between atoms: C_8  and  N_9
REMARK    4  A    between atoms: N_13  and  C_14
REMARK    5  A    between atoms: N_22  and  C_23
REMARK                            x       y       z     vdW  Elec       q    Type
REMARK                         _______ _______ _______ _____ _____    ______ ____
ROOT
ATOM      1  N   UNL     1      -3.373  12.181  20.230  0.00  0.00    +0.000 N 
ATOM      2  C   UNL     1      -2.186  12.680  19.692  0.00  0.00    +0.000 A 
ATOM      3  N   UNL     1      -1.352  11.829  19.119  0.00  0.00    +0.000 NA
ATOM      4  C   UNL     1      -0.177  12.339  18.749  0.00  0.00    +0.000 A 
ATOM      5  N   UNL     1       0.857  11.496  18.322  0.00  0.00    +0.000 N 
ATOM      6  N   UNL     1       0.116  13.632  18.789  0.00  0.00    +0.000 NA
ATOM      7  C   UNL     1      -0.803  14.419  19.314  0.00  0.00    +0.000 A 
ATOM      8  N   UNL     1      -0.579  15.789  19.426  0.00  0.00    +0.000 N 
ATOM      9  N   UNL     1      -1.943  13.980  19.812  0.00  0.00    +0.000 NA
ATOM     10  H   UNL     1      -3.724  11.383  19.727  0.00  0.00    +0.000 HD
ATOM     11  H   UNL     1       1.680  12.083  18.214  0.00  0.00    +0.000 HD
ATOM     12  H   UNL     1      -1.391  16.223  19.853  0.00  0.00    +0.000 HD
ENDROOT
BRANCH   1  19
ATOM     13  C   UNL     1      -2.072  11.882  22.872  0.00  0.00    +0.000 C 
ATOM     14  C   UNL     1      -3.468  12.404  22.678  0.00  0.00    +0.000 A 
ATOM     15  C   UNL     1      -4.248  12.675  23.822  0.00  0.00    +0.000 A 
ATOM     16  C   UNL     1      -5.541  13.177  23.699  0.00  0.00    +0.000 A 
ATOM     17  C   UNL     1      -6.077  13.441  22.455  0.00  0.00    +0.000 A 
ATOM     18  C   UNL     1      -5.324  13.155  21.321  0.00  0.00    +0.000 A 
ATOM     19  C   UNL     1      -4.027  12.605  21.402  0.00  0.00    +0.000 A 
BRANCH  16  20
ATOM     20  O   UNL     1      -6.319  13.432  24.785  0.00  0.00    +0.000 OA
ATOM     21  H   UNL     1      -6.651  14.342  24.721  0.00  0.00    +0.000 HD
ENDBRANCH  16  20
ENDBRANCH   1  19
BRANCH   5  22
ATOM     22  C   UNL     1       1.187  10.245  18.894  0.00  0.00    +0.000 A 
ATOM     23  C   UNL     1       1.883   9.311  18.121  0.00  0.00    +0.000 A 
ATOM     24  C   UNL     1       2.203   8.052  18.637  0.00  0.00    +0.000 A 
ATOM     25  C   UNL     1       1.865   7.729  19.949  0.00  0.00    +0.000 A 
ATOM     26  C   UNL     1       1.232   8.673  20.752  0.00  0.00    +0.000 A 
ATOM     27  C   UNL     1       0.905   9.927  20.230  0.00  0.00    +0.000 A 
ENDBRANCH   5  22
BRANCH   8  28
ATOM     28  C   UNL     1       0.108  16.612  18.522  0.00  0.00    +0.000 A 
ATOM     29  C   UNL     1      -0.548  17.489  17.653  0.00  0.00    +0.000 A 
ATOM     30  C   UNL     1       0.165  18.273  16.750  0.00  0.00    +0.000 A 
ATOM     31  C   UNL     1       1.554  18.185  16.702  0.00  0.00    +0.000 A 
ATOM     32  C   UNL     1       2.225  17.321  17.565  0.00  0.00    +0.000 A 
ATOM     33  C   UNL     1       1.509  16.547  18.478  0.00  0.00    +0.000 A 
ENDBRANCH   8  28
TORSDOF 4
ENDMDL
MODEL 3
REMARK VINA RESULT:      -7.4      3.208      7.205
REMARK  Name = 
REMARK  5 active torsions:
REMARK  status: ('A' for Active; 'I' for Inactive)
REMARK    1  A    between atoms: C_1  and  C_2
REMARK    2  A    between atoms: C_4  and  O_5
REMARK    3  A    between atoms: C_8  and  N_9
REMARK    4  A    between atoms: N_13  and  C_14
REMARK    5  A    between atoms: N_22  and  C_23
REMARK                            x       y       z     vdW  Elec       q    Type
REMARK                         _______ _______ _______ _____ _____    ______ ____
ROOT
ATOM      1  N   UNL     1      -0.574  14.151  18.502  0.00  0.00    +0.000 N 
ATOM      2  C   UNL     1      -0.717  12.763  18.563  0.00  0.00    +0.000 A 
ATOM      3  N   UNL     1      -1.748  12.213  17.945  0.00  0.00    +0.000 NA
ATOM      4  C   UNL     1      -1.911  10.907  18.154  0.00  0.00    +0.000 A 
ATOM      5  N   UNL     1      -3.077  10.260  17.720  0.00  0.00    +0.000 N 
ATOM      6  N   UNL     1      -1.037  10.144  18.797  0.00  0.00    +0.000 NA
ATOM      7  C   UNL     1      -0.001  10.766  19.323  0.00  0.00    +0.000 A 
ATOM      8  N   UNL     1       0.959  10.058  20.041  0.00  0.00    +0.000 N 
ATOM      9  N   UNL     1       0.173  12.073  19.265  0.00  0.00    +0.000 NA
ATOM     10  H   UNL     1      -0.922  14.541  17.642  0.00  0.00    +0.000 HD
ATOM     11  H   UNL     1      -3.035   9.315  18.092  0.00  0.00    +0.000 HD
ATOM     12  H   UNL     1       1.671  10.703  20.368  0.00  0.00    +0.000 HD
ENDROOT
BRANCH   1  19
ATOM     13  C   UNL     1       2.192  15.204  18.435  0.00  0.00    +0.000 C 
ATOM     14  C   UNL     1       1.222  15.462  19.554  0.00  0.00    +0.000 A 
ATOM     15  C   UNL     1       1.679  16.162  20.691  0.00  0.00    +0.000 A 
ATOM     16  C   UNL     1       0.818  16.443  21.748  0.00  0.00    +0.000 A 
ATOM     17  C   UNL     1      -0.508  16.062  21.694  0.00  0.00    +0.000 A 
ATOM     18  C   UNL     1      -0.962  15.351  20.588  0.00  0.00    +0.000 A 
ATOM     19  C   UNL     1      -0.110  15.009  19.517  0.00  0.00    +0.000 A 
BRANCH  16  20
ATOM     20  O   UNL     1       1.238  17.102  22.861  0.00  0.00    +0.000 OA
ATOM     21  H   UNL     1       0.487  17.592  23.233  0.00  0.00    +0.000 HD
ENDBRANCH  16  20
ENDBRANCH   1  19
BRANCH   5  22
ATOM     22  C   UNL     1      -4.386  10.789  17.799  0.00  0.00    +0.000 A 
ATOM     23  C   UNL     1      -4.740  11.843  16.950  0.00  0.00    +0.000 A 
ATOM     24  C   UNL     1      -6.014  12.415  17.014  0.00  0.00    +0.000 A 
ATOM     25  C   UNL     1      -6.962  11.911  17.902  0.00  0.00    +0.000 A 
ATOM     26  C   UNL     1      -6.645  10.819  18.705  0.00  0.00    +0.000 A 
ATOM     27  C   UNL     1      -5.369  10.256  18.645  0.00  0.00    +0.000 A 
ENDBRANCH   5  22
BRANCH   8  28
ATOM     28  C   UNL     1       1.429   8.763  19.778  0.00  0.00    +0.000 A 
ATOM     29  C   UNL     1       1.383   7.737  20.727  0.00  0.00    +0.000 A 
ATOM     30  C   UNL     1       1.882   6.469  20.439  0.00  0.00    +0.000 A 
ATOM     31  C   UNL     1       2.442   6.212  19.189  0.00  0.00    +0.000 A 
ATOM     32  C   UNL     1       2.490   7.220  18.229  0.00  0.00    +0.000 A 
ATOM     33  C   UNL     1       1.976   8.486  18.516  0.00  0.00    +0.000 A 
ENDBRANCH   8  28
TORSDOF 4
ENDMDL
MODEL 4
REMARK VINA RESULT:      -7.4      4.006      7.642
REMARK  Name = 
REMARK  5 active torsions:
REMARK  status: ('A' for Active; 'I' for Inactive)
REMARK    1  A    between atoms: C_1  and  C_2
REMARK    2  A    between atoms: C_4  and  O_5
REMARK    3  A    between atoms: C_8  and  N_9
REMARK    4  A    between atoms: N_13  and  C_14
REMARK    5  A    between atoms: N_22  and  C_23
REMARK                            x       y       z     vdW  Elec       q    Type
REMARK                         _______ _______ _______ _____ _____    ______ ____
ROOT
ATOM      1  N   UNL     1       2.697   8.916  18.068  0.00  0.00    +0.000 N 
ATOM      2  C   UNL     1       1.725   9.913  18.173  0.00  0.00    +0.000 A 
ATOM      3  N   UNL     1       2.120  11.175  18.164  0.00  0.00    +0.000 NA
ATOM      4  C   UNL     1       1.168  12.075  18.407  0.00  0.00    +0.000 A 
ATOM      5  N   UNL     1       1.503  13.419  18.623  0.00  0.00    +0.000 N 
ATOM      6  N   UNL     1      -0.122  11.783  18.500  0.00  0.00    +0.000 NA
ATOM      7  C   UNL     1      -0.434  10.504  18.430  0.00  0.00    +0.000 A 
ATOM      8  N   UNL     1      -1.760  10.093  18.544  0.00  0.00    +0.000 N 
ATOM      9  N   UNL     1       0.459   9.539  18.310  0.00  0.00    +0.000 NA
ATOM     10  H   UNL     1       3.488   9.199  17.514  0.00  0.00    +0.000 HD
ATOM     11  H   UNL     1       0.646  13.886  18.908  0.00  0.00    +0.000 HD
ATOM     12  H   UNL     1      -1.800   9.081  18.469  0.00  0.00    +0.000 HD
ENDROOT
BRANCH   1  19
ATOM     13  C   UNL     1       4.227   6.652  16.927  0.00  0.00    +0.000 C 
ATOM     14  C   UNL     1       3.366   6.550  18.156  0.00  0.00    +0.000 A 
ATOM     15  C   UNL     1       3.191   5.281  18.748  0.00  0.00    +0.000 A 
ATOM     16  C   UNL     1       2.419   5.133  19.897  0.00  0.00    +0.000 A 
ATOM     17  C   UNL     1       1.828   6.230  20.492  0.00  0.00    +0.000 A 
ATOM     18  C   UNL     1       1.976   7.481  19.902  0.00  0.00    +0.000 A 
ATOM     19  C   UNL     1       2.714   7.665  18.714  0.00  0.00    +0.000 A 
BRANCH  16  20
ATOM     20  O   UNL     1       2.221   3.920  20.478  0.00  0.00    +0.000 OA
ATOM     21  H   UNL     1       1.813   4.057  21.349  0.00  0.00    +0.000 HD
ENDBRANCH  16  20
ENDBRANCH   1  19
BRANCH   5  22
ATOM     22  C   UNL     1       2.613  13.878  19.369  0.00  0.00    +0.000 A 
ATOM     23  C   UNL     1       3.626  14.581  18.709  0.00  0.00    +0.000 A 
ATOM     24  C   UNL     1       4.755  15.027  19.402  0.00  0.00    +0.000 A 
ATOM     25  C   UNL     1       4.863  14.811  20.773  0.00  0.00    +0.000 A 
ATOM     26  C   UNL     1       3.832  14.173  21.456  0.00  0.00    +0.000 A 
ATOM     27  C   UNL     1       2.710  13.719  20.759  0.00  0.00    +0.000 A 
ENDBRANCH   5  22
BRANCH   8  28
ATOM     28  C   UNL     1      -2.897  10.754  18.059  0.00  0.00    +0.000 A 
ATOM     29  C   UNL     1      -3.729  11.523  18.878  0.00  0.00    +0.000 A 
ATOM     30  C   UNL     1      -4.864  12.146  18.366  0.00  0.00    +0.000 A 
ATOM     31  C   UNL     1      -5.186  12.002  17.018  0.00  0.00    +0.000 A 
ATOM     32  C   UNL     1      -4.365  11.244  16.186  0.00  0.00    +0.000 A 
ATOM     33  C   UNL     1      -3.220  10.633  16.699  0.00  0.00    +0.000 A 
ENDBRANCH   8  28
TORSDOF 4
ENDMDL
MODEL 5
REMARK VINA RESULT:      -7.4      2.918      6.574
REMARK  Name = 
REMARK  5 active torsions:
REMARK  status: ('A' for Active; 'I' for Inactive)
REMARK    1  A    between atoms: C_1  and  C_2
REMARK    2  A    between atoms: C_4  and  O_5
REMARK    3  A    between atoms: C_8  and  N_9
REMARK    4  A    between atoms: N_13  and  C_14
REMARK    5  A    between atoms: N_22  and  C_23
REMARK                            x       y       z     vdW  Elec       q    Type
REMARK                         _______ _______ _______ _____ _____    ______ ____
ROOT
ATOM      1  N   UNL     1       2.241  13.572  20.322  0.00  0.00    +0.000 N 
ATOM      2  C   UNL     1       1.078  12.799  20.332  0.00  0.00    +0.000 A 
ATOM      3  N   UNL     1       1.194  11.497  20.533  0.00  0.00    +0.000 NA
ATOM      4  C   UNL     1       0.071  10.793  20.393  0.00  0.00    +0.000 A 
ATOM      5  N   UNL     1       0.111   9.392  20.381  0.00  0.00    +0.000 N 
ATOM      6  N   UNL     1      -1.127  11.335  20.224  0.00  0.00    +0.000 NA
ATOM      7  C   UNL     1      -1.158  12.648  20.102  0.00  0.00    +0.000 A 
ATOM      8  N   UNL     1      -2.366  13.310  19.893  0.00  0.00    +0.000 N 
ATOM      9  N   UNL     1      -0.080  13.408  20.108  0.00  0.00    +0.000 NA
ATOM     10  H   UNL     1       2.954  13.211  20.933  0.00  0.00    +0.000 HD
ATOM     11  H   UNL     1      -0.828   9.081  20.142  0.00  0.00    +0.000 HD
ATOM     12  H   UNL     1      -2.189  14.306  19.822  0.00  0.00    +0.000 HD
ENDROOT
BRANCH   1  19
ATOM     13  C   UNL     1       1.653  16.318  21.260  0.00  0.00    +0.000 C 
ATOM     14  C   UNL     1       2.183  15.993  19.890  0.00  0.00    +0.000 A 
ATOM     15  C   UNL     1       2.315  17.042  18.956  0.00  0.00    +0.000 A 
ATOM     16  C   UNL     1       2.816  16.800  17.680  0.00  0.00    +0.000 A 
ATOM     17  C   UNL     1       3.216  15.531  17.312  0.00  0.00    +0.000 A 
ATOM     18  C   UNL     1       3.068  14.486  18.219  0.00  0.00    +0.000 A 
ATOM     19  C   UNL     1       2.523  14.683  19.505  0.00  0.00    +0.000 A 
BRANCH  16  20
ATOM     20  O   UNL     1       2.939  17.790  16.757  0.00  0.00    +0.000 OA
ATOM     21  H   UNL     1       2.066  17.956  16.363  0.00  0.00    +0.000 HD
ENDBRANCH  16  20
ENDBRANCH   1  19
BRANCH   5  22
ATOM     22  C   UNL     1       1.094   8.605  19.739  0.00  0.00    +0.000 A 
ATOM     23  C   UNL     1       1.537   8.981  18.467  0.00  0.00    +0.000 A 
ATOM     24  C   UNL     1       2.486   8.215  17.785  0.00  0.00    +0.000 A 
ATOM     25  C   UNL     1       3.035   7.085  18.387  0.00  0.00    +0.000 A 
ATOM     26  C   UNL     1       2.654   6.737  19.679  0.00  0.00    +0.000 A 
ATOM     27  C   UNL     1       1.699   7.499  20.354  0.00  0.00    +0.000 A 
ENDBRANCH   5  22
BRANCH   8  28
ATOM     28  C   UNL     1      -3.616  12.982  20.436  0.00  0.00    +0.000 A 
ATOM     29  C   UNL     1      -4.661  12.462  19.664  0.00  0.00    +0.000 A 
ATOM     30  C   UNL     1      -5.898  12.172  20.233  0.00  0.00    +0.000 A 
ATOM     31  C   UNL     1      -6.109  12.403  21.590  0.00  0.00    +0.000 A 
ATOM     32  C   UNL     1      -5.078  12.914  22.376  0.00  0.00    +0.000 A 
ATOM     33  C   UNL     1      -3.835  13.192  21.806  0.00  0.00    +0.000 A 
ENDBRANCH   8  28
TORSDOF 4
ENDMDL
MODEL 6
REMARK VINA RESULT:      -7.3      2.927      6.520
REMARK  Name = 
REMARK  5 active torsions:
REMARK  status: ('A' for Active; 'I' for Inactive)
REMARK    1  A    between atoms: C_1  and  C_2
REMARK    2  A    between atoms: C_4  and  O_5
REMARK    3  A    between atoms: C_8  and  N_9
REMARK    4  A    between atoms: N_13  and  C_14
REMARK    5  A    between atoms: N_22  and  C_23
REMARK                            x       y       z     vdW  Elec       q    Type
REMARK                         _______ _______ _______ _____ _____    ______ ____
ROOT
ATOM      1  N   UNL     1       2.225  13.625  20.356  0.00  0.00    +0.000 N 
ATOM      2  C   UNL     1       1.057  12.860  20.385  0.00  0.00    +0.000 A 
ATOM      3  N   UNL     1       1.166  11.560  20.598  0.00  0.00    +0.000 NA
ATOM      4  C   UNL     1       0.037  10.862  20.476  0.00  0.00    +0.000 A 
ATOM      5  N   UNL     1       0.067   9.461  20.478  0.00  0.00    +0.000 N 
ATOM      6  N   UNL     1      -1.159  11.411  20.311  0.00  0.00    +0.000 NA
ATOM      7  C   UNL     1      -1.183  12.722  20.176  0.00  0.00    +0.000 A 
ATOM      8  N   UNL     1      -2.387  13.390  19.971  0.00  0.00    +0.000 N 
ATOM      9  N   UNL     1      -0.099  13.475  20.165  0.00  0.00    +0.000 NA
ATOM     10  H   UNL     1       2.941  13.266  20.965  0.00  0.00    +0.000 HD
ATOM     11  H   UNL     1      -0.876   9.154  20.250  0.00  0.00    +0.000 HD
ATOM     12  H   UNL     1      -2.204  14.385  19.889  0.00  0.00    +0.000 HD
ENDROOT
BRANCH   1  19
ATOM     13  C   UNL     1       1.683  16.386  21.279  0.00  0.00    +0.000 C 
ATOM     14  C   UNL     1       2.188  16.043  19.904  0.00  0.00    +0.000 A 
ATOM     15  C   UNL     1       2.317  17.083  18.959  0.00  0.00    +0.000 A 
ATOM     16  C   UNL     1       2.796  16.823  17.678  0.00  0.00    +0.000 A 
ATOM     17  C   UNL     1       3.176  15.547  17.315  0.00  0.00    +0.000 A 
ATOM     18  C   UNL     1       3.029  14.512  18.233  0.00  0.00    +0.000 A 
ATOM     19  C   UNL     1       2.507  14.726  19.525  0.00  0.00    +0.000 A 
BRANCH  16  20
ATOM     20  O   UNL     1       2.916  17.804  16.744  0.00  0.00    +0.000 OA
ATOM     21  H   UNL     1       2.752  17.419  15.867  0.00  0.00    +0.000 HD
ENDBRANCH  16  20
ENDBRANCH   1  19
BRANCH   5  22
ATOM     22  C   UNL     1       1.039   8.660  19.836  0.00  0.00    +0.000 A 
ATOM     23  C   UNL     1       1.506   7.513  20.486  0.00  0.00    +0.000 A 
ATOM     24  C   UNL     1       2.489   6.710  19.901  0.00  0.00    +0.000 A 
ATOM     25  C   UNL     1       2.986   7.022  18.638  0.00  0.00    +0.000 A 
ATOM     26  C   UNL     1       2.483   8.122  17.950  0.00  0.00    +0.000 A 
ATOM     27  C   UNL     1       1.508   8.929  18.542  0.00  0.00    +0.000 A 
ENDBRANCH   5  22
BRANCH   8  28
ATOM     28  C   UNL     1      -3.635  13.076  20.528  0.00  0.00    +0.000 A 
ATOM     29  C   UNL     1      -3.936  13.296  21.876  0.00  0.00    +0.000 A 
ATOM     30  C   UNL     1      -5.178  12.949  22.400  0.00  0.00    +0.000 A 
ATOM     31  C   UNL     1      -6.141  12.369  21.578  0.00  0.00    +0.000 A 
ATOM     32  C   UNL     1      -5.861  12.148  20.231  0.00  0.00    +0.000 A 
ATOM     33  C   UNL     1      -4.620  12.510  19.705  0.00  0.00    +0.000 A 
ENDBRANCH   8  28
TORSDOF 4
ENDMDL
MODEL 7
REMARK VINA RESULT:      -7.3      3.000      7.039
REMARK  Name = 
REMARK  5 active torsions:
REMARK  status: ('A' for Active; 'I' for Inactive)
REMARK    1  A    between atoms: C_1  and  C_2
REMARK    2  A    between atoms: C_4  and  O_5
REMARK    3  A    between atoms: C_8  and  N_9
REMARK    4  A    between atoms: N_13  and  C_14
REMARK    5  A    between atoms: N_22  and  C_23
REMARK                            x       y       z     vdW  Elec       q    Type
REMARK                         _______ _______ _______ _____ _____    ______ ____
ROOT
ATOM      1  N   UNL     1      -0.648  14.178  18.972  0.00  0.00    +0.000 N 
ATOM      2  C   UNL     1      -0.736  12.791  18.843  0.00  0.00    +0.000 A 
ATOM      3  N   UNL     1      -1.730  12.291  18.129  0.00  0.00    +0.000 NA
ATOM      4  C   UNL     1      -1.844  10.964  18.157  0.00  0.00    +0.000 A 
ATOM      5  N   UNL     1      -2.973  10.338  17.609  0.00  0.00    +0.000 N 
ATOM      6  N   UNL     1      -0.954  10.154  18.716  0.00  0.00    +0.000 NA
ATOM      7  C   UNL     1       0.044  10.738  19.349  0.00  0.00    +0.000 A 
ATOM      8  N   UNL     1       1.015   9.975  19.992  0.00  0.00    +0.000 N 
ATOM      9  N   UNL     1       0.166  12.046  19.471  0.00  0.00    +0.000 NA
ATOM     10  H   UNL     1      -0.992  14.668  18.163  0.00  0.00    +0.000 HD
ATOM     11  H   UNL     1      -2.901   9.354  17.852  0.00  0.00    +0.000 HD
ATOM     12  H   UNL     1       1.694  10.596  20.421  0.00  0.00    +0.000 HD
ENDROOT
BRANCH   1  19
ATOM     13  C   UNL     1       1.913  15.664  18.967  0.00  0.00    +0.000 C 
ATOM     14  C   UNL     1       1.005  15.560  20.161  0.00  0.00    +0.000 A 
ATOM     15  C   UNL     1       1.438  16.114  21.384  0.00  0.00    +0.000 A 
ATOM     16  C   UNL     1       0.629  16.060  22.516  0.00  0.00    +0.000 A 
ATOM     17  C   UNL     1      -0.623  15.483  22.457  0.00  0.00    +0.000 A 
ATOM     18  C   UNL     1      -1.049  14.914  21.261  0.00  0.00    +0.000 A 
ATOM     19  C   UNL     1      -0.241  14.909  20.105  0.00  0.00    +0.000 A 
BRANCH  16  20
ATOM     20  O   UNL     1       1.030  16.572  23.710  0.00  0.00    +0.000 OA
ATOM     21  H   UNL     1       1.382  15.849  24.255  0.00  0.00    +0.000 HD
ENDBRANCH  16  20
ENDBRANCH   1  19
BRANCH   5  22
ATOM     22  C   UNL     1      -4.303  10.803  17.721  0.00  0.00    +0.000 A 
ATOM     23  C   UNL     1      -5.151  10.204  18.659  0.00  0.00    +0.000 A 
ATOM     24  C   UNL     1      -6.482  10.612  18.783  0.00  0.00    +0.000 A 
ATOM     25  C   UNL     1      -6.969  11.654  17.997  0.00  0.00    +0.000 A 
ATOM     26  C   UNL     1      -6.119  12.304  17.107  0.00  0.00    +0.000 A 
ATOM     27  C   UNL     1      -4.792  11.887  16.979  0.00  0.00    +0.000 A 
ENDBRANCH   5  22
BRANCH   8  28
ATOM     28  C   UNL     1       1.543   8.746  19.571  0.00  0.00    +0.000 A 
ATOM     29  C   UNL     1       2.023   8.536  18.275  0.00  0.00    +0.000 A 
ATOM     30  C   UNL     1       2.518   7.294  17.885  0.00  0.00    +0.000 A 
ATOM     31  C   UNL     1       2.534   6.238  18.793  0.00  0.00    +0.000 A 
ATOM     32  C   UNL     1       2.065   6.431  20.090  0.00  0.00    +0.000 A 
ATOM     33  C   UNL     1       1.583   7.680  20.483  0.00  0.00    +0.000 A 
ENDBRANCH   8  28
TORSDOF 4
ENDMDL
MODEL 8
REMARK VINA RESULT:      -7.3      3.032      7.232
REMARK  Name = 
REMARK  5 active torsions:
REMARK  status: ('A' for Active; 'I' for Inactive)
REMARK    1  A    between atoms: C_1  and  C_2
REMARK    2  A    between atoms: C_4  and  O_5
REMARK    3  A    between atoms: C_8  and  N_9
REMARK    4  A    between atoms: N_13  and  C_14
REMARK    5  A    between atoms: N_22  and  C_23
REMARK                            x       y       z     vdW  Elec       q    Type
REMARK                         _______ _______ _______ _____ _____    ______ ____
ROOT
ATOM      1  N   UNL     1      -0.534  14.098  18.278  0.00  0.00    +0.000 N 
ATOM      2  C   UNL     1      -0.684  12.715  18.392  0.00  0.00    +0.000 A 
ATOM      3  N   UNL     1      -1.733  12.150  17.817  0.00  0.00    +0.000 NA
ATOM      4  C   UNL     1      -1.899  10.854  18.076  0.00  0.00    +0.000 A 
ATOM      5  N   UNL     1      -3.078  10.201  17.692  0.00  0.00    +0.000 N 
ATOM      6  N   UNL     1      -1.017  10.108  18.727  0.00  0.00    +0.000 NA
ATOM      7  C   UNL     1       0.035  10.742  19.208  0.00  0.00    +0.000 A 
ATOM      8  N   UNL     1       1.006  10.052  19.931  0.00  0.00    +0.000 N 
ATOM      9  N   UNL     1       0.216  12.044  19.099  0.00  0.00    +0.000 NA
ATOM     10  H   UNL     1      -0.898  14.460  17.412  0.00  0.00    +0.000 HD
ATOM     11  H   UNL     1      -3.035   9.269  18.096  0.00  0.00    +0.000 HD
ATOM     12  H   UNL     1       1.729  10.703  20.218  0.00  0.00    +0.000 HD
ENDROOT
BRANCH   1  19
ATOM     13  C   UNL     1      -2.121  14.708  20.702  0.00  0.00    +0.000 C 
ATOM     14  C   UNL     1      -0.806  15.359  20.373  0.00  0.00    +0.000 A 
ATOM     15  C   UNL     1      -0.342  16.395  21.211  0.00  0.00    +0.000 A 
ATOM     16  C   UNL     1       0.877  17.020  20.963  0.00  0.00    +0.000 A 
ATOM     17  C   UNL     1       1.667  16.621  19.903  0.00  0.00    +0.000 A 
ATOM     18  C   UNL     1       1.207  15.616  19.058  0.00  0.00    +0.000 A 
ATOM     19  C   UNL     1      -0.042  14.989  19.251  0.00  0.00    +0.000 A 
BRANCH  16  20
ATOM     20  O   UNL     1       1.338  18.031  21.746  0.00  0.00    +0.000 OA
ATOM     21  H   UNL     1       0.592  18.605  21.981  0.00  0.00    +0.000 HD
ENDBRANCH  16  20
ENDBRANCH   1  19
BRANCH   5  22
ATOM     22  C   UNL     1      -4.382  10.742  17.779  0.00  0.00    +0.000 A 
ATOM     23  C   UNL     1      -5.279  10.196  18.703  0.00  0.00    +0.000 A 
ATOM     24  C   UNL     1      -6.586  10.681  18.802  0.00  0.00    +0.000 A 
ATOM     25  C   UNL     1      -6.998  11.746  18.005  0.00  0.00    +0.000 A 
ATOM     26  C   UNL     1      -6.096  12.344  17.129  0.00  0.00    +0.000 A 
ATOM     27  C   UNL     1      -4.794  11.851  17.026  0.00  0.00    +0.000 A 
ENDBRANCH   5  22
BRANCH   8  28
ATOM     28  C   UNL     1       1.461   8.746  19.704  0.00  0.00    +0.000 A 
ATOM     29  C   UNL     1       1.407   7.748  20.683  0.00  0.00    +0.000 A 
ATOM     30  C   UNL     1       1.892   6.467  20.430  0.00  0.00    +0.000 A 
ATOM     31  C   UNL     1       2.445   6.168  19.187  0.00  0.00    +0.000 A 
ATOM     32  C   UNL     1       2.501   7.147  18.198  0.00  0.00    +0.000 A 
ATOM     33  C   UNL     1       2.002   8.426  18.450  0.00  0.00    +0.000 A 
ENDBRANCH   8  28
TORSDOF 4
ENDMDL
MODEL 9
REMARK VINA RESULT:      -7.2      3.021      7.210
REMARK  Name = 
REMARK  5 active torsions:
REMARK  status: ('A' for Active; 'I' for Inactive)
REMARK    1  A    between atoms: C_1  and  C_2
REMARK    2  A    between atoms: C_4  and  O_5
REMARK    3  A    between atoms: C_8  and  N_9
REMARK    4  A    between atoms: N_13  and  C_14
REMARK    5  A    between atoms: N_22  and  C_23
REMARK                            x       y       z     vdW  Elec       q    Type
REMARK                         _______ _______ _______ _____ _____    ______ ____
ROOT
ATOM      1  N   UNL     1      -0.591  14.156  18.491  0.00  0.00    +0.000 N 
ATOM      2  C   UNL     1      -0.713  12.766  18.534  0.00  0.00    +0.000 A 
ATOM      3  N   UNL     1      -1.746  12.210  17.925  0.00  0.00    +0.000 NA
ATOM      4  C   UNL     1      -1.887  10.899  18.117  0.00  0.00    +0.000 A 
ATOM      5  N   UNL     1      -3.050  10.242  17.693  0.00  0.00    +0.000 N 
ATOM      6  N   UNL     1      -0.992  10.140  18.735  0.00  0.00    +0.000 NA
ATOM      7  C   UNL     1       0.044  10.769  19.254  0.00  0.00    +0.000 A 
ATOM      8  N   UNL     1       1.025  10.064  19.946  0.00  0.00    +0.000 N 
ATOM      9  N   UNL     1       0.198  12.079  19.212  0.00  0.00    +0.000 NA
ATOM     10  H   UNL     1      -0.958  14.554  17.643  0.00  0.00    +0.000 HD
ATOM     11  H   UNL     1      -2.989   9.292  18.050  0.00  0.00    +0.000 HD
ATOM     12  H   UNL     1       1.734  10.714  20.270  0.00  0.00    +0.000 HD
ENDROOT
BRANCH   1  19
ATOM     13  C   UNL     1      -2.322  14.846  20.791  0.00  0.00    +0.000 C 
ATOM     14  C   UNL     1      -0.948  15.415  20.575  0.00  0.00    +0.000 A 
ATOM     15  C   UNL     1      -0.488  16.413  21.460  0.00  0.00    +0.000 A 
ATOM     16  C   UNL     1       0.784  16.961  21.315  0.00  0.00    +0.000 A 
ATOM     17  C   UNL     1       1.629  16.522  20.316  0.00  0.00    +0.000 A 
ATOM     18  C   UNL     1       1.175  15.555  19.425  0.00  0.00    +0.000 A 
ATOM     19  C   UNL     1      -0.122  15.007  19.511  0.00  0.00    +0.000 A 
BRANCH  16  20
ATOM     20  O   UNL     1       1.245  17.935  22.145  0.00  0.00    +0.000 OA
ATOM     21  H   UNL     1       2.014  17.592  22.628  0.00  0.00    +0.000 HD
ENDBRANCH  16  20
ENDBRANCH   1  19
BRANCH   5  22
ATOM     22  C   UNL     1      -4.365  10.751  17.800  0.00  0.00    +0.000 A 
ATOM     23  C   UNL     1      -4.745  11.818  16.980  0.00  0.00    +0.000 A 
ATOM     24  C   UNL     1      -6.026  12.371  17.073  0.00  0.00    +0.000 A 
ATOM     25  C   UNL     1      -6.955  11.834  17.961  0.00  0.00    +0.000 A 
ATOM     26  C   UNL     1      -6.613  10.729  18.736  0.00  0.00    +0.000 A 
ATOM     27  C   UNL     1      -5.329  10.185  18.646  0.00  0.00    +0.000 A 
ENDBRANCH   5  22
BRANCH   8  28
ATOM     28  C   UNL     1       1.509   8.780  19.656  0.00  0.00    +0.000 A 
ATOM     29  C   UNL     1       2.039   8.438  18.408  0.00  0.00    +0.000 A 
ATOM     30  C   UNL     1       2.488   7.146  18.149  0.00  0.00    +0.000 A 
ATOM     31  C   UNL     1       2.406   6.171  19.140  0.00  0.00    +0.000 A 
ATOM     32  C   UNL     1       1.887   6.495  20.391  0.00  0.00    +0.000 A 
ATOM     33  C   UNL     1       1.451   7.795  20.653  0.00  0.00    +0.000 A 
ENDBRANCH   8  28
TORSDOF 4
ENDMDL
