MODEL 1
REMARK VINA RESULT:      -7.0      0.000      0.000
REMARK  Name = 
REMARK  6 active torsions:
REMARK  status: ('A' for Active; 'I' for Inactive)
REMARK    1  A    between atoms: C_1  and  C_2
REMARK    2  A    between atoms: C_2  and  O_3
REMARK    3  A    between atoms: O_3  and  C_4
REMARK    4  A    between atoms: N_6  and  C_7
REMARK    5  A    between atoms: C_9  and  C_10
REMARK    6  A    between atoms: C_9  and  C_11
REMARK                            x       y       z     vdW  Elec       q    Type
REMARK                         _______ _______ _______ _____ _____    ______ ____
ROOT
ATOM      1  C   UNL     1       5.648   3.832  16.661  0.00  0.00    +0.000 C 
ATOM      2  C   UNL     1       6.474   4.605  17.684  0.00  0.00    +0.000 C 
ATOM      3  C   UNL     1       6.809   6.022  17.197  0.00  0.00    +0.000 C 
ATOM      4  C   UNL     1       5.584   6.938  17.024  0.00  0.00    +0.000 C 
ATOM      5  C   UNL     1       7.742   6.675  18.227  0.00  0.00    +0.000 C 
ATOM      6  O   UNL     1       7.540   5.974  15.957  0.00  0.00    +0.000 OA
ATOM      7  C   UNL     1       7.048   5.128  15.000  0.00  0.00    +0.000 A 
ATOM      8  C   UNL     1       7.527   5.329  13.704  0.00  0.00    +0.000 A 
ATOM      9  C   UNL     1       7.070   4.536  12.651  0.00  0.00    +0.000 A 
ATOM     10  C   UNL     1       6.136   3.534  12.900  0.00  0.00    +0.000 A 
ATOM     11 BR   UNL     1       5.499   2.467  11.477  0.00  0.00    +0.000 Br
ATOM     12  C   UNL     1       5.668   3.313  14.196  0.00  0.00    +0.000 A 
ATOM     13  C   UNL     1       6.132   4.104  15.260  0.00  0.00    +0.000 A 
ENDROOT
BRANCH   1  16
ATOM     14  C   UNL     1       3.341   3.270  17.310  0.00  0.00    +0.000 C 
ATOM     15  O   UNL     1       3.594   2.155  17.735  0.00  0.00    +0.000 OA
ATOM     16  N   UNL     1       4.241   4.137  16.783  0.00  0.00    +0.000 N 
ATOM     17  H   UNL     1       3.860   4.990  16.402  0.00  0.00    +0.000 HD
BRANCH  14  18
ATOM     18  O   UNL     1       2.110   3.822  17.204  0.00  0.00    +0.000 OA
BRANCH  18  20
ATOM     19  C   UNL     1       1.908   4.785  19.370  0.00  0.00    +0.000 C 
ATOM     20  C   UNL     1       1.320   3.778  18.398  0.00  0.00    +0.000 C 
ENDBRANCH  18  20
ENDBRANCH  14  18
ENDBRANCH   1  16
TORSDOF 3
ENDMDL
MODEL 2
REMARK VINA RESULT:      -6.8      2.729      5.299
REMARK  Name = 
REMARK  6 active torsions:
REMARK  status: ('A' for Active; 'I' for Inactive)
REMARK    1  A    between atoms: C_1  and  C_2
REMARK    2  A    between atoms: C_2  and  O_3
REMARK    3  A    between atoms: O_3  and  C_4
REMARK    4  A    between atoms: N_6  and  C_7
REMARK    5  A    between atoms: C_9  and  C_10
REMARK    6  A    between atoms: C_9  and  C_11
REMARK                            x       y       z     vdW  Elec       q    Type
REMARK                         _______ _______ _______ _____ _____    ______ ____
ROOT
ATOM      1  C   UNL     1       4.885   5.387  16.411  0.00  0.00    +0.000 C 
ATOM      2  C   UNL     1       6.005   6.363  16.753  0.00  0.00    +0.000 C 
ATOM      3  C   UNL     1       6.863   5.863  17.924  0.00  0.00    +0.000 C 
ATOM      4  C   UNL     1       7.650   4.574  17.628  0.00  0.00    +0.000 C 
ATOM      5  C   UNL     1       7.878   6.961  18.277  0.00  0.00    +0.000 C 
ATOM      6  O   UNL     1       6.055   5.664  19.099  0.00  0.00    +0.000 OA
ATOM      7  C   UNL     1       4.875   4.994  18.911  0.00  0.00    +0.000 A 
ATOM      8  C   UNL     1       4.266   4.496  20.064  0.00  0.00    +0.000 A 
ATOM      9  C   UNL     1       3.073   3.778  19.979  0.00  0.00    +0.000 A 
ATOM     10  C   UNL     1       2.487   3.563  18.735  0.00  0.00    +0.000 A 
ATOM     11 BR   UNL     1       0.881   2.576  18.609  0.00  0.00    +0.000 Br
ATOM     12  C   UNL     1       3.078   4.076  17.579  0.00  0.00    +0.000 A 
ATOM     13  C   UNL     1       4.275   4.806  17.662  0.00  0.00    +0.000 A 
ENDROOT
BRANCH   1  16
ATOM     14  C   UNL     1       6.158   4.566  14.471  0.00  0.00    +0.000 C 
ATOM     15  O   UNL     1       6.579   5.656  14.122  0.00  0.00    +0.000 OA
ATOM     16  N   UNL     1       5.351   4.336  15.537  0.00  0.00    +0.000 N 
ATOM     17  H   UNL     1       5.024   3.387  15.645  0.00  0.00    +0.000 HD
BRANCH  14  18
ATOM     18  O   UNL     1       6.341   3.396  13.818  0.00  0.00    +0.000 OA
BRANCH  18  20
ATOM     19  C   UNL     1       4.938   3.288  11.899  0.00  0.00    +0.000 C 
ATOM     20  C   UNL     1       6.361   3.492  12.389  0.00  0.00    +0.000 C 
ENDBRANCH  18  20
ENDBRANCH  14  18
ENDBRANCH   1  16
TORSDOF 3
ENDMDL
MODEL 3
REMARK VINA RESULT:      -6.7      3.708      5.584
REMARK  Name = 
REMARK  6 active torsions:
REMARK  status: ('A' for Active; 'I' for Inactive)
REMARK    1  A    between atoms: C_1  and  C_2
REMARK    2  A    between atoms: C_2  and  O_3
REMARK    3  A    between atoms: O_3  and  C_4
REMARK    4  A    between atoms: N_6  and  C_7
REMARK    5  A    between atoms: C_9  and  C_10
REMARK    6  A    between atoms: C_9  and  C_11
REMARK                            x       y       z     vdW  Elec       q    Type
REMARK                         _______ _______ _______ _____ _____    ______ ____
ROOT
ATOM      1  C   UNL     1       2.440   5.999  17.813  0.00  0.00    +0.000 C 
ATOM      2  C   UNL     1       1.535   4.774  17.891  0.00  0.00    +0.000 C 
ATOM      3  C   UNL     1       1.968   3.813  19.007  0.00  0.00    +0.000 C 
ATOM      4  C   UNL     1       1.839   4.391  20.428  0.00  0.00    +0.000 C 
ATOM      5  C   UNL     1       1.085   2.558  18.929  0.00  0.00    +0.000 C 
ATOM      6  O   UNL     1       3.323   3.370  18.800  0.00  0.00    +0.000 OA
ATOM      7  C   UNL     1       4.232   4.343  18.482  0.00  0.00    +0.000 A 
ATOM      8  C   UNL     1       5.575   3.991  18.621  0.00  0.00    +0.000 A 
ATOM      9  C   UNL     1       6.581   4.919  18.345  0.00  0.00    +0.000 A 
ATOM     10  C   UNL     1       6.237   6.200  17.922  0.00  0.00    +0.000 A 
ATOM     11 BR   UNL     1       7.591   7.468  17.563  0.00  0.00    +0.000 Br
ATOM     12  C   UNL     1       4.897   6.552  17.759  0.00  0.00    +0.000 A 
ATOM     13  C   UNL     1       3.882   5.619  18.028  0.00  0.00    +0.000 A 
ENDROOT
BRANCH   1  16
ATOM     14  C   UNL     1       1.934   8.327  18.434  0.00  0.00    +0.000 C 
ATOM     15  O   UNL     1       2.169   8.807  17.337  0.00  0.00    +0.000 OA
ATOM     16  N   UNL     1       2.033   7.014  18.758  0.00  0.00    +0.000 N 
ATOM     17  H   UNL     1       1.882   6.787  19.730  0.00  0.00    +0.000 HD
BRANCH  14  18
ATOM     18  O   UNL     1       1.614   9.016  19.553  0.00  0.00    +0.000 OA
BRANCH  18  20
ATOM     19  C   UNL     1       0.208   8.692  21.445  0.00  0.00    +0.000 C 
ATOM     20  C   UNL     1       1.465   8.221  20.734  0.00  0.00    +0.000 C 
ENDBRANCH  18  20
ENDBRANCH  14  18
ENDBRANCH   1  16
TORSDOF 3
ENDMDL
MODEL 4
REMARK VINA RESULT:      -6.7      3.057      6.057
REMARK  Name = 
REMARK  6 active torsions:
REMARK  status: ('A' for Active; 'I' for Inactive)
REMARK    1  A    between atoms: C_1  and  C_2
REMARK    2  A    between atoms: C_2  and  O_3
REMARK    3  A    between atoms: O_3  and  C_4
REMARK    4  A    between atoms: N_6  and  C_7
REMARK    5  A    between atoms: C_9  and  C_10
REMARK    6  A    between atoms: C_9  and  C_11
REMARK                            x       y       z     vdW  Elec       q    Type
REMARK                         _______ _______ _______ _____ _____    ______ ____
ROOT
ATOM      1  C   UNL     1       5.151   5.134  17.935  0.00  0.00    +0.000 C 
ATOM      2  C   UNL     1       5.508   3.912  18.775  0.00  0.00    +0.000 C 
ATOM      3  C   UNL     1       4.258   3.148  19.234  0.00  0.00    +0.000 C 
ATOM      4  C   UNL     1       3.445   2.516  18.090  0.00  0.00    +0.000 C 
ATOM      5  C   UNL     1       4.706   2.016  20.172  0.00  0.00    +0.000 C 
ATOM      6  O   UNL     1       3.396   4.001  20.010  0.00  0.00    +0.000 OA
ATOM      7  C   UNL     1       3.162   5.248  19.494  0.00  0.00    +0.000 A 
ATOM      8  C   UNL     1       2.078   5.939  20.039  0.00  0.00    +0.000 A 
ATOM      9  C   UNL     1       1.740   7.208  19.566  0.00  0.00    +0.000 A 
ATOM     10  C   UNL     1       2.495   7.788  18.550  0.00  0.00    +0.000 A 
ATOM     11 BR   UNL     1       2.035   9.497  17.892  0.00  0.00    +0.000 Br
ATOM     12  C   UNL     1       3.593   7.112  18.016  0.00  0.00    +0.000 A 
ATOM     13  C   UNL     1       3.941   5.838  18.494  0.00  0.00    +0.000 A 
ENDROOT
BRANCH   1  16
ATOM     14  C   UNL     1       5.955   4.611  15.668  0.00  0.00    +0.000 C 
ATOM     15  O   UNL     1       7.142   4.739  15.919  0.00  0.00    +0.000 OA
ATOM     16  N   UNL     1       4.940   4.777  16.552  0.00  0.00    +0.000 N 
ATOM     17  H   UNL     1       4.008   4.714  16.168  0.00  0.00    +0.000 HD
BRANCH  14  18
ATOM     18  O   UNL     1       5.421   4.365  14.450  0.00  0.00    +0.000 OA
BRANCH  18  20
ATOM     19  C   UNL     1       5.533   3.309  12.321  0.00  0.00    +0.000 C 
ATOM     20  C   UNL     1       6.345   3.887  13.466  0.00  0.00    +0.000 C 
ENDBRANCH  18  20
ENDBRANCH  14  18
ENDBRANCH   1  16
TORSDOF 3
ENDMDL
MODEL 5
REMARK VINA RESULT:      -6.7      3.088      5.693
REMARK  Name = 
REMARK  6 active torsions:
REMARK  status: ('A' for Active; 'I' for Inactive)
REMARK    1  A    between atoms: C_1  and  C_2
REMARK    2  A    between atoms: C_2  and  O_3
REMARK    3  A    between atoms: O_3  and  C_4
REMARK    4  A    between atoms: N_6  and  C_7
REMARK    5  A    between atoms: C_9  and  C_10
REMARK    6  A    between atoms: C_9  and  C_11
REMARK                            x       y       z     vdW  Elec       q    Type
REMARK                         _______ _______ _______ _____ _____    ______ ____
ROOT
ATOM      1  C   UNL     1       6.422   4.338  17.621  0.00  0.00    +0.000 C 
ATOM      2  C   UNL     1       6.742   3.946  16.183  0.00  0.00    +0.000 C 
ATOM      3  C   UNL     1       5.690   4.475  15.198  0.00  0.00    +0.000 C 
ATOM      4  C   UNL     1       5.629   6.010  15.099  0.00  0.00    +0.000 C 
ATOM      5  C   UNL     1       6.022   3.928  13.801  0.00  0.00    +0.000 C 
ATOM      6  O   UNL     1       4.382   3.972  15.531  0.00  0.00    +0.000 OA
ATOM      7  C   UNL     1       4.031   4.038  16.853  0.00  0.00    +0.000 A 
ATOM      8  C   UNL     1       2.671   3.886  17.131  0.00  0.00    +0.000 A 
ATOM      9  C   UNL     1       2.206   3.961  18.444  0.00  0.00    +0.000 A 
ATOM     10  C   UNL     1       3.108   4.183  19.482  0.00  0.00    +0.000 A 
ATOM     11 BR   UNL     1       2.484   4.304  21.260  0.00  0.00    +0.000 Br
ATOM     12  C   UNL     1       4.471   4.315  19.214  0.00  0.00    +0.000 A 
ATOM     13  C   UNL     1       4.944   4.232  17.894  0.00  0.00    +0.000 A 
ENDROOT
BRANCH   1  16
ATOM     14  C   UNL     1       7.831   5.918  18.878  0.00  0.00    +0.000 C 
ATOM     15  O   UNL     1       8.365   5.081  19.586  0.00  0.00    +0.000 OA
ATOM     16  N   UNL     1       6.902   5.667  17.922  0.00  0.00    +0.000 N 
ATOM     17  H   UNL     1       6.498   6.478  17.477  0.00  0.00    +0.000 HD
BRANCH  14  18
ATOM     18  O   UNL     1       7.998   7.258  18.965  0.00  0.00    +0.000 OA
BRANCH  18  20
ATOM     19  C   UNL     1       8.294   9.397  17.967  0.00  0.00    +0.000 C 
ATOM     20  C   UNL     1       7.819   7.973  17.737  0.00  0.00    +0.000 C 
ENDBRANCH  18  20
ENDBRANCH  14  18
ENDBRANCH   1  16
TORSDOF 3
ENDMDL
MODEL 6
REMARK VINA RESULT:      -6.6      3.451      5.290
REMARK  Name = 
REMARK  6 active torsions:
REMARK  status: ('A' for Active; 'I' for Inactive)
REMARK    1  A    between atoms: C_1  and  C_2
REMARK    2  A    between atoms: C_2  and  O_3
REMARK    3  A    between atoms: O_3  and  C_4
REMARK    4  A    between atoms: N_6  and  C_7
REMARK    5  A    between atoms: C_9  and  C_10
REMARK    6  A    between atoms: C_9  and  C_11
REMARK                            x       y       z     vdW  Elec       q    Type
REMARK                         _______ _______ _______ _____ _____    ______ ____
ROOT
ATOM      1  C   UNL     1       2.971   5.930  17.925  0.00  0.00    +0.000 C 
ATOM      2  C   UNL     1       2.249   4.600  17.732  0.00  0.00    +0.000 C 
ATOM      3  C   UNL     1       2.956   3.453  18.467  0.00  0.00    +0.000 C 
ATOM      4  C   UNL     1       2.960   3.589  20.000  0.00  0.00    +0.000 C 
ATOM      5  C   UNL     1       2.237   2.142  18.114  0.00  0.00    +0.000 C 
ATOM      6  O   UNL     1       4.312   3.310  18.003  0.00  0.00    +0.000 OA
ATOM      7  C   UNL     1       5.036   4.468  17.894  0.00  0.00    +0.000 A 
ATOM      8  C   UNL     1       6.419   4.314  17.788  0.00  0.00    +0.000 A 
ATOM      9  C   UNL     1       7.248   5.433  17.695  0.00  0.00    +0.000 A 
ATOM     10  C   UNL     1       6.688   6.708  17.704  0.00  0.00    +0.000 A 
ATOM     11 BR   UNL     1       7.805   8.227  17.597  0.00  0.00    +0.000 Br
ATOM     12  C   UNL     1       5.305   6.868  17.788  0.00  0.00    +0.000 A 
ATOM     13  C   UNL     1       4.466   5.745  17.872  0.00  0.00    +0.000 A 
ENDROOT
BRANCH   1  16
ATOM     14  C   UNL     1       2.052   7.814  19.216  0.00  0.00    +0.000 C 
ATOM     15  O   UNL     1       1.848   8.540  18.257  0.00  0.00    +0.000 OA
ATOM     16  N   UNL     1       2.579   6.566  19.162  0.00  0.00    +0.000 N 
ATOM     17  H   UNL     1       2.760   6.125  20.052  0.00  0.00    +0.000 HD
BRANCH  14  18
ATOM     18  O   UNL     1       1.873   8.143  20.516  0.00  0.00    +0.000 OA
BRANCH  18  20
ATOM     19  C   UNL     1      -0.188   8.580  21.620  0.00  0.00    +0.000 C 
ATOM     20  C   UNL     1       0.909   9.174  20.755  0.00  0.00    +0.000 C 
ENDBRANCH  18  20
ENDBRANCH  14  18
ENDBRANCH   1  16
TORSDOF 3
ENDMDL
MODEL 7
REMARK VINA RESULT:      -6.3      1.112      1.201
REMARK  Name = 
REMARK  6 active torsions:
REMARK  status: ('A' for Active; 'I' for Inactive)
REMARK    1  A    between atoms: C_1  and  C_2
REMARK    2  A    between atoms: C_2  and  O_3
REMARK    3  A    between atoms: O_3  and  C_4
REMARK    4  A    between atoms: N_6  and  C_7
REMARK    5  A    between atoms: C_9  and  C_10
REMARK    6  A    between atoms: C_9  and  C_11
REMARK                            x       y       z     vdW  Elec       q    Type
REMARK                         _______ _______ _______ _____ _____    ______ ____
ROOT
ATOM      1  C   UNL     1       5.267   4.131  17.076  0.00  0.00    +0.000 C 
ATOM      2  C   UNL     1       6.267   4.563  18.143  0.00  0.00    +0.000 C 
ATOM      3  C   UNL     1       7.031   5.830  17.732  0.00  0.00    +0.000 C 
ATOM      4  C   UNL     1       6.151   7.085  17.600  0.00  0.00    +0.000 C 
ATOM      5  C   UNL     1       8.097   6.114  18.801  0.00  0.00    +0.000 C 
ATOM      6  O   UNL     1       7.740   5.618  16.497  0.00  0.00    +0.000 OA
ATOM      7  C   UNL     1       7.033   5.011  15.493  0.00  0.00    +0.000 A 
ATOM      8  C   UNL     1       7.579   5.116  14.213  0.00  0.00    +0.000 A 
ATOM      9  C   UNL     1       6.924   4.553  13.118  0.00  0.00    +0.000 A 
ATOM     10  C   UNL     1       5.722   3.877  13.308  0.00  0.00    +0.000 A 
ATOM     11 BR   UNL     1       4.819   3.126  11.828  0.00  0.00    +0.000 Br
ATOM     12  C   UNL     1       5.181   3.749  14.588  0.00  0.00    +0.000 A 
ATOM     13  C   UNL     1       5.841   4.308  15.694  0.00  0.00    +0.000 A 
ENDROOT
BRANCH   1  16
ATOM     14  C   UNL     1       2.994   4.412  17.979  0.00  0.00    +0.000 C 
ATOM     15  O   UNL     1       2.992   3.390  18.646  0.00  0.00    +0.000 OA
ATOM     16  N   UNL     1       4.019   4.847  17.205  0.00  0.00    +0.000 N 
ATOM     17  H   UNL     1       3.834   5.671  16.652  0.00  0.00    +0.000 HD
BRANCH  14  18
ATOM     18  O   UNL     1       1.952   5.259  17.817  0.00  0.00    +0.000 OA
BRANCH  18  20
ATOM     19  C   UNL     1       2.386   6.806  19.573  0.00  0.00    +0.000 C 
ATOM     20  C   UNL     1       2.244   6.638  18.070  0.00  0.00    +0.000 C 
ENDBRANCH  18  20
ENDBRANCH  14  18
ENDBRANCH   1  16
TORSDOF 3
ENDMDL
MODEL 8
REMARK VINA RESULT:      -5.9      2.842      5.432
REMARK  Name = 
REMARK  6 active torsions:
REMARK  status: ('A' for Active; 'I' for Inactive)
REMARK    1  A    between atoms: C_1  and  C_2
REMARK    2  A    between atoms: C_2  and  O_3
REMARK    3  A    between atoms: O_3  and  C_4
REMARK    4  A    between atoms: N_6  and  C_7
REMARK    5  A    between atoms: C_9  and  C_10
REMARK    6  A    between atoms: C_9  and  C_11
REMARK                            x       y       z     vdW  Elec       q    Type
REMARK                         _______ _______ _______ _____ _____    ______ ____
ROOT
ATOM      1  C   UNL     1       4.651   5.550  17.200  0.00  0.00    +0.000 C 
ATOM      2  C   UNL     1       5.872   6.330  17.676  0.00  0.00    +0.000 C 
ATOM      3  C   UNL     1       6.847   5.442  18.463  0.00  0.00    +0.000 C 
ATOM      4  C   UNL     1       7.495   4.321  17.631  0.00  0.00    +0.000 C 
ATOM      5  C   UNL     1       7.974   6.333  19.007  0.00  0.00    +0.000 C 
ATOM      6  O   UNL     1       6.196   4.863  19.609  0.00  0.00    +0.000 OA
ATOM      7  C   UNL     1       4.959   4.319  19.388  0.00  0.00    +0.000 A 
ATOM      8  C   UNL     1       4.482   3.465  20.384  0.00  0.00    +0.000 A 
ATOM      9  C   UNL     1       3.242   2.840  20.244  0.00  0.00    +0.000 A 
ATOM     10  C   UNL     1       2.476   3.078  19.106  0.00  0.00    +0.000 A 
ATOM     11 BR   UNL     1       0.805   2.223  18.900  0.00  0.00    +0.000 Br
ATOM     12  C   UNL     1       2.937   3.948  18.116  0.00  0.00    +0.000 A 
ATOM     13  C   UNL     1       4.181   4.585  18.257  0.00  0.00    +0.000 A 
ENDROOT
BRANCH   1  16
ATOM     14  C   UNL     1       5.241   5.502  14.810  0.00  0.00    +0.000 C 
ATOM     15  O   UNL     1       5.340   6.710  14.677  0.00  0.00    +0.000 OA
ATOM     16  N   UNL     1       4.920   4.859  15.961  0.00  0.00    +0.000 N 
ATOM     17  H   UNL     1       4.799   3.859  15.888  0.00  0.00    +0.000 HD
BRANCH  14  18
ATOM     18  O   UNL     1       5.347   4.580  13.826  0.00  0.00    +0.000 OA
BRANCH  18  20
ATOM     19  C   UNL     1       6.682   3.524  12.163  0.00  0.00    +0.000 C 
ATOM     20  C   UNL     1       6.680   4.132  13.554  0.00  0.00    +0.000 C 
ENDBRANCH  18  20
ENDBRANCH  14  18
ENDBRANCH   1  16
TORSDOF 3
ENDMDL
MODEL 9
REMARK VINA RESULT:      -5.8      3.555      4.998
REMARK  Name = 
REMARK  6 active torsions:
REMARK  status: ('A' for Active; 'I' for Inactive)
REMARK    1  A    between atoms: C_1  and  C_2
REMARK    2  A    between atoms: C_2  and  O_3
REMARK    3  A    between atoms: O_3  and  C_4
REMARK    4  A    between atoms: N_6  and  C_7
REMARK    5  A    between atoms: C_9  and  C_10
REMARK    6  A    between atoms: C_9  and  C_11
REMARK                            x       y       z     vdW  Elec       q    Type
REMARK                         _______ _______ _______ _____ _____    ______ ____
ROOT
ATOM      1  C   UNL     1       4.295   6.092  18.416  0.00  0.00    +0.000 C 
ATOM      2  C   UNL     1       5.730   6.217  17.917  0.00  0.00    +0.000 C 
ATOM      3  C   UNL     1       5.942   5.474  16.590  0.00  0.00    +0.000 C 
ATOM      4  C   UNL     1       5.145   6.051  15.406  0.00  0.00    +0.000 C 
ATOM      5  C   UNL     1       7.434   5.548  16.232  0.00  0.00    +0.000 C 
ATOM      6  O   UNL     1       5.626   4.076  16.734  0.00  0.00    +0.000 OA
ATOM      7  C   UNL     1       4.457   3.787  17.386  0.00  0.00    +0.000 A 
ATOM      8  C   UNL     1       3.976   2.486  17.226  0.00  0.00    +0.000 A 
ATOM      9  C   UNL     1       2.779   2.097  17.830  0.00  0.00    +0.000 A 
ATOM     10  C   UNL     1       2.068   3.013  18.600  0.00  0.00    +0.000 A 
ATOM     11 BR   UNL     1       0.438   2.499  19.406  0.00  0.00    +0.000 Br
ATOM     12  C   UNL     1       2.553   4.308  18.782  0.00  0.00    +0.000 A 
ATOM     13  C   UNL     1       3.761   4.702  18.183  0.00  0.00    +0.000 A 
ENDROOT
BRANCH   1  16
ATOM     14  C   UNL     1       2.498   7.773  18.491  0.00  0.00    +0.000 C 
ATOM     15  O   UNL     1       2.264   7.659  19.683  0.00  0.00    +0.000 OA
ATOM     16  N   UNL     1       3.436   7.077  17.802  0.00  0.00    +0.000 N 
ATOM     17  H   UNL     1       3.452   7.229  16.804  0.00  0.00    +0.000 HD
BRANCH  14  18
ATOM     18  O   UNL     1       1.816   8.547  17.616  0.00  0.00    +0.000 OA
BRANCH  18  20
ATOM     19  C   UNL     1       0.055  10.016  18.250  0.00  0.00    +0.000 C 
ATOM     20  C   UNL     1       1.556   9.883  18.061  0.00  0.00    +0.000 C 
ENDBRANCH  18  20
ENDBRANCH  14  18
ENDBRANCH   1  16
TORSDOF 3
ENDMDL
