MODEL 1
REMARK VINA RESULT:      -6.5      0.000      0.000
REMARK  Name = 
REMARK  12 active torsions:
REMARK  status: ('A' for Active; 'I' for Inactive)
REMARK    1  A    between atoms: C_1  and  C_2
REMARK    2  A    between atoms: C_2  and  C_3
REMARK    3  A    between atoms: C_2  and  C_4
REMARK    4  A    between atoms: C_4  and  C_5
REMARK    5  A    between atoms: C_5  and  N_6
REMARK    6  A    between atoms: N_6  and  C_18
REMARK    7  A    between atoms: C_7  and  C_9
REMARK    8  A    between atoms: C_9  and  N_10
REMARK    9  A    between atoms: C_11  and  C_13
REMARK   10  A    between atoms: C_18  and  C_19
REMARK   11  A    between atoms: C_18  and  C_28
REMARK   12  A    between atoms: N_21  and  C_22
REMARK                            x       y       z     vdW  Elec       q    Type
REMARK                         _______ _______ _______ _____ _____    ______ ____
ROOT
ATOM      1  N   UNL     1       2.403   7.546  18.888  0.00  0.00    +0.000 N 
ATOM      2  C   UNL     1       2.155   8.618  18.011  0.00  0.00    +0.000 C 
ATOM      3  O   UNL     1       2.974   9.009  17.172  0.00  0.00    +0.000 OA
ENDROOT
BRANCH   1   4
ATOM      4  C   UNL     1       3.624   6.712  18.752  0.00  0.00    +0.000 C 
BRANCH   4   5
ATOM      5  C   UNL     1       3.758   5.767  17.553  0.00  0.00    +0.000 C 
BRANCH   5   7
ATOM      6  C   UNL     1       6.089   5.419  18.369  0.00  0.00    +0.000 C 
ATOM      7  C   UNL     1       5.203   5.452  17.117  0.00  0.00    +0.000 C 
ATOM      8  C   UNL     1       5.334   4.130  16.362  0.00  0.00    +0.000 C 
ENDBRANCH   5   7
ENDBRANCH   4   5
ENDBRANCH   1   4
BRANCH   2   9
ATOM      9  C   UNL     1       0.837   9.404  18.112  0.00  0.00    +0.000 C 
BRANCH   9  10
ATOM     10  N   UNL     1       1.087  10.831  18.123  0.00  0.00    +0.000 N 
ATOM     11  C   UNL     1       0.438  11.639  19.023  0.00  0.00    +0.000 C 
ATOM     12  O   UNL     1      -0.396  11.192  19.807  0.00  0.00    +0.000 OA
ATOM     13  H   UNL     1       1.617  11.243  17.366  0.00  0.00    +0.000 HD
BRANCH  11  14
ATOM     14  C   UNL     1       0.824  13.043  18.992  0.00  0.00    +0.000 A 
ATOM     15  C   UNL     1       1.995  13.563  18.479  0.00  0.00    +0.000 A 
ATOM     16  C   UNL     1       2.049  14.984  18.578  0.00  0.00    +0.000 A 
ATOM     17  C   UNL     1       0.915  15.502  19.159  0.00  0.00    +0.000 A 
ATOM     18  S   UNL     1      -0.205  14.283  19.579  0.00  0.00    +0.000 S 
ENDBRANCH  11  14
ENDBRANCH   9  10
ENDBRANCH   2   9
BRANCH   1  19
ATOM     19  C   UNL     1       1.335   7.001  19.791  0.00  0.00    +0.000 C 
BRANCH  19  20
ATOM     20  C   UNL     1       0.993   7.923  20.957  0.00  0.00    +0.000 A 
ATOM     21  C   UNL     1      -0.328   8.028  21.418  0.00  0.00    +0.000 A 
ATOM     22  C   UNL     1      -0.616   8.857  22.497  0.00  0.00    +0.000 A 
ATOM     23  C   UNL     1       0.425   9.566  23.071  0.00  0.00    +0.000 A 
ATOM     24  N   UNL     1       1.704   9.505  22.645  0.00  0.00    +0.000 NA
ATOM     25  C   UNL     1       1.965   8.667  21.618  0.00  0.00    +0.000 A 
ENDBRANCH  19  20
BRANCH  19  26
ATOM     26  C   UNL     1       1.617   5.583  20.408  0.00  0.00    +0.000 C 
ATOM     27  O   UNL     1       2.089   5.426  21.532  0.00  0.00    +0.000 OA
ATOM     28  N   UNL     1       1.337   4.504  19.588  0.00  0.00    +0.000 N 
ATOM     29  H   UNL     1       0.954   4.668  18.664  0.00  0.00    +0.000 HD
BRANCH  28  30
ATOM     30  C   UNL     1       1.456   3.134  20.082  0.00  0.00    +0.000 C 
ATOM     31  C   UNL     1       1.128   2.134  18.972  0.00  0.00    +0.000 C 
ATOM     32  C   UNL     1       2.233   2.067  17.921  0.00  0.00    +0.000 C 
ATOM     33  C   UNL     1       3.570   1.699  18.553  0.00  0.00    +0.000 C 
ATOM     34  C   UNL     1       3.950   2.653  19.680  0.00  0.00    +0.000 C 
ATOM     35  C   UNL     1       2.831   2.827  20.706  0.00  0.00    +0.000 C 
ENDBRANCH  28  30
ENDBRANCH  19  26
ENDBRANCH   1  19
TORSDOF 10
ENDMDL
MODEL 2
REMARK VINA RESULT:      -6.4      2.575      5.445
REMARK  Name = 
REMARK  12 active torsions:
REMARK  status: ('A' for Active; 'I' for Inactive)
REMARK    1  A    between atoms: C_1  and  C_2
REMARK    2  A    between atoms: C_2  and  C_3
REMARK    3  A    between atoms: C_2  and  C_4
REMARK    4  A    between atoms: C_4  and  C_5
REMARK    5  A    between atoms: C_5  and  N_6
REMARK    6  A    between atoms: N_6  and  C_18
REMARK    7  A    between atoms: C_7  and  C_9
REMARK    8  A    between atoms: C_9  and  N_10
REMARK    9  A    between atoms: C_11  and  C_13
REMARK   10  A    between atoms: C_18  and  C_19
REMARK   11  A    between atoms: C_18  and  C_28
REMARK   12  A    between atoms: N_21  and  C_22
REMARK                            x       y       z     vdW  Elec       q    Type
REMARK                         _______ _______ _______ _____ _____    ______ ____
ROOT
ATOM      1  N   UNL     1       2.424   6.821  19.127  0.00  0.00    +0.000 N 
ATOM      2  C   UNL     1       2.069   8.169  19.309  0.00  0.00    +0.000 C 
ATOM      3  O   UNL     1       1.936   8.690  20.423  0.00  0.00    +0.000 OA
ENDROOT
BRANCH   1   4
ATOM      4  C   UNL     1       2.816   5.968  20.279  0.00  0.00    +0.000 C 
BRANCH   4   5
ATOM      5  C   UNL     1       1.752   5.112  20.974  0.00  0.00    +0.000 C 
BRANCH   5   7
ATOM      6  C   UNL     1       1.142   2.734  21.417  0.00  0.00    +0.000 C 
ATOM      7  C   UNL     1       2.256   3.777  21.560  0.00  0.00    +0.000 C 
ATOM      8  C   UNL     1       3.529   3.264  20.888  0.00  0.00    +0.000 C 
ENDBRANCH   5   7
ENDBRANCH   4   5
ENDBRANCH   1   4
BRANCH   2   9
ATOM      9  C   UNL     1       1.763   9.055  18.090  0.00  0.00    +0.000 C 
BRANCH   9  10
ATOM     10  N   UNL     1       0.343   9.318  17.987  0.00  0.00    +0.000 N 
ATOM     11  C   UNL     1      -0.178  10.498  18.459  0.00  0.00    +0.000 C 
ATOM     12  O   UNL     1       0.527  11.337  19.015  0.00  0.00    +0.000 OA
ATOM     13  H   UNL     1      -0.278   8.568  17.712  0.00  0.00    +0.000 HD
BRANCH  11  14
ATOM     14  C   UNL     1      -1.605  10.686  18.234  0.00  0.00    +0.000 A 
ATOM     15  C   UNL     1      -2.428   9.884  17.470  0.00  0.00    +0.000 A 
ATOM     16  C   UNL     1      -3.783  10.329  17.480  0.00  0.00    +0.000 A 
ATOM     17  C   UNL     1      -3.948  11.453  18.255  0.00  0.00    +0.000 A 
ATOM     18  S   UNL     1      -2.482  11.964  18.965  0.00  0.00    +0.000 S 
ENDBRANCH  11  14
ENDBRANCH   9  10
ENDBRANCH   2   9
BRANCH   1  19
ATOM     19  C   UNL     1       2.723   6.259  17.767  0.00  0.00    +0.000 C 
BRANCH  19  20
ATOM     20  C   UNL     1       2.601   4.741  17.694  0.00  0.00    +0.000 A 
ATOM     21  C   UNL     1       3.730   3.947  17.441  0.00  0.00    +0.000 A 
ATOM     22  C   UNL     1       3.603   2.563  17.401  0.00  0.00    +0.000 A 
ATOM     23  C   UNL     1       2.347   2.017  17.601  0.00  0.00    +0.000 A 
ATOM     24  N   UNL     1       1.235   2.747  17.829  0.00  0.00    +0.000 NA
ATOM     25  C   UNL     1       1.390   4.087  17.898  0.00  0.00    +0.000 A 
ENDBRANCH  19  20
BRANCH  19  26
ATOM     26  C   UNL     1       4.129   6.626  17.168  0.00  0.00    +0.000 C 
ATOM     27  O   UNL     1       4.270   7.125  16.053  0.00  0.00    +0.000 OA
ATOM     28  N   UNL     1       5.220   6.315  17.960  0.00  0.00    +0.000 N 
ATOM     29  H   UNL     1       5.070   5.899  18.871  0.00  0.00    +0.000 HD
BRANCH  28  30
ATOM     30  C   UNL     1       6.572   6.702  17.562  0.00  0.00    +0.000 C 
ATOM     31  C   UNL     1       7.512   6.680  18.769  0.00  0.00    +0.000 C 
ATOM     32  C   UNL     1       7.832   5.256  19.216  0.00  0.00    +0.000 C 
ATOM     33  C   UNL     1       8.450   4.449  18.080  0.00  0.00    +0.000 C 
ATOM     34  C   UNL     1       7.565   4.442  16.839  0.00  0.00    +0.000 C 
ATOM     35  C   UNL     1       7.138   5.847  16.413  0.00  0.00    +0.000 C 
ENDBRANCH  28  30
ENDBRANCH  19  26
ENDBRANCH   1  19
TORSDOF 10
ENDMDL
MODEL 3
REMARK VINA RESULT:      -6.4      3.133      8.523
REMARK  Name = 
REMARK  12 active torsions:
REMARK  status: ('A' for Active; 'I' for Inactive)
REMARK    1  A    between atoms: C_1  and  C_2
REMARK    2  A    between atoms: C_2  and  C_3
REMARK    3  A    between atoms: C_2  and  C_4
REMARK    4  A    between atoms: C_4  and  C_5
REMARK    5  A    between atoms: C_5  and  N_6
REMARK    6  A    between atoms: N_6  and  C_18
REMARK    7  A    between atoms: C_7  and  C_9
REMARK    8  A    between atoms: C_9  and  N_10
REMARK    9  A    between atoms: C_11  and  C_13
REMARK   10  A    between atoms: C_18  and  C_19
REMARK   11  A    between atoms: C_18  and  C_28
REMARK   12  A    between atoms: N_21  and  C_22
REMARK                            x       y       z     vdW  Elec       q    Type
REMARK                         _______ _______ _______ _____ _____    ______ ____
ROOT
ATOM      1  N   UNL     1       0.125  10.507  18.635  0.00  0.00    +0.000 N 
ATOM      2  C   UNL     1       0.878   9.440  18.113  0.00  0.00    +0.000 C 
ATOM      3  O   UNL     1       0.496   8.742  17.167  0.00  0.00    +0.000 OA
ENDROOT
BRANCH   1   4
ATOM      4  C   UNL     1      -1.124  10.961  17.972  0.00  0.00    +0.000 C 
BRANCH   4   5
ATOM      5  C   UNL     1      -2.413  10.157  18.170  0.00  0.00    +0.000 C 
BRANCH   5   7
ATOM      6  C   UNL     1      -4.240  11.504  17.136  0.00  0.00    +0.000 C 
ATOM      7  C   UNL     1      -3.417  10.217  17.001  0.00  0.00    +0.000 C 
ATOM      8  C   UNL     1      -2.749  10.178  15.627  0.00  0.00    +0.000 C 
ENDBRANCH   5   7
ENDBRANCH   4   5
ENDBRANCH   1   4
BRANCH   2   9
ATOM      9  C   UNL     1       2.218   9.053  18.762  0.00  0.00    +0.000 C 
BRANCH   9  10
ATOM     10  N   UNL     1       2.128   7.754  19.395  0.00  0.00    +0.000 N 
ATOM     11  C   UNL     1       2.812   6.683  18.874  0.00  0.00    +0.000 C 
ATOM     12  O   UNL     1       3.475   6.780  17.844  0.00  0.00    +0.000 OA
ATOM     13  H   UNL     1       1.441   7.608  20.122  0.00  0.00    +0.000 HD
BRANCH  11  14
ATOM     14  C   UNL     1       2.708   5.446  19.636  0.00  0.00    +0.000 A 
ATOM     15  C   UNL     1       1.854   5.201  20.692  0.00  0.00    +0.000 A 
ATOM     16  C   UNL     1       1.983   3.875  21.200  0.00  0.00    +0.000 A 
ATOM     17  C   UNL     1       2.930   3.152  20.512  0.00  0.00    +0.000 A 
ATOM     18  S   UNL     1       3.652   4.065  19.263  0.00  0.00    +0.000 S 
ENDBRANCH  11  14
ENDBRANCH   9  10
ENDBRANCH   2   9
BRANCH   1  19
ATOM     19  C   UNL     1       0.682  11.428  19.683  0.00  0.00    +0.000 C 
BRANCH  19  20
ATOM     20  C   UNL     1      -0.173  11.503  20.943  0.00  0.00    +0.000 A 
ATOM     21  C   UNL     1      -0.182  10.444  21.863  0.00  0.00    +0.000 A 
ATOM     22  C   UNL     1      -0.950  10.542  23.018  0.00  0.00    +0.000 A 
ATOM     23  C   UNL     1      -1.698  11.690  23.209  0.00  0.00    +0.000 A 
ATOM     24  N   UNL     1      -1.731  12.722  22.339  0.00  0.00    +0.000 NA
ATOM     25  C   UNL     1      -0.950  12.619  21.242  0.00  0.00    +0.000 A 
ENDBRANCH  19  20
BRANCH  19  26
ATOM     26  C   UNL     1       0.940  12.909  19.226  0.00  0.00    +0.000 C 
ATOM     27  O   UNL     1       0.117  13.566  18.591  0.00  0.00    +0.000 OA
ATOM     28  N   UNL     1       2.181  13.430  19.548  0.00  0.00    +0.000 N 
ATOM     29  H   UNL     1       2.839  12.860  20.067  0.00  0.00    +0.000 HD
BRANCH  28  30
ATOM     30  C   UNL     1       2.503  14.828  19.273  0.00  0.00    +0.000 C 
ATOM     31  C   UNL     1       3.254  15.447  20.453  0.00  0.00    +0.000 C 
ATOM     32  C   UNL     1       4.685  14.925  20.555  0.00  0.00    +0.000 C 
ATOM     33  C   UNL     1       5.459  15.192  19.269  0.00  0.00    +0.000 C 
ATOM     34  C   UNL     1       4.755  14.609  18.049  0.00  0.00    +0.000 C 
ATOM     35  C   UNL     1       3.287  15.027  17.962  0.00  0.00    +0.000 C 
ENDBRANCH  28  30
ENDBRANCH  19  26
ENDBRANCH   1  19
TORSDOF 10
ENDMDL
MODEL 4
REMARK VINA RESULT:      -6.4      3.135      8.555
REMARK  Name = 
REMARK  12 active torsions:
REMARK  status: ('A' for Active; 'I' for Inactive)
REMARK    1  A    between atoms: C_1  and  C_2
REMARK    2  A    between atoms: C_2  and  C_3
REMARK    3  A    between atoms: C_2  and  C_4
REMARK    4  A    between atoms: C_4  and  C_5
REMARK    5  A    between atoms: C_5  and  N_6
REMARK    6  A    between atoms: N_6  and  C_18
REMARK    7  A    between atoms: C_7  and  C_9
REMARK    8  A    between atoms: C_9  and  N_10
REMARK    9  A    between atoms: C_11  and  C_13
REMARK   10  A    between atoms: C_18  and  C_19
REMARK   11  A    between atoms: C_18  and  C_28
REMARK   12  A    between atoms: N_21  and  C_22
REMARK                            x       y       z     vdW  Elec       q    Type
REMARK                         _______ _______ _______ _____ _____    ______ ____
ROOT
ATOM      1  N   UNL     1       0.038  10.737  18.667  0.00  0.00    +0.000 N 
ATOM      2  C   UNL     1       0.743   9.701  18.029  0.00  0.00    +0.000 C 
ATOM      3  O   UNL     1       0.252   8.995  17.141  0.00  0.00    +0.000 OA
ENDROOT
BRANCH   1   4
ATOM      4  C   UNL     1      -1.310  11.150  18.198  0.00  0.00    +0.000 C 
BRANCH   4   5
ATOM      5  C   UNL     1      -2.463  10.141  18.250  0.00  0.00    +0.000 C 
BRANCH   5   7
ATOM      6  C   UNL     1      -4.292  11.457  17.181  0.00  0.00    +0.000 C 
ATOM      7  C   UNL     1      -3.437  10.190  17.056  0.00  0.00    +0.000 C 
ATOM      8  C   UNL     1      -2.735  10.177  15.700  0.00  0.00    +0.000 C 
ENDBRANCH   5   7
ENDBRANCH   4   5
ENDBRANCH   1   4
BRANCH   2   9
ATOM      9  C   UNL     1       2.176   9.359  18.471  0.00  0.00    +0.000 C 
BRANCH   9  10
ATOM     10  N   UNL     1       2.573   8.058  17.975  0.00  0.00    +0.000 N 
ATOM     11  C   UNL     1       2.506   6.957  18.792  0.00  0.00    +0.000 C 
ATOM     12  O   UNL     1       2.155   7.045  19.966  0.00  0.00    +0.000 OA
ATOM     13  H   UNL     1       3.045   7.996  17.082  0.00  0.00    +0.000 HD
BRANCH  11  14
ATOM     14  C   UNL     1       2.858   5.691  18.164  0.00  0.00    +0.000 A 
ATOM     15  C   UNL     1       2.021   4.612  17.964  0.00  0.00    +0.000 A 
ATOM     16  C   UNL     1       2.672   3.536  17.292  0.00  0.00    +0.000 A 
ATOM     17  C   UNL     1       3.983   3.832  16.998  0.00  0.00    +0.000 A 
ATOM     18  S   UNL     1       4.422   5.395  17.526  0.00  0.00    +0.000 S 
ENDBRANCH  11  14
ENDBRANCH   9  10
ENDBRANCH   2   9
BRANCH   1  19
ATOM     19  C   UNL     1       0.709  11.671  19.633  0.00  0.00    +0.000 C 
BRANCH  19  20
ATOM     20  C   UNL     1      -0.061  11.857  20.936  0.00  0.00    +0.000 A 
ATOM     21  C   UNL     1      -0.722  13.064  21.206  0.00  0.00    +0.000 A 
ATOM     22  C   UNL     1      -1.438  13.207  22.390  0.00  0.00    +0.000 A 
ATOM     23  C   UNL     1      -1.458  12.141  23.272  0.00  0.00    +0.000 A 
ATOM     24  N   UNL     1      -0.821  10.971  23.056  0.00  0.00    +0.000 NA
ATOM     25  C   UNL     1      -0.161  10.844  21.885  0.00  0.00    +0.000 A 
ENDBRANCH  19  20
BRANCH  19  26
ATOM     26  C   UNL     1       1.023  13.111  19.088  0.00  0.00    +0.000 C 
ATOM     27  O   UNL     1       0.247  13.736  18.367  0.00  0.00    +0.000 OA
ATOM     28  N   UNL     1       2.257  13.630  19.436  0.00  0.00    +0.000 N 
ATOM     29  H   UNL     1       2.877  13.086  20.026  0.00  0.00    +0.000 HD
BRANCH  28  30
ATOM     30  C   UNL     1       2.625  14.999  19.080  0.00  0.00    +0.000 C 
ATOM     31  C   UNL     1       3.305  15.695  20.261  0.00  0.00    +0.000 C 
ATOM     32  C   UNL     1       4.715  15.163  20.501  0.00  0.00    +0.000 C 
ATOM     33  C   UNL     1       5.580  15.321  19.256  0.00  0.00    +0.000 C 
ATOM     34  C   UNL     1       4.950  14.657  18.036  0.00  0.00    +0.000 C 
ATOM     35  C   UNL     1       3.500  15.088  17.816  0.00  0.00    +0.000 C 
ENDBRANCH  28  30
ENDBRANCH  19  26
ENDBRANCH   1  19
TORSDOF 10
ENDMDL
MODEL 5
REMARK VINA RESULT:      -6.4      4.829      8.597
REMARK  Name = 
REMARK  12 active torsions:
REMARK  status: ('A' for Active; 'I' for Inactive)
REMARK    1  A    between atoms: C_1  and  C_2
REMARK    2  A    between atoms: C_2  and  C_3
REMARK    3  A    between atoms: C_2  and  C_4
REMARK    4  A    between atoms: C_4  and  C_5
REMARK    5  A    between atoms: C_5  and  N_6
REMARK    6  A    between atoms: N_6  and  C_18
REMARK    7  A    between atoms: C_7  and  C_9
REMARK    8  A    between atoms: C_9  and  N_10
REMARK    9  A    between atoms: C_11  and  C_13
REMARK   10  A    between atoms: C_18  and  C_19
REMARK   11  A    between atoms: C_18  and  C_28
REMARK   12  A    between atoms: N_21  and  C_22
REMARK                            x       y       z     vdW  Elec       q    Type
REMARK                         _______ _______ _______ _____ _____    ______ ____
ROOT
ATOM      1  N   UNL     1       0.052  11.856  19.016  0.00  0.00    +0.000 N 
ATOM      2  C   UNL     1      -0.995  11.123  18.430  0.00  0.00    +0.000 C 
ATOM      3  O   UNL     1      -1.249   9.950  18.726  0.00  0.00    +0.000 OA
ENDROOT
BRANCH   1   4
ATOM      4  C   UNL     1       0.832  11.304  20.153  0.00  0.00    +0.000 C 
BRANCH   4   5
ATOM      5  C   UNL     1       0.159  11.156  21.522  0.00  0.00    +0.000 C 
BRANCH   5   7
ATOM      6  C   UNL     1       0.886   8.781  21.291  0.00  0.00    +0.000 C 
ATOM      7  C   UNL     1      -0.137   9.707  21.960  0.00  0.00    +0.000 C 
ATOM      8  C   UNL     1      -0.092   9.511  23.475  0.00  0.00    +0.000 C 
ENDBRANCH   5   7
ENDBRANCH   4   5
ENDBRANCH   1   4
BRANCH   2   9
ATOM      9  C   UNL     1      -1.850  11.756  17.319  0.00  0.00    +0.000 C 
BRANCH   9  10
ATOM     10  N   UNL     1      -3.176  12.074  17.805  0.00  0.00    +0.000 N 
ATOM     11  C   UNL     1      -4.285  11.585  17.160  0.00  0.00    +0.000 C 
ATOM     12  O   UNL     1      -4.190  10.909  16.138  0.00  0.00    +0.000 OA
ATOM     13  H   UNL     1      -3.281  12.781  18.521  0.00  0.00    +0.000 HD
BRANCH  11  14
ATOM     14  C   UNL     1      -5.562  11.907  17.782  0.00  0.00    +0.000 A 
ATOM     15  C   UNL     1      -6.131  11.271  18.867  0.00  0.00    +0.000 A 
ATOM     16  C   UNL     1      -7.377  11.852  19.246  0.00  0.00    +0.000 A 
ATOM     17  C   UNL     1      -7.714  12.915  18.440  0.00  0.00    +0.000 A 
ATOM     18  S   UNL     1      -6.537  13.209  17.239  0.00  0.00    +0.000 S 
ENDBRANCH  11  14
ENDBRANCH   9  10
ENDBRANCH   2   9
BRANCH   1  19
ATOM     19  C   UNL     1       0.239  13.321  18.744  0.00  0.00    +0.000 C 
BRANCH  19  20
ATOM     20  C   UNL     1       1.653  13.817  19.026  0.00  0.00    +0.000 A 
ATOM     21  C   UNL     1       2.627  13.806  18.015  0.00  0.00    +0.000 A 
ATOM     22  C   UNL     1       3.904  14.283  18.285  0.00  0.00    +0.000 A 
ATOM     23  C   UNL     1       4.172  14.744  19.562  0.00  0.00    +0.000 A 
ATOM     24  N   UNL     1       3.269  14.754  20.565  0.00  0.00    +0.000 NA
ATOM     25  C   UNL     1       2.026  14.318  20.270  0.00  0.00    +0.000 A 
ENDBRANCH  19  20
BRANCH  19  26
ATOM     26  C   UNL     1      -0.736  14.289  19.507  0.00  0.00    +0.000 C 
ATOM     27  O   UNL     1      -0.760  15.503  19.311  0.00  0.00    +0.000 OA
ATOM     28  N   UNL     1      -1.553  13.698  20.454  0.00  0.00    +0.000 N 
ATOM     29  H   UNL     1      -1.504  12.696  20.595  0.00  0.00    +0.000 HD
BRANCH  28  30
ATOM     30  C   UNL     1      -2.575  14.472  21.154  0.00  0.00    +0.000 C 
ATOM     31  C   UNL     1      -3.957  13.849  20.943  0.00  0.00    +0.000 C 
ATOM     32  C   UNL     1      -4.119  12.547  21.723  0.00  0.00    +0.000 C 
ATOM     33  C   UNL     1      -3.887  12.767  23.213  0.00  0.00    +0.000 C 
ATOM     34  C   UNL     1      -2.528  13.399  23.491  0.00  0.00    +0.000 C 
ATOM     35  C   UNL     1      -2.282  14.655  22.655  0.00  0.00    +0.000 C 
ENDBRANCH  28  30
ENDBRANCH  19  26
ENDBRANCH   1  19
TORSDOF 10
ENDMDL
MODEL 6
REMARK VINA RESULT:      -6.3      3.188      8.494
REMARK  Name = 
REMARK  12 active torsions:
REMARK  status: ('A' for Active; 'I' for Inactive)
REMARK    1  A    between atoms: C_1  and  C_2
REMARK    2  A    between atoms: C_2  and  C_3
REMARK    3  A    between atoms: C_2  and  C_4
REMARK    4  A    between atoms: C_4  and  C_5
REMARK    5  A    between atoms: C_5  and  N_6
REMARK    6  A    between atoms: N_6  and  C_18
REMARK    7  A    between atoms: C_7  and  C_9
REMARK    8  A    between atoms: C_9  and  N_10
REMARK    9  A    between atoms: C_11  and  C_13
REMARK   10  A    between atoms: C_18  and  C_19
REMARK   11  A    between atoms: C_18  and  C_28
REMARK   12  A    between atoms: N_21  and  C_22
REMARK                            x       y       z     vdW  Elec       q    Type
REMARK                         _______ _______ _______ _____ _____    ______ ____
ROOT
ATOM      1  N   UNL     1      -0.319  10.600  18.808  0.00  0.00    +0.000 N 
ATOM      2  C   UNL     1       0.457   9.755  17.994  0.00  0.00    +0.000 C 
ATOM      3  O   UNL     1      -0.025   9.032  17.114  0.00  0.00    +0.000 OA
ENDROOT
BRANCH   1   4
ATOM      4  C   UNL     1      -1.770  10.790  18.552  0.00  0.00    +0.000 C 
BRANCH   4   5
ATOM      5  C   UNL     1      -2.216  11.581  17.318  0.00  0.00    +0.000 C 
BRANCH   5   7
ATOM      6  C   UNL     1      -3.180   9.880  15.768  0.00  0.00    +0.000 C 
ATOM      7  C   UNL     1      -3.517  11.087  16.652  0.00  0.00    +0.000 C 
ATOM      8  C   UNL     1      -4.602  10.701  17.655  0.00  0.00    +0.000 C 
ENDBRANCH   5   7
ENDBRANCH   4   5
ENDBRANCH   1   4
BRANCH   2   9
ATOM      9  C   UNL     1       1.975   9.651  18.220  0.00  0.00    +0.000 C 
BRANCH   9  10
ATOM     10  N   UNL     1       2.479   8.373  17.763  0.00  0.00    +0.000 N 
ATOM     11  C   UNL     1       2.586   7.319  18.637  0.00  0.00    +0.000 C 
ATOM     12  O   UNL     1       2.305   7.438  19.827  0.00  0.00    +0.000 OA
ATOM     13  H   UNL     1       2.896   8.309  16.843  0.00  0.00    +0.000 HD
BRANCH  11  14
ATOM     14  C   UNL     1       3.033   6.063  18.049  0.00  0.00    +0.000 A 
ATOM     15  C   UNL     1       4.251   5.827  17.443  0.00  0.00    +0.000 A 
ATOM     16  C   UNL     1       4.384   4.479  16.998  0.00  0.00    +0.000 A 
ATOM     17  C   UNL     1       3.266   3.731  17.284  0.00  0.00    +0.000 A 
ATOM     18  S   UNL     1       2.068   4.647  18.083  0.00  0.00    +0.000 S 
ENDBRANCH  11  14
ENDBRANCH   9  10
ENDBRANCH   2   9
BRANCH   1  19
ATOM     19  C   UNL     1       0.311  11.572  19.763  0.00  0.00    +0.000 C 
BRANCH  19  20
ATOM     20  C   UNL     1      -0.530  11.834  21.008  0.00  0.00    +0.000 A 
ATOM     21  C   UNL     1      -0.601  10.879  22.033  0.00  0.00    +0.000 A 
ATOM     22  C   UNL     1      -1.354  11.145  23.171  0.00  0.00    +0.000 A 
ATOM     23  C   UNL     1      -2.025  12.353  23.241  0.00  0.00    +0.000 A 
ATOM     24  N   UNL     1      -1.996  13.289  22.269  0.00  0.00    +0.000 NA
ATOM     25  C   UNL     1      -1.230  13.023  21.190  0.00  0.00    +0.000 A 
ENDBRANCH  19  20
BRANCH  19  26
ATOM     26  C   UNL     1       0.677  12.979  19.165  0.00  0.00    +0.000 C 
ATOM     27  O   UNL     1      -0.021  13.552  18.330  0.00  0.00    +0.000 OA
ATOM     28  N   UNL     1       1.867  13.529  19.607  0.00  0.00    +0.000 N 
ATOM     29  H   UNL     1       2.422  13.028  20.291  0.00  0.00    +0.000 HD
BRANCH  28  30
ATOM     30  C   UNL     1       2.267  14.877  19.207  0.00  0.00    +0.000 C 
ATOM     31  C   UNL     1       2.960  15.595  20.366  0.00  0.00    +0.000 C 
ATOM     32  C   UNL     1       4.357  15.039  20.627  0.00  0.00    +0.000 C 
ATOM     33  C   UNL     1       5.229  15.135  19.380  0.00  0.00    +0.000 C 
ATOM     34  C   UNL     1       4.585  14.446  18.181  0.00  0.00    +0.000 C 
ATOM     35  C   UNL     1       3.146  14.903  17.943  0.00  0.00    +0.000 C 
ENDBRANCH  28  30
ENDBRANCH  19  26
ENDBRANCH   1  19
TORSDOF 10
ENDMDL
MODEL 7
REMARK VINA RESULT:      -6.3      4.978      8.543
REMARK  Name = 
REMARK  12 active torsions:
REMARK  status: ('A' for Active; 'I' for Inactive)
REMARK    1  A    between atoms: C_1  and  C_2
REMARK    2  A    between atoms: C_2  and  C_3
REMARK    3  A    between atoms: C_2  and  C_4
REMARK    4  A    between atoms: C_4  and  C_5
REMARK    5  A    between atoms: C_5  and  N_6
REMARK    6  A    between atoms: N_6  and  C_18
REMARK    7  A    between atoms: C_7  and  C_9
REMARK    8  A    between atoms: C_9  and  N_10
REMARK    9  A    between atoms: C_11  and  C_13
REMARK   10  A    between atoms: C_18  and  C_19
REMARK   11  A    between atoms: C_18  and  C_28
REMARK   12  A    between atoms: N_21  and  C_22
REMARK                            x       y       z     vdW  Elec       q    Type
REMARK                         _______ _______ _______ _____ _____    ______ ____
ROOT
ATOM      1  N   UNL     1      -0.377  11.218  19.120  0.00  0.00    +0.000 N 
ATOM      2  C   UNL     1      -1.284  10.766  18.145  0.00  0.00    +0.000 C 
ATOM      3  O   UNL     1      -1.375   9.582  17.802  0.00  0.00    +0.000 OA
ENDROOT
BRANCH   1   4
ATOM      4  C   UNL     1       0.432  10.260  19.917  0.00  0.00    +0.000 C 
BRANCH   4   5
ATOM      5  C   UNL     1      -0.278   9.158  20.711  0.00  0.00    +0.000 C 
BRANCH   5   7
ATOM      6  C   UNL     1       1.721   9.325  22.194  0.00  0.00    +0.000 C 
ATOM      7  C   UNL     1       0.236   8.944  22.149  0.00  0.00    +0.000 C 
ATOM      8  C   UNL     1      -0.532   9.752  23.193  0.00  0.00    +0.000 C 
ENDBRANCH   5   7
ENDBRANCH   4   5
ENDBRANCH   1   4
BRANCH   2   9
ATOM      9  C   UNL     1      -2.180  11.773  17.403  0.00  0.00    +0.000 C 
BRANCH   9  10
ATOM     10  N   UNL     1      -3.391  12.036  18.152  0.00  0.00    +0.000 N 
ATOM     11  C   UNL     1      -4.595  11.542  17.715  0.00  0.00    +0.000 C 
ATOM     12  O   UNL     1      -4.690  10.908  16.666  0.00  0.00    +0.000 OA
ATOM     13  H   UNL     1      -3.366  12.712  18.904  0.00  0.00    +0.000 HD
BRANCH  11  14
ATOM     14  C   UNL     1      -5.732  11.806  18.587  0.00  0.00    +0.000 A 
ATOM     15  C   UNL     1      -6.602  10.870  19.108  0.00  0.00    +0.000 A 
ATOM     16  C   UNL     1      -7.591  11.457  19.951  0.00  0.00    +0.000 A 
ATOM     17  C   UNL     1      -7.439  12.821  20.048  0.00  0.00    +0.000 A 
ATOM     18  S   UNL     1      -6.114  13.386  19.132  0.00  0.00    +0.000 S 
ENDBRANCH  11  14
ENDBRANCH   9  10
ENDBRANCH   2   9
BRANCH   1  19
ATOM     19  C   UNL     1      -0.395  12.634  19.620  0.00  0.00    +0.000 C 
BRANCH  19  20
ATOM     20  C   UNL     1       0.810  13.454  19.172  0.00  0.00    +0.000 A 
ATOM     21  C   UNL     1       1.984  12.818  18.743  0.00  0.00    +0.000 A 
ATOM     22  C   UNL     1       3.065  13.583  18.317  0.00  0.00    +0.000 A 
ATOM     23  C   UNL     1       2.941  14.961  18.348  0.00  0.00    +0.000 A 
ATOM     24  N   UNL     1       1.835  15.609  18.770  0.00  0.00    +0.000 NA
ATOM     25  C   UNL     1       0.787  14.845  19.146  0.00  0.00    +0.000 A 
ENDBRANCH  19  20
BRANCH  19  26
ATOM     26  C   UNL     1      -0.503  12.809  21.179  0.00  0.00    +0.000 C 
ATOM     27  O   UNL     1       0.482  12.896  21.910  0.00  0.00    +0.000 OA
ATOM     28  N   UNL     1      -1.786  12.820  21.696  0.00  0.00    +0.000 N 
ATOM     29  H   UNL     1      -2.576  12.740  21.066  0.00  0.00    +0.000 HD
BRANCH  28  30
ATOM     30  C   UNL     1      -2.023  13.082  23.114  0.00  0.00    +0.000 C 
ATOM     31  C   UNL     1      -2.145  14.585  23.368  0.00  0.00    +0.000 C 
ATOM     32  C   UNL     1      -3.460  15.149  22.836  0.00  0.00    +0.000 C 
ATOM     33  C   UNL     1      -4.654  14.434  23.456  0.00  0.00    +0.000 C 
ATOM     34  C   UNL     1      -4.587  12.925  23.248  0.00  0.00    +0.000 C 
ATOM     35  C   UNL     1      -3.245  12.331  23.677  0.00  0.00    +0.000 C 
ENDBRANCH  28  30
ENDBRANCH  19  26
ENDBRANCH   1  19
TORSDOF 10
ENDMDL
MODEL 8
REMARK VINA RESULT:      -6.2      3.261      8.704
REMARK  Name = 
REMARK  12 active torsions:
REMARK  status: ('A' for Active; 'I' for Inactive)
REMARK    1  A    between atoms: C_1  and  C_2
REMARK    2  A    between atoms: C_2  and  C_3
REMARK    3  A    between atoms: C_2  and  C_4
REMARK    4  A    between atoms: C_4  and  C_5
REMARK    5  A    between atoms: C_5  and  N_6
REMARK    6  A    between atoms: N_6  and  C_18
REMARK    7  A    between atoms: C_7  and  C_9
REMARK    8  A    between atoms: C_9  and  N_10
REMARK    9  A    between atoms: C_11  and  C_13
REMARK   10  A    between atoms: C_18  and  C_19
REMARK   11  A    between atoms: C_18  and  C_28
REMARK   12  A    between atoms: N_21  and  C_22
REMARK                            x       y       z     vdW  Elec       q    Type
REMARK                         _______ _______ _______ _____ _____    ______ ____
ROOT
ATOM      1  N   UNL     1       0.045  11.497  18.882  0.00  0.00    +0.000 N 
ATOM      2  C   UNL     1       0.576  10.263  18.465  0.00  0.00    +0.000 C 
ATOM      3  O   UNL     1       0.054   9.563  17.590  0.00  0.00    +0.000 OA
ENDROOT
BRANCH   1   4
ATOM      4  C   UNL     1      -1.110  12.112  18.178  0.00  0.00    +0.000 C 
BRANCH   4   5
ATOM      5  C   UNL     1      -2.534  11.714  18.582  0.00  0.00    +0.000 C 
BRANCH   5   7
ATOM      6  C   UNL     1      -2.677  11.211  16.143  0.00  0.00    +0.000 C 
ATOM      7  C   UNL     1      -3.342  10.965  17.502  0.00  0.00    +0.000 C 
ATOM      8  C   UNL     1      -3.448   9.463  17.758  0.00  0.00    +0.000 C 
ENDBRANCH   5   7
ENDBRANCH   4   5
ENDBRANCH   1   4
BRANCH   2   9
ATOM      9  C   UNL     1       1.832   9.696  19.149  0.00  0.00    +0.000 C 
BRANCH   9  10
ATOM     10  N   UNL     1       1.655   8.296  19.472  0.00  0.00    +0.000 N 
ATOM     11  C   UNL     1       2.416   7.341  18.844  0.00  0.00    +0.000 C 
ATOM     12  O   UNL     1       3.227   7.634  17.970  0.00  0.00    +0.000 OA
ATOM     13  H   UNL     1       0.866   8.018  20.041  0.00  0.00    +0.000 HD
BRANCH  11  14
ATOM     14  C   UNL     1       2.205   5.974  19.303  0.00  0.00    +0.000 A 
ATOM     15  C   UNL     1       1.826   5.582  20.571  0.00  0.00    +0.000 A 
ATOM     16  C   UNL     1       1.679   4.169  20.682  0.00  0.00    +0.000 A 
ATOM     17  C   UNL     1       1.945   3.529  19.494  0.00  0.00    +0.000 A 
ATOM     18  S   UNL     1       2.368   4.626  18.256  0.00  0.00    +0.000 S 
ENDBRANCH  11  14
ENDBRANCH   9  10
ENDBRANCH   2   9
BRANCH   1  19
ATOM     19  C   UNL     1       0.781  12.392  19.837  0.00  0.00    +0.000 C 
BRANCH  19  20
ATOM     20  C   UNL     1       0.003  12.691  21.114  0.00  0.00    +0.000 A 
ATOM     21  C   UNL     1      -0.698  11.672  21.777  0.00  0.00    +0.000 A 
ATOM     22  C   UNL     1      -1.382  11.960  22.952  0.00  0.00    +0.000 A 
ATOM     23  C   UNL     1      -1.356  13.262  23.420  0.00  0.00    +0.000 A 
ATOM     24  N   UNL     1      -0.709  14.272  22.802  0.00  0.00    +0.000 NA
ATOM     25  C   UNL     1      -0.023  13.961  21.682  0.00  0.00    +0.000 A 
ENDBRANCH  19  20
BRANCH  19  26
ATOM     26  C   UNL     1       1.244  13.778  19.258  0.00  0.00    +0.000 C 
ATOM     27  O   UNL     1       0.472  14.565  18.713  0.00  0.00    +0.000 OA
ATOM     28  N   UNL     1       2.596  14.051  19.361  0.00  0.00    +0.000 N 
ATOM     29  H   UNL     1       3.206  13.378  19.811  0.00  0.00    +0.000 HD
BRANCH  28  30
ATOM     30  C   UNL     1       3.133  15.349  18.957  0.00  0.00    +0.000 C 
ATOM     31  C   UNL     1       3.930  15.978  20.102  0.00  0.00    +0.000 C 
ATOM     32  C   UNL     1       5.262  15.268  20.327  0.00  0.00    +0.000 C 
ATOM     33  C   UNL     1       6.109  15.275  19.059  0.00  0.00    +0.000 C 
ATOM     34  C   UNL     1       5.365  14.670  17.874  0.00  0.00    +0.000 C 
ATOM     35  C   UNL     1       3.980  15.285  17.672  0.00  0.00    +0.000 C 
ENDBRANCH  28  30
ENDBRANCH  19  26
ENDBRANCH   1  19
TORSDOF 10
ENDMDL
MODEL 9
REMARK VINA RESULT:      -6.2      3.297      8.789
REMARK  Name = 
REMARK  12 active torsions:
REMARK  status: ('A' for Active; 'I' for Inactive)
REMARK    1  A    between atoms: C_1  and  C_2
REMARK    2  A    between atoms: C_2  and  C_3
REMARK    3  A    between atoms: C_2  and  C_4
REMARK    4  A    between atoms: C_4  and  C_5
REMARK    5  A    between atoms: C_5  and  N_6
REMARK    6  A    between atoms: N_6  and  C_18
REMARK    7  A    between atoms: C_7  and  C_9
REMARK    8  A    between atoms: C_9  and  N_10
REMARK    9  A    between atoms: C_11  and  C_13
REMARK   10  A    between atoms: C_18  and  C_19
REMARK   11  A    between atoms: C_18  and  C_28
REMARK   12  A    between atoms: N_21  and  C_22
REMARK                            x       y       z     vdW  Elec       q    Type
REMARK                         _______ _______ _______ _____ _____    ______ ____
ROOT
ATOM      1  N   UNL     1      -0.096  11.464  18.834  0.00  0.00    +0.000 N 
ATOM      2  C   UNL     1       0.419  10.202  18.487  0.00  0.00    +0.000 C 
ATOM      3  O   UNL     1      -0.086   9.480  17.620  0.00  0.00    +0.000 OA
ENDROOT
BRANCH   1   4
ATOM      4  C   UNL     1      -1.205  12.079  18.060  0.00  0.00    +0.000 C 
BRANCH   4   5
ATOM      5  C   UNL     1      -2.653  11.810  18.483  0.00  0.00    +0.000 C 
BRANCH   5   7
ATOM      6  C   UNL     1      -3.472   9.681  17.472  0.00  0.00    +0.000 C 
ATOM      7  C   UNL     1      -3.560  11.210  17.389  0.00  0.00    +0.000 C 
ATOM      8  C   UNL     1      -5.020  11.646  17.506  0.00  0.00    +0.000 C 
ENDBRANCH   5   7
ENDBRANCH   4   5
ENDBRANCH   1   4
BRANCH   2   9
ATOM      9  C   UNL     1       1.631   9.632  19.243  0.00  0.00    +0.000 C 
BRANCH   9  10
ATOM     10  N   UNL     1       2.127   8.435  18.596  0.00  0.00    +0.000 N 
ATOM     11  C   UNL     1       2.234   7.262  19.301  0.00  0.00    +0.000 C 
ATOM     12  O   UNL     1       1.959   7.201  20.497  0.00  0.00    +0.000 OA
ATOM     13  H   UNL     1       2.539   8.509  17.675  0.00  0.00    +0.000 HD
BRANCH  11  14
ATOM     14  C   UNL     1       2.672   6.107  18.528  0.00  0.00    +0.000 A 
ATOM     15  C   UNL     1       1.946   4.959  18.283  0.00  0.00    +0.000 A 
ATOM     16  C   UNL     1       2.656   4.032  17.465  0.00  0.00    +0.000 A 
ATOM     17  C   UNL     1       3.898   4.505  17.110  0.00  0.00    +0.000 A 
ATOM     18  S   UNL     1       4.202   6.055  17.757  0.00  0.00    +0.000 S 
ENDBRANCH  11  14
ENDBRANCH   9  10
ENDBRANCH   2   9
BRANCH   1  19
ATOM     19  C   UNL     1       0.625  12.378  19.782  0.00  0.00    +0.000 C 
BRANCH  19  20
ATOM     20  C   UNL     1      -0.152  12.664  21.063  0.00  0.00    +0.000 A 
ATOM     21  C   UNL     1      -0.736  11.616  21.791  0.00  0.00    +0.000 A 
ATOM     22  C   UNL     1      -1.422  11.894  22.968  0.00  0.00    +0.000 A 
ATOM     23  C   UNL     1      -1.514  13.214  23.373  0.00  0.00    +0.000 A 
ATOM     24  N   UNL     1      -0.981  14.250  22.692  0.00  0.00    +0.000 NA
ATOM     25  C   UNL     1      -0.291  13.952  21.570  0.00  0.00    +0.000 A 
ENDBRANCH  19  20
BRANCH  19  26
ATOM     26  C   UNL     1       1.054  13.773  19.198  0.00  0.00    +0.000 C 
ATOM     27  O   UNL     1       0.269  14.526  18.623  0.00  0.00    +0.000 OA
ATOM     28  N   UNL     1       2.393  14.095  19.331  0.00  0.00    +0.000 N 
ATOM     29  H   UNL     1       3.014  13.449  19.804  0.00  0.00    +0.000 HD
BRANCH  28  30
ATOM     30  C   UNL     1       2.895  15.405  18.923  0.00  0.00    +0.000 C 
ATOM     31  C   UNL     1       3.709  16.041  20.052  0.00  0.00    +0.000 C 
ATOM     32  C   UNL     1       5.060  15.355  20.237  0.00  0.00    +0.000 C 
ATOM     33  C   UNL     1       5.873  15.388  18.948  0.00  0.00    +0.000 C 
ATOM     34  C   UNL     1       5.110  14.778  17.777  0.00  0.00    +0.000 C 
ATOM     35  C   UNL     1       3.709  15.367  17.616  0.00  0.00    +0.000 C 
ENDBRANCH  28  30
ENDBRANCH  19  26
ENDBRANCH   1  19
TORSDOF 10
ENDMDL
