MODEL 1
REMARK VINA RESULT:      -9.4      0.000      0.000
REMARK  Name = 
REMARK  6 active torsions:
REMARK  status: ('A' for Active; 'I' for Inactive)
REMARK    1  A    between atoms: C_2  and  C_22
REMARK    2  A    between atoms: N_3  and  C_4
REMARK    3  A    between atoms: C_4  and  C_5
REMARK    4  A    between atoms: C_5  and  C_6
REMARK    5  A    between atoms: C_6  and  C_7
REMARK    6  A    between atoms: C_7  and  N_8
REMARK                            x       y       z     vdW  Elec       q    Type
REMARK                         _______ _______ _______ _____ _____    ______ ____
ROOT
ATOM      1  C   UNL     1       6.451   5.536  19.332  0.00  0.00    +0.000 C 
ENDROOT
BRANCH   1   2
ATOM      2  C   UNL     1       7.763   5.792  18.589  0.00  0.00    +0.000 C 
BRANCH   2   5
ATOM      3  O   UNL     1       7.511   7.961  16.895  0.00  0.00    +0.000 OA
ATOM      4  C   UNL     1       8.078   8.139  17.992  0.00  0.00    +0.000 C 
ATOM      5  N   UNL     1       8.277   7.117  18.873  0.00  0.00    +0.000 N 
ATOM      6  H   UNL     1       8.572   7.316  19.819  0.00  0.00    +0.000 HD
BRANCH   4   7
ATOM      7  C   UNL     1       8.546   9.506  18.361  0.00  0.00    +0.000 A 
ATOM      8  C   UNL     1       8.185  10.518  17.458  0.00  0.00    +0.000 A 
ATOM      9  C   UNL     1       8.434  11.845  17.750  0.00  0.00    +0.000 A 
ATOM     10  C   UNL     1       9.166  12.165  18.879  0.00  0.00    +0.000 A 
ATOM     11  C   UNL     1       9.436  13.496  19.129  0.00  0.00    +0.000 A 
ATOM     12  C   UNL     1      10.789  13.728  19.219  0.00  0.00    +0.000 A 
ATOM     13  C   UNL     1      11.543  12.827  19.960  0.00  0.00    +0.000 A 
ATOM     14  C   UNL     1      10.981  11.583  20.305  0.00  0.00    +0.000 A 
ATOM     15  C   UNL     1       9.810  11.166  19.628  0.00  0.00    +0.000 A 
ATOM     16  C   UNL     1       9.363   9.828  19.465  0.00  0.00    +0.000 A 
ENDBRANCH   4   7
ENDBRANCH   2   5
ENDBRANCH   1   2
BRANCH   1  17
ATOM     17  C   UNL     1       5.592   4.448  18.678  0.00  0.00    +0.000 C 
BRANCH  17  18
ATOM     18  C   UNL     1       4.300   5.013  18.068  0.00  0.00    +0.000 C 
BRANCH  18  19
ATOM     19  N   UNL     1       3.686   6.101  18.842  0.00  0.00    +0.000 NA
ATOM     20  C   UNL     1       2.639   5.554  19.717  0.00  0.00    +0.000 C 
ATOM     21  C   UNL     1       2.078   6.633  20.649  0.00  0.00    +0.000 C 
ATOM     22  C   UNL     1       1.757   7.930  19.944  0.00  0.00    +0.000 C 
ATOM     23  C   UNL     1       2.224   8.144  18.697  0.00  0.00    +0.000 C 
ATOM     24  C   UNL     1       1.929   9.388  17.904  0.00  0.00    +0.000 C 
ATOM     25  C   UNL     1       1.050  10.447  18.575  0.00  0.00    +0.000 C 
ATOM     26  C   UNL     1       0.559  10.129  19.961  0.00  0.00    +0.000 A 
ATOM     27  C   UNL     1      -0.264  11.069  20.605  0.00  0.00    +0.000 A 
ATOM     28  C   UNL     1      -0.738  10.857  21.894  0.00  0.00    +0.000 A 
ATOM     29  C   UNL     1      -0.382   9.696  22.559  0.00  0.00    +0.000 A 
ATOM     30  C   UNL     1       0.438   8.748  21.928  0.00  0.00    +0.000 A 
ATOM     31  C   UNL     1       0.909   8.947  20.622  0.00  0.00    +0.000 A 
ATOM     32  C   UNL     1       3.100   7.139  17.977  0.00  0.00    +0.000 C 
ENDBRANCH  18  19
ENDBRANCH  17  18
ENDBRANCH   1  17
TORSDOF 6
ENDMDL
MODEL 2
REMARK VINA RESULT:      -8.9      3.426     10.245
REMARK  Name = 
REMARK  6 active torsions:
REMARK  status: ('A' for Active; 'I' for Inactive)
REMARK    1  A    between atoms: C_2  and  C_22
REMARK    2  A    between atoms: N_3  and  C_4
REMARK    3  A    between atoms: C_4  and  C_5
REMARK    4  A    between atoms: C_5  and  C_6
REMARK    5  A    between atoms: C_6  and  C_7
REMARK    6  A    between atoms: C_7  and  N_8
REMARK                            x       y       z     vdW  Elec       q    Type
REMARK                         _______ _______ _______ _____ _____    ______ ____
ROOT
ATOM      1  C   UNL     1       8.211   7.664  18.042  0.00  0.00    +0.000 C 
ENDROOT
BRANCH   1   2
ATOM      2  C   UNL     1       7.213   7.019  17.078  0.00  0.00    +0.000 C 
BRANCH   2   5
ATOM      3  O   UNL     1       4.887   6.068  15.928  0.00  0.00    +0.000 OA
ATOM      4  C   UNL     1       5.071   5.849  17.142  0.00  0.00    +0.000 C 
ATOM      5  N   UNL     1       6.173   6.312  17.798  0.00  0.00    +0.000 N 
ATOM      6  H   UNL     1       6.387   5.974  18.726  0.00  0.00    +0.000 HD
BRANCH   4   7
ATOM      7  C   UNL     1       4.066   5.051  17.901  0.00  0.00    +0.000 A 
ATOM      8  C   UNL     1       2.745   5.517  17.805  0.00  0.00    +0.000 A 
ATOM      9  C   UNL     1       1.701   4.793  18.344  0.00  0.00    +0.000 A 
ATOM     10  C   UNL     1       1.975   3.668  19.102  0.00  0.00    +0.000 A 
ATOM     11  C   UNL     1       0.916   2.983  19.663  0.00  0.00    +0.000 A 
ATOM     12  C   UNL     1       1.039   2.897  21.031  0.00  0.00    +0.000 A 
ATOM     13  C   UNL     1       2.288   2.566  21.540  0.00  0.00    +0.000 A 
ATOM     14  C   UNL     1       3.415   2.648  20.699  0.00  0.00    +0.000 A 
ATOM     15  C   UNL     1       3.291   3.358  19.481  0.00  0.00    +0.000 A 
ATOM     16  C   UNL     1       4.348   3.954  18.743  0.00  0.00    +0.000 A 
ENDBRANCH   4   7
ENDBRANCH   2   5
ENDBRANCH   1   2
BRANCH   1  17
ATOM     17  C   UNL     1       8.140   9.195  18.044  0.00  0.00    +0.000 C 
BRANCH  17  18
ATOM     18  C   UNL     1       9.058   9.820  19.107  0.00  0.00    +0.000 C 
BRANCH  18  19
ATOM     19  N   UNL     1       9.319  11.255  18.917  0.00  0.00    +0.000 NA
ATOM     20  C   UNL     1      10.399  11.434  17.937  0.00  0.00    +0.000 C 
ATOM     21  C   UNL     1      10.599  12.916  17.600  0.00  0.00    +0.000 C 
ATOM     22  C   UNL     1      10.639  13.810  18.817  0.00  0.00    +0.000 C 
ATOM     23  C   UNL     1      10.230  13.331  20.010  0.00  0.00    +0.000 C 
ATOM     24  C   UNL     1      10.264  14.134  21.281  0.00  0.00    +0.000 C 
ATOM     25  C   UNL     1      10.797  15.567  21.184  0.00  0.00    +0.000 C 
ATOM     26  C   UNL     1      11.243  16.023  19.822  0.00  0.00    +0.000 A 
ATOM     27  C   UNL     1      11.753  17.326  19.694  0.00  0.00    +0.000 A 
ATOM     28  C   UNL     1      12.165  17.828  18.464  0.00  0.00    +0.000 A 
ATOM     29  C   UNL     1      12.061  17.024  17.341  0.00  0.00    +0.000 A 
ATOM     30  C   UNL     1      11.555  15.721  17.455  0.00  0.00    +0.000 A 
ATOM     31  C   UNL     1      11.151  15.201  18.693  0.00  0.00    +0.000 A 
ATOM     32  C   UNL     1       9.691  11.924  20.176  0.00  0.00    +0.000 C 
ENDBRANCH  18  19
ENDBRANCH  17  18
ENDBRANCH   1  17
TORSDOF 6
ENDMDL
MODEL 3
REMARK VINA RESULT:      -8.8      4.127     10.164
REMARK  Name = 
REMARK  6 active torsions:
REMARK  status: ('A' for Active; 'I' for Inactive)
REMARK    1  A    between atoms: C_2  and  C_22
REMARK    2  A    between atoms: N_3  and  C_4
REMARK    3  A    between atoms: C_4  and  C_5
REMARK    4  A    between atoms: C_5  and  C_6
REMARK    5  A    between atoms: C_6  and  C_7
REMARK    6  A    between atoms: C_7  and  N_8
REMARK                            x       y       z     vdW  Elec       q    Type
REMARK                         _______ _______ _______ _____ _____    ______ ____
ROOT
ATOM      1  C   UNL     1       7.889   8.457  17.298  0.00  0.00    +0.000 C 
ENDROOT
BRANCH   1   2
ATOM      2  C   UNL     1       7.992   7.248  18.229  0.00  0.00    +0.000 C 
BRANCH   2   5
ATOM      3  O   UNL     1       7.241   5.324  20.066  0.00  0.00    +0.000 OA
ATOM      4  C   UNL     1       6.535   5.468  19.048  0.00  0.00    +0.000 C 
ATOM      5  N   UNL     1       6.851   6.368  18.074  0.00  0.00    +0.000 N 
ATOM      6  H   UNL     1       6.177   6.592  17.355  0.00  0.00    +0.000 HD
BRANCH   4   7
ATOM      7  C   UNL     1       5.304   4.641  18.889  0.00  0.00    +0.000 A 
ATOM      8  C   UNL     1       4.723   4.685  17.613  0.00  0.00    +0.000 A 
ATOM      9  C   UNL     1       3.662   3.860  17.292  0.00  0.00    +0.000 A 
ATOM     10  C   UNL     1       3.084   3.084  18.280  0.00  0.00    +0.000 A 
ATOM     11  C   UNL     1       2.000   2.297  17.944  0.00  0.00    +0.000 A 
ATOM     12  C   UNL     1       0.902   2.596  18.717  0.00  0.00    +0.000 A 
ATOM     13  C   UNL     1       1.106   2.762  20.080  0.00  0.00    +0.000 A 
ATOM     14  C   UNL     1       2.418   2.937  20.561  0.00  0.00    +0.000 A 
ATOM     15  C   UNL     1       3.435   3.255  19.629  0.00  0.00    +0.000 A 
ATOM     16  C   UNL     1       4.661   3.914  19.914  0.00  0.00    +0.000 A 
ENDBRANCH   4   7
ENDBRANCH   2   5
ENDBRANCH   1   2
BRANCH   1  17
ATOM     17  C   UNL     1       8.153   9.788  18.010  0.00  0.00    +0.000 C 
BRANCH  17  18
ATOM     18  C   UNL     1       9.259   9.672  19.071  0.00  0.00    +0.000 C 
BRANCH  18  19
ATOM     19  N   UNL     1      10.011  10.914  19.304  0.00  0.00    +0.000 NA
ATOM     20  C   UNL     1       9.335  11.714  20.335  0.00  0.00    +0.000 C 
ATOM     21  C   UNL     1      10.168  12.944  20.714  0.00  0.00    +0.000 C 
ATOM     22  C   UNL     1      10.706  13.698  19.521  0.00  0.00    +0.000 C 
ATOM     23  C   UNL     1      10.676  13.123  18.301  0.00  0.00    +0.000 C 
ATOM     24  C   UNL     1      11.157  13.808  17.051  0.00  0.00    +0.000 C 
ATOM     25  C   UNL     1      11.703  15.231  17.204  0.00  0.00    +0.000 C 
ATOM     26  C   UNL     1      11.692  15.805  18.595  0.00  0.00    +0.000 A 
ATOM     27  C   UNL     1      12.170  17.114  18.774  0.00  0.00    +0.000 A 
ATOM     28  C   UNL     1      12.213  17.706  20.032  0.00  0.00    +0.000 A 
ATOM     29  C   UNL     1      11.782  16.981  21.131  0.00  0.00    +0.000 A 
ATOM     30  C   UNL     1      11.301  15.674  20.965  0.00  0.00    +0.000 A 
ATOM     31  C   UNL     1      11.240  15.075  19.699  0.00  0.00    +0.000 A 
ATOM     32  C   UNL     1      10.151  11.719  18.079  0.00  0.00    +0.000 C 
ENDBRANCH  18  19
ENDBRANCH  17  18
ENDBRANCH   1  17
TORSDOF 6
ENDMDL
MODEL 4
REMARK VINA RESULT:      -8.6      4.539      9.188
REMARK  Name = 
REMARK  6 active torsions:
REMARK  status: ('A' for Active; 'I' for Inactive)
REMARK    1  A    between atoms: C_2  and  C_22
REMARK    2  A    between atoms: N_3  and  C_4
REMARK    3  A    between atoms: C_4  and  C_5
REMARK    4  A    between atoms: C_5  and  C_6
REMARK    5  A    between atoms: C_6  and  C_7
REMARK    6  A    between atoms: C_7  and  N_8
REMARK                            x       y       z     vdW  Elec       q    Type
REMARK                         _______ _______ _______ _____ _____    ______ ____
ROOT
ATOM      1  C   UNL     1       1.469   5.309  20.166  0.00  0.00    +0.000 C 
ENDROOT
BRANCH   1   2
ATOM      2  C   UNL     1       2.261   6.603  20.362  0.00  0.00    +0.000 C 
BRANCH   2   5
ATOM      3  O   UNL     1       1.471   8.985  19.205  0.00  0.00    +0.000 OA
ATOM      4  C   UNL     1       1.089   8.745  20.368  0.00  0.00    +0.000 C 
ATOM      5  N   UNL     1       1.461   7.612  21.028  0.00  0.00    +0.000 N 
ATOM      6  H   UNL     1       1.000   7.354  21.890  0.00  0.00    +0.000 HD
BRANCH   4   7
ATOM      7  C   UNL     1       0.193   9.717  21.059  0.00  0.00    +0.000 A 
ATOM      8  C   UNL     1      -0.186   9.350  22.359  0.00  0.00    +0.000 A 
ATOM      9  C   UNL     1      -0.898  10.222  23.158  0.00  0.00    +0.000 A 
ATOM     10  C   UNL     1      -1.355  11.413  22.623  0.00  0.00    +0.000 A 
ATOM     11  C   UNL     1      -2.098  12.251  23.431  0.00  0.00    +0.000 A 
ATOM     12  C   UNL     1      -3.334  12.511  22.886  0.00  0.00    +0.000 A 
ATOM     13  C   UNL     1      -3.385  12.807  21.530  0.00  0.00    +0.000 A 
ATOM     14  C   UNL     1      -2.266  12.521  20.724  0.00  0.00    +0.000 A 
ATOM     15  C   UNL     1      -1.267  11.665  21.244  0.00  0.00    +0.000 A 
ATOM     16  C   UNL     1      -0.345  10.891  20.490  0.00  0.00    +0.000 A 
ENDBRANCH   4   7
ENDBRANCH   2   5
ENDBRANCH   1   2
BRANCH   1  17
ATOM     17  C   UNL     1       1.900   4.191  21.122  0.00  0.00    +0.000 C 
BRANCH  17  18
ATOM     18  C   UNL     1       3.028   3.326  20.538  0.00  0.00    +0.000 C 
BRANCH  18  19
ATOM     19  N   UNL     1       3.487   3.744  19.206  0.00  0.00    +0.000 NA
ATOM     20  C   UNL     1       3.470   2.591  18.294  0.00  0.00    +0.000 C 
ATOM     21  C   UNL     1       3.799   3.017  16.858  0.00  0.00    +0.000 C 
ATOM     22  C   UNL     1       4.994   3.935  16.761  0.00  0.00    +0.000 C 
ATOM     23  C   UNL     1       5.479   4.518  17.877  0.00  0.00    +0.000 C 
ATOM     24  C   UNL     1       6.684   5.419  17.884  0.00  0.00    +0.000 C 
ATOM     25  C   UNL     1       7.374   5.667  16.539  0.00  0.00    +0.000 C 
ATOM     26  C   UNL     1       6.780   4.973  15.344  0.00  0.00    +0.000 A 
ATOM     27  C   UNL     1       7.393   5.163  14.095  0.00  0.00    +0.000 A 
ATOM     28  C   UNL     1       6.890   4.573  12.941  0.00  0.00    +0.000 A 
ATOM     29  C   UNL     1       5.752   3.788  13.029  0.00  0.00    +0.000 A 
ATOM     30  C   UNL     1       5.130   3.589  14.270  0.00  0.00    +0.000 A 
ATOM     31  C   UNL     1       5.640   4.168  15.441  0.00  0.00    +0.000 A 
ATOM     32  C   UNL     1       4.844   4.316  19.238  0.00  0.00    +0.000 C 
ENDBRANCH  18  19
ENDBRANCH  17  18
ENDBRANCH   1  17
TORSDOF 6
ENDMDL
MODEL 5
REMARK VINA RESULT:      -8.5      1.086      1.828
REMARK  Name = 
REMARK  6 active torsions:
REMARK  status: ('A' for Active; 'I' for Inactive)
REMARK    1  A    between atoms: C_2  and  C_22
REMARK    2  A    between atoms: N_3  and  C_4
REMARK    3  A    between atoms: C_4  and  C_5
REMARK    4  A    between atoms: C_5  and  C_6
REMARK    5  A    between atoms: C_6  and  C_7
REMARK    6  A    between atoms: C_7  and  N_8
REMARK                            x       y       z     vdW  Elec       q    Type
REMARK                         _______ _______ _______ _____ _____    ______ ____
ROOT
ATOM      1  C   UNL     1       6.156   6.143  15.924  0.00  0.00    +0.000 C 
ENDROOT
BRANCH   1   2
ATOM      2  C   UNL     1       7.014   6.384  17.168  0.00  0.00    +0.000 C 
BRANCH   2   5
ATOM      3  O   UNL     1       8.705   7.402  19.102  0.00  0.00    +0.000 OA
ATOM      4  C   UNL     1       8.205   8.200  18.285  0.00  0.00    +0.000 C 
ATOM      5  N   UNL     1       7.333   7.790  17.320  0.00  0.00    +0.000 N 
ATOM      6  H   UNL     1       7.084   8.414  16.565  0.00  0.00    +0.000 HD
BRANCH   4   7
ATOM      7  C   UNL     1       8.573   9.644  18.352  0.00  0.00    +0.000 A 
ATOM      8  C   UNL     1       9.360  10.002  19.458  0.00  0.00    +0.000 A 
ATOM      9  C   UNL     1       9.885  11.275  19.566  0.00  0.00    +0.000 A 
ATOM     10  C   UNL     1       9.519  12.240  18.646  0.00  0.00    +0.000 A 
ATOM     11  C   UNL     1      10.026  13.516  18.798  0.00  0.00    +0.000 A 
ATOM     12  C   UNL     1       9.021  14.448  18.908  0.00  0.00    +0.000 A 
ATOM     13  C   UNL     1       7.953  14.343  18.027  0.00  0.00    +0.000 A 
ATOM     14  C   UNL     1       7.778  13.149  17.301  0.00  0.00    +0.000 A 
ATOM     15  C   UNL     1       8.491  12.000  17.719  0.00  0.00    +0.000 A 
ATOM     16  C   UNL     1       8.135  10.649  17.464  0.00  0.00    +0.000 A 
ENDBRANCH   4   7
ENDBRANCH   2   5
ENDBRANCH   1   2
BRANCH   1  17
ATOM     17  C   UNL     1       4.778   5.557  16.250  0.00  0.00    +0.000 C 
BRANCH  17  18
ATOM     18  C   UNL     1       4.642   5.176  17.732  0.00  0.00    +0.000 C 
BRANCH  18  19
ATOM     19  N   UNL     1       3.973   6.188  18.562  0.00  0.00    +0.000 NA
ATOM     20  C   UNL     1       3.010   5.533  19.458  0.00  0.00    +0.000 C 
ATOM     21  C   UNL     1       2.401   6.537  20.444  0.00  0.00    +0.000 C 
ATOM     22  C   UNL     1       1.949   7.823  19.791  0.00  0.00    +0.000 C 
ATOM     23  C   UNL     1       2.347   8.108  18.535  0.00  0.00    +0.000 C 
ATOM     24  C   UNL     1       1.922   9.346  17.792  0.00  0.00    +0.000 C 
ATOM     25  C   UNL     1       0.987  10.311  18.528  0.00  0.00    +0.000 C 
ATOM     26  C   UNL     1       0.580   9.916  19.921  0.00  0.00    +0.000 A 
ATOM     27  C   UNL     1      -0.290  10.767  20.623  0.00  0.00    +0.000 A 
ATOM     28  C   UNL     1      -0.694  10.482  21.923  0.00  0.00    +0.000 A 
ATOM     29  C   UNL     1      -0.219   9.335  22.538  0.00  0.00    +0.000 A 
ATOM     30  C   UNL     1       0.648   8.476  21.848  0.00  0.00    +0.000 A 
ATOM     31  C   UNL     1       1.049   8.748  20.532  0.00  0.00    +0.000 A 
ATOM     32  C   UNL     1       3.272   7.199  17.752  0.00  0.00    +0.000 C 
ENDBRANCH  18  19
ENDBRANCH  17  18
ENDBRANCH   1  17
TORSDOF 6
ENDMDL
MODEL 6
REMARK VINA RESULT:      -8.4      5.906     10.328
REMARK  Name = 
REMARK  6 active torsions:
REMARK  status: ('A' for Active; 'I' for Inactive)
REMARK    1  A    between atoms: C_2  and  C_22
REMARK    2  A    between atoms: N_3  and  C_4
REMARK    3  A    between atoms: C_4  and  C_5
REMARK    4  A    between atoms: C_5  and  C_6
REMARK    5  A    between atoms: C_6  and  C_7
REMARK    6  A    between atoms: C_7  and  N_8
REMARK                            x       y       z     vdW  Elec       q    Type
REMARK                         _______ _______ _______ _____ _____    ______ ____
ROOT
ATOM      1  C   UNL     1      -2.085  13.301  23.591  0.00  0.00    +0.000 C 
ENDROOT
BRANCH   1   2
ATOM      2  C   UNL     1      -3.400  13.394  22.815  0.00  0.00    +0.000 C 
BRANCH   2   5
ATOM      3  O   UNL     1      -5.495  13.053  21.045  0.00  0.00    +0.000 OA
ATOM      4  C   UNL     1      -4.352  12.725  20.669  0.00  0.00    +0.000 C 
ATOM      5  N   UNL     1      -3.268  12.826  21.489  0.00  0.00    +0.000 N 
ATOM      6  H   UNL     1      -2.336  12.727  21.109  0.00  0.00    +0.000 HD
BRANCH   4   7
ATOM      7  C   UNL     1      -4.157  12.216  19.281  0.00  0.00    +0.000 A 
ATOM      8  C   UNL     1      -5.336  12.075  18.531  0.00  0.00    +0.000 A 
ATOM      9  C   UNL     1      -5.284  11.747  17.191  0.00  0.00    +0.000 A 
ATOM     10  C   UNL     1      -4.067  11.422  16.619  0.00  0.00    +0.000 A 
ATOM     11  C   UNL     1      -4.046  11.059  15.286  0.00  0.00    +0.000 A 
ATOM     12  C   UNL     1      -3.503   9.807  15.114  0.00  0.00    +0.000 A 
ATOM     13  C   UNL     1      -2.345   9.510  15.821  0.00  0.00    +0.000 A 
ATOM     14  C   UNL     1      -1.965  10.340  16.893  0.00  0.00    +0.000 A 
ATOM     15  C   UNL     1      -2.922  11.244  17.412  0.00  0.00    +0.000 A 
ATOM     16  C   UNL     1      -2.931  11.803  18.718  0.00  0.00    +0.000 A 
ENDBRANCH   4   7
ENDBRANCH   2   5
ENDBRANCH   1   2
BRANCH   1  17
ATOM     17  C   UNL     1      -1.033  12.436  22.888  0.00  0.00    +0.000 C 
BRANCH  17  18
ATOM     18  C   UNL     1      -1.160  10.950  23.256  0.00  0.00    +0.000 C 
BRANCH  18  19
ATOM     19  N   UNL     1      -0.602  10.026  22.258  0.00  0.00    +0.000 NA
ATOM     20  C   UNL     1       0.477   9.235  22.867  0.00  0.00    +0.000 C 
ATOM     21  C   UNL     1       0.984   8.157  21.902  0.00  0.00    +0.000 C 
ATOM     22  C   UNL     1       1.231   8.668  20.503  0.00  0.00    +0.000 C 
ATOM     23  C   UNL     1       0.747   9.873  20.139  0.00  0.00    +0.000 C 
ATOM     24  C   UNL     1       0.970  10.480  18.780  0.00  0.00    +0.000 C 
ATOM     25  C   UNL     1       1.794   9.662  17.781  0.00  0.00    +0.000 C 
ATOM     26  C   UNL     1       2.308   8.334  18.267  0.00  0.00    +0.000 A 
ATOM     27  C   UNL     1       3.082   7.561  17.385  0.00  0.00    +0.000 A 
ATOM     28  C   UNL     1       3.574   6.313  17.753  0.00  0.00    +0.000 A 
ATOM     29  C   UNL     1       3.283   5.822  19.015  0.00  0.00    +0.000 A 
ATOM     30  C   UNL     1       2.513   6.584  19.905  0.00  0.00    +0.000 A 
ATOM     31  C   UNL     1       2.026   7.850  19.548  0.00  0.00    +0.000 A 
ATOM     32  C   UNL     1      -0.077  10.732  21.076  0.00  0.00    +0.000 C 
ENDBRANCH  18  19
ENDBRANCH  17  18
ENDBRANCH   1  17
TORSDOF 6
ENDMDL
MODEL 7
REMARK VINA RESULT:      -8.3      5.646     11.439
REMARK  Name = 
REMARK  6 active torsions:
REMARK  status: ('A' for Active; 'I' for Inactive)
REMARK    1  A    between atoms: C_2  and  C_22
REMARK    2  A    between atoms: N_3  and  C_4
REMARK    3  A    between atoms: C_4  and  C_5
REMARK    4  A    between atoms: C_5  and  C_6
REMARK    5  A    between atoms: C_6  and  C_7
REMARK    6  A    between atoms: C_7  and  N_8
REMARK                            x       y       z     vdW  Elec       q    Type
REMARK                         _______ _______ _______ _____ _____    ______ ____
ROOT
ATOM      1  C   UNL     1      -1.497  10.614  18.225  0.00  0.00    +0.000 C 
ENDROOT
BRANCH   1   2
ATOM      2  C   UNL     1      -2.637  11.550  17.819  0.00  0.00    +0.000 C 
BRANCH   2   5
ATOM      3  O   UNL     1      -5.392  11.481  18.025  0.00  0.00    +0.000 OA
ATOM      4  C   UNL     1      -4.743  11.898  19.005  0.00  0.00    +0.000 C 
ATOM      5  N   UNL     1      -3.384  11.999  18.977  0.00  0.00    +0.000 N 
ATOM      6  H   UNL     1      -2.872  12.166  19.833  0.00  0.00    +0.000 HD
BRANCH   4   7
ATOM      7  C   UNL     1      -5.467  12.290  20.249  0.00  0.00    +0.000 A 
ATOM      8  C   UNL     1      -6.814  11.897  20.298  0.00  0.00    +0.000 A 
ATOM      9  C   UNL     1      -7.558  12.074  21.447  0.00  0.00    +0.000 A 
ATOM     10  C   UNL     1      -7.008  12.767  22.511  0.00  0.00    +0.000 A 
ATOM     11  C   UNL     1      -7.786  12.965  23.635  0.00  0.00    +0.000 A 
ATOM     12  C   UNL     1      -7.916  14.303  23.928  0.00  0.00    +0.000 A 
ATOM     13  C   UNL     1      -6.771  15.086  23.861  0.00  0.00    +0.000 A 
ATOM     14  C   UNL     1      -5.631  14.579  23.207  0.00  0.00    +0.000 A 
ATOM     15  C   UNL     1      -5.786  13.444  22.376  0.00  0.00    +0.000 A 
ATOM     16  C   UNL     1      -4.938  13.068  21.301  0.00  0.00    +0.000 A 
ENDBRANCH   4   7
ENDBRANCH   2   5
ENDBRANCH   1   2
BRANCH   1  17
ATOM     17  C   UNL     1      -0.501  11.264  19.192  0.00  0.00    +0.000 C 
BRANCH  17  18
ATOM     18  C   UNL     1       0.930  10.741  18.995  0.00  0.00    +0.000 C 
BRANCH  18  19
ATOM     19  N   UNL     1       1.068   9.282  19.123  0.00  0.00    +0.000 NA
ATOM     20  C   UNL     1       1.217   8.924  20.541  0.00  0.00    +0.000 C 
ATOM     21  C   UNL     1       1.212   7.402  20.729  0.00  0.00    +0.000 C 
ATOM     22  C   UNL     1       2.103   6.672  19.751  0.00  0.00    +0.000 C 
ATOM     23  C   UNL     1       2.578   7.322  18.669  0.00  0.00    +0.000 C 
ATOM     24  C   UNL     1       3.497   6.689  17.660  0.00  0.00    +0.000 C 
ATOM     25  C   UNL     1       3.897   5.230  17.904  0.00  0.00    +0.000 C 
ATOM     26  C   UNL     1       3.335   4.580  19.138  0.00  0.00    +0.000 A 
ATOM     27  C   UNL     1       3.692   3.247  19.405  0.00  0.00    +0.000 A 
ATOM     28  C   UNL     1       3.195   2.570  20.514  0.00  0.00    +0.000 A 
ATOM     29  C   UNL     1       2.323   3.227  21.367  0.00  0.00    +0.000 A 
ATOM     30  C   UNL     1       1.961   4.558  21.114  0.00  0.00    +0.000 A 
ATOM     31  C   UNL     1       2.468   5.253  20.006  0.00  0.00    +0.000 A 
ATOM     32  C   UNL     1       2.221   8.763  18.368  0.00  0.00    +0.000 C 
ENDBRANCH  18  19
ENDBRANCH  17  18
ENDBRANCH   1  17
TORSDOF 6
ENDMDL
MODEL 8
REMARK VINA RESULT:      -8.3      3.197      9.553
REMARK  Name = 
REMARK  6 active torsions:
REMARK  status: ('A' for Active; 'I' for Inactive)
REMARK    1  A    between atoms: C_2  and  C_22
REMARK    2  A    between atoms: N_3  and  C_4
REMARK    3  A    between atoms: C_4  and  C_5
REMARK    4  A    between atoms: C_5  and  C_6
REMARK    5  A    between atoms: C_6  and  C_7
REMARK    6  A    between atoms: C_7  and  N_8
REMARK                            x       y       z     vdW  Elec       q    Type
REMARK                         _______ _______ _______ _____ _____    ______ ____
ROOT
ATOM      1  C   UNL     1       7.886   8.838  17.827  0.00  0.00    +0.000 C 
ENDROOT
BRANCH   1   2
ATOM      2  C   UNL     1       8.052   7.318  17.788  0.00  0.00    +0.000 C 
BRANCH   2   5
ATOM      3  O   UNL     1       5.883   6.635  16.218  0.00  0.00    +0.000 OA
ATOM      4  C   UNL     1       5.853   6.320  17.424  0.00  0.00    +0.000 C 
ATOM      5  N   UNL     1       6.864   6.648  18.278  0.00  0.00    +0.000 N 
ATOM      6  H   UNL     1       6.903   6.232  19.199  0.00  0.00    +0.000 HD
BRANCH   4   7
ATOM      7  C   UNL     1       4.687   5.554  17.952  0.00  0.00    +0.000 A 
ATOM      8  C   UNL     1       3.454   6.217  17.859  0.00  0.00    +0.000 A 
ATOM      9  C   UNL     1       2.278   5.568  18.182  0.00  0.00    +0.000 A 
ATOM     10  C   UNL     1       2.333   4.299  18.731  0.00  0.00    +0.000 A 
ATOM     11  C   UNL     1       1.146   3.687  19.082  0.00  0.00    +0.000 A 
ATOM     12  C   UNL     1       1.132   3.342  20.414  0.00  0.00    +0.000 A 
ATOM     13  C   UNL     1       2.276   2.748  20.932  0.00  0.00    +0.000 A 
ATOM     14  C   UNL     1       3.476   2.813  20.197  0.00  0.00    +0.000 A 
ATOM     15  C   UNL     1       3.557   3.739  19.130  0.00  0.00    +0.000 A 
ATOM     16  C   UNL     1       4.746   4.296  18.588  0.00  0.00    +0.000 A 
ENDBRANCH   4   7
ENDBRANCH   2   5
ENDBRANCH   1   2
BRANCH   1  17
ATOM     17  C   UNL     1       8.880   9.527  18.768  0.00  0.00    +0.000 C 
BRANCH  17  18
ATOM     18  C   UNL     1       9.492  10.792  18.146  0.00  0.00    +0.000 C 
BRANCH  18  19
ATOM     19  N   UNL     1       9.425  11.985  19.003  0.00  0.00    +0.000 NA
ATOM     20  C   UNL     1      10.740  12.642  19.037  0.00  0.00    +0.000 C 
ATOM     21  C   UNL     1      10.674  13.971  19.798  0.00  0.00    +0.000 C 
ATOM     22  C   UNL     1       9.934  13.876  21.112  0.00  0.00    +0.000 C 
ATOM     23  C   UNL     1       9.179  12.790  21.374  0.00  0.00    +0.000 C 
ATOM     24  C   UNL     1       8.434  12.592  22.666  0.00  0.00    +0.000 C 
ATOM     25  C   UNL     1       8.559  13.699  23.718  0.00  0.00    +0.000 C 
ATOM     26  C   UNL     1       9.428  14.872  23.353  0.00  0.00    +0.000 A 
ATOM     27  C   UNL     1       9.581  15.901  24.298  0.00  0.00    +0.000 A 
ATOM     28  C   UNL     1      10.350  17.028  24.026  0.00  0.00    +0.000 A 
ATOM     29  C   UNL     1      10.969  17.137  22.792  0.00  0.00    +0.000 A 
ATOM     30  C   UNL     1      10.825  16.117  21.841  0.00  0.00    +0.000 A 
ATOM     31  C   UNL     1      10.065  14.970  22.112  0.00  0.00    +0.000 A 
ATOM     32  C   UNL     1       9.010  11.660  20.379  0.00  0.00    +0.000 C 
ENDBRANCH  18  19
ENDBRANCH  17  18
ENDBRANCH   1  17
TORSDOF 6
ENDMDL
MODEL 9
REMARK VINA RESULT:      -8.3      3.384     10.172
REMARK  Name = 
REMARK  6 active torsions:
REMARK  status: ('A' for Active; 'I' for Inactive)
REMARK    1  A    between atoms: C_2  and  C_22
REMARK    2  A    between atoms: N_3  and  C_4
REMARK    3  A    between atoms: C_4  and  C_5
REMARK    4  A    between atoms: C_5  and  C_6
REMARK    5  A    between atoms: C_6  and  C_7
REMARK    6  A    between atoms: C_7  and  N_8
REMARK                            x       y       z     vdW  Elec       q    Type
REMARK                         _______ _______ _______ _____ _____    ______ ____
ROOT
ATOM      1  C   UNL     1       8.392   8.094  17.842  0.00  0.00    +0.000 C 
ENDROOT
BRANCH   1   2
ATOM      2  C   UNL     1       7.235   7.720  16.913  0.00  0.00    +0.000 C 
BRANCH   2   5
ATOM      3  O   UNL     1       5.239   6.301  15.632  0.00  0.00    +0.000 OA
ATOM      4  C   UNL     1       5.349   6.169  16.867  0.00  0.00    +0.000 C 
ATOM      5  N   UNL     1       6.282   6.858  17.584  0.00  0.00    +0.000 N 
ATOM      6  H   UNL     1       6.471   6.604  18.544  0.00  0.00    +0.000 HD
BRANCH   4   7
ATOM      7  C   UNL     1       4.444   5.226  17.586  0.00  0.00    +0.000 A 
ATOM      8  C   UNL     1       3.901   4.205  16.790  0.00  0.00    +0.000 A 
ATOM      9  C   UNL     1       3.161   3.187  17.358  0.00  0.00    +0.000 A 
ATOM     10  C   UNL     1       2.840   3.251  18.702  0.00  0.00    +0.000 A 
ATOM     11  C   UNL     1       2.065   2.241  19.238  0.00  0.00    +0.000 A 
ATOM     12  C   UNL     1       0.916   2.736  19.808  0.00  0.00    +0.000 A 
ATOM     13  C   UNL     1       1.033   3.870  20.602  0.00  0.00    +0.000 A 
ATOM     14  C   UNL     1       2.214   4.634  20.535  0.00  0.00    +0.000 A 
ATOM     15  C   UNL     1       3.096   4.411  19.451  0.00  0.00    +0.000 A 
ATOM     16  C   UNL     1       4.045   5.333  18.936  0.00  0.00    +0.000 A 
ENDBRANCH   4   7
ENDBRANCH   2   5
ENDBRANCH   1   2
BRANCH   1  17
ATOM     17  C   UNL     1       8.354   9.560  18.288  0.00  0.00    +0.000 C 
BRANCH  17  18
ATOM     18  C   UNL     1       9.150   9.796  19.582  0.00  0.00    +0.000 C 
BRANCH  18  19
ATOM     19  N   UNL     1       9.933  11.040  19.596  0.00  0.00    +0.000 NA
ATOM     20  C   UNL     1       9.236  12.053  20.401  0.00  0.00    +0.000 C 
ATOM     21  C   UNL     1      10.092  13.314  20.565  0.00  0.00    +0.000 C 
ATOM     22  C   UNL     1      10.713  13.791  19.273  0.00  0.00    +0.000 C 
ATOM     23  C   UNL     1      10.722  12.977  18.198  0.00  0.00    +0.000 C 
ATOM     24  C   UNL     1      11.287  13.377  16.862  0.00  0.00    +0.000 C 
ATOM     25  C   UNL     1      11.874  14.787  16.749  0.00  0.00    +0.000 C 
ATOM     26  C   UNL     1      11.816  15.636  17.989  0.00  0.00    +0.000 A 
ATOM     27  C   UNL     1      12.331  16.942  17.922  0.00  0.00    +0.000 A 
ATOM     28  C   UNL     1      12.333  17.780  19.032  0.00  0.00    +0.000 A 
ATOM     29  C   UNL     1      11.824  17.309  20.231  0.00  0.00    +0.000 A 
ATOM     30  C   UNL     1      11.306  16.008  20.311  0.00  0.00    +0.000 A 
ATOM     31  C   UNL     1      11.286  15.162  19.193  0.00  0.00    +0.000 A 
ATOM     32  C   UNL     1      10.160  11.571  18.241  0.00  0.00    +0.000 C 
ENDBRANCH  18  19
ENDBRANCH  17  18
ENDBRANCH   1  17
TORSDOF 6
ENDMDL
