MODEL 1
REMARK VINA RESULT:      -7.3      0.000      0.000
REMARK  Name = 
REMARK  6 active torsions:
REMARK  status: ('A' for Active; 'I' for Inactive)
REMARK    1  A    between atoms: C_4  and  C_5
REMARK    2  A    between atoms: C_12  and  N_13
REMARK    3  A    between atoms: N_13  and  C_14
REMARK    4  A    between atoms: C_14  and  C_15
REMARK    5  A    between atoms: C_15  and  C_16
REMARK    6  A    between atoms: C_16  and  N_17
REMARK                            x       y       z     vdW  Elec       q    Type
REMARK                         _______ _______ _______ _____ _____    ______ ____
ROOT
ATOM      1  C   UNL     1       0.607   9.929  21.355  0.00  0.00    +0.000 A 
ATOM      2  N   UNL     1       1.053   8.974  22.142  0.00  0.00    +0.000 NA
ATOM      3  N   UNL     1       1.608   7.928  21.433  0.00  0.00    +0.000 NA
ATOM      4  C   UNL     1       1.627   8.124  20.128  0.00  0.00    +0.000 A 
ATOM      5  N   UNL     1       2.093   7.229  19.206  0.00  0.00    +0.000 N 
ATOM      6  C   UNL     1       2.495   5.891  19.638  0.00  0.00    +0.000 C 
ATOM      7  C   UNL     1       3.997   5.691  19.425  0.00  0.00    +0.000 C 
ATOM      8  C   UNL     1       4.440   6.041  17.991  0.00  0.00    +0.000 C 
ATOM      9  C   UNL     1       3.979   7.477  17.687  0.00  0.00    +0.000 C 
ATOM     10  C   UNL     1       2.469   7.620  17.852  0.00  0.00    +0.000 C 
ATOM     11  S   UNL     1       0.939   9.653  19.699  0.00  0.00    +0.000 S 
ENDROOT
BRANCH   1  15
ATOM     12  C   UNL     1      -1.317  13.506  22.693  0.00  0.00    +0.000 A 
ATOM     13  C   UNL     1      -0.335  13.559  21.705  0.00  0.00    +0.000 A 
ATOM     14  C   UNL     1       0.277  12.385  21.265  0.00  0.00    +0.000 A 
ATOM     15  C   UNL     1      -0.088  11.142  21.802  0.00  0.00    +0.000 A 
ATOM     16  C   UNL     1      -1.088  11.106  22.791  0.00  0.00    +0.000 A 
ATOM     17  C   UNL     1      -1.695  12.283  23.231  0.00  0.00    +0.000 A 
ENDBRANCH   1  15
BRANCH   8  18
ATOM     18  N   UNL     1       3.947   5.033  17.030  0.00  0.00    +0.000 NA
ATOM     19  H   UNL     1       4.316   5.213  16.097  0.00  0.00    +0.000 HD
BRANCH  18  20
ATOM     20  C   UNL     1       4.256   3.662  17.431  0.00  0.00    +0.000 C 
BRANCH  20  21
ATOM     21  C   UNL     1       2.991   2.812  17.468  0.00  0.00    +0.000 C 
BRANCH  21  22
ATOM     22  C   UNL     1       3.111   1.752  18.560  0.00  0.00    +0.000 C 
BRANCH  22  23
ATOM     23  N   UNL     1       2.587   2.219  19.821  0.00  0.00    +0.000 N 
ATOM     24  C   UNL     1       1.290   2.491  20.136  0.00  0.00    +0.000 A 
ATOM     25  C   UNL     1       1.351   2.863  21.457  0.00  0.00    +0.000 A 
ATOM     26  N   UNL     1       2.649   2.819  21.885  0.00  0.00    +0.000 NA
ATOM     27  N   UNL     1       3.402   2.419  20.868  0.00  0.00    +0.000 NA
ENDBRANCH  22  23
ENDBRANCH  21  22
ENDBRANCH  20  21
ENDBRANCH  18  20
ENDBRANCH   8  18
TORSDOF 6
ENDMDL
MODEL 2
REMARK VINA RESULT:      -7.1      1.988      3.406
REMARK  Name = 
REMARK  6 active torsions:
REMARK  status: ('A' for Active; 'I' for Inactive)
REMARK    1  A    between atoms: C_4  and  C_5
REMARK    2  A    between atoms: C_12  and  N_13
REMARK    3  A    between atoms: N_13  and  C_14
REMARK    4  A    between atoms: C_14  and  C_15
REMARK    5  A    between atoms: C_15  and  C_16
REMARK    6  A    between atoms: C_16  and  N_17
REMARK                            x       y       z     vdW  Elec       q    Type
REMARK                         _______ _______ _______ _____ _____    ______ ____
ROOT
ATOM      1  C   UNL     1       0.592  10.179  21.420  0.00  0.00    +0.000 A 
ATOM      2  N   UNL     1       1.027   9.254  22.248  0.00  0.00    +0.000 NA
ATOM      3  N   UNL     1       1.512   8.144  21.584  0.00  0.00    +0.000 NA
ATOM      4  C   UNL     1       1.491   8.263  20.270  0.00  0.00    +0.000 A 
ATOM      5  N   UNL     1       1.886   7.296  19.388  0.00  0.00    +0.000 N 
ATOM      6  C   UNL     1       2.249   5.969  19.886  0.00  0.00    +0.000 C 
ATOM      7  C   UNL     1       3.732   5.693  19.634  0.00  0.00    +0.000 C 
ATOM      8  C   UNL     1       4.136   5.939  18.167  0.00  0.00    +0.000 C 
ATOM      9  C   UNL     1       3.724   7.373  17.794  0.00  0.00    +0.000 C 
ATOM     10  C   UNL     1       2.228   7.590  18.001  0.00  0.00    +0.000 C 
ATOM     11  S   UNL     1       0.851   9.793  19.774  0.00  0.00    +0.000 S 
ENDROOT
BRANCH   1  15
ATOM     12  C   UNL     1      -1.340  13.826  22.543  0.00  0.00    +0.000 A 
ATOM     13  C   UNL     1      -1.680  12.624  23.164  0.00  0.00    +0.000 A 
ATOM     14  C   UNL     1      -1.034  11.443  22.801  0.00  0.00    +0.000 A 
ATOM     15  C   UNL     1      -0.036  11.445  21.816  0.00  0.00    +0.000 A 
ATOM     16  C   UNL     1       0.302  12.668  21.207  0.00  0.00    +0.000 A 
ATOM     17  C   UNL     1      -0.349  13.847  21.570  0.00  0.00    +0.000 A 
ENDBRANCH   1  15
BRANCH   8  18
ATOM     18  N   UNL     1       3.567   4.898  17.286  0.00  0.00    +0.000 NA
ATOM     19  H   UNL     1       3.067   5.321  16.505  0.00  0.00    +0.000 HD
BRANCH  18  20
ATOM     20  C   UNL     1       4.571   3.962  16.785  0.00  0.00    +0.000 C 
BRANCH  20  21
ATOM     21  C   UNL     1       5.380   4.591  15.655  0.00  0.00    +0.000 C 
BRANCH  21  22
ATOM     22  C   UNL     1       6.871   4.397  15.916  0.00  0.00    +0.000 C 
BRANCH  22  23
ATOM     23  N   UNL     1       7.308   5.110  17.093  0.00  0.00    +0.000 N 
ATOM     24  C   UNL     1       7.395   6.458  17.267  0.00  0.00    +0.000 A 
ATOM     25  C   UNL     1       7.830   6.587  18.564  0.00  0.00    +0.000 A 
ATOM     26  N   UNL     1       8.001   5.347  19.114  0.00  0.00    +0.000 NA
ATOM     27  N   UNL     1       7.675   4.444  18.198  0.00  0.00    +0.000 NA
ENDBRANCH  22  23
ENDBRANCH  21  22
ENDBRANCH  20  21
ENDBRANCH  18  20
ENDBRANCH   8  18
TORSDOF 6
ENDMDL
MODEL 3
REMARK VINA RESULT:      -7.0      4.950      6.812
REMARK  Name = 
REMARK  6 active torsions:
REMARK  status: ('A' for Active; 'I' for Inactive)
REMARK    1  A    between atoms: C_4  and  C_5
REMARK    2  A    between atoms: C_12  and  N_13
REMARK    3  A    between atoms: N_13  and  C_14
REMARK    4  A    between atoms: C_14  and  C_15
REMARK    5  A    between atoms: C_15  and  C_16
REMARK    6  A    between atoms: C_16  and  N_17
REMARK                            x       y       z     vdW  Elec       q    Type
REMARK                         _______ _______ _______ _____ _____    ______ ____
ROOT
ATOM      1  C   UNL     1       8.585   9.475  18.381  0.00  0.00    +0.000 A 
ATOM      2  N   UNL     1       7.748   9.693  17.391  0.00  0.00    +0.000 NA
ATOM      3  N   UNL     1       7.038   8.559  17.048  0.00  0.00    +0.000 NA
ATOM      4  C   UNL     1       7.302   7.518  17.814  0.00  0.00    +0.000 A 
ATOM      5  N   UNL     1       6.756   6.274  17.662  0.00  0.00    +0.000 N 
ATOM      6  C   UNL     1       5.907   5.993  16.505  0.00  0.00    +0.000 C 
ATOM      7  C   UNL     1       4.474   5.703  16.954  0.00  0.00    +0.000 C 
ATOM      8  C   UNL     1       4.408   4.622  18.050  0.00  0.00    +0.000 C 
ATOM      9  C   UNL     1       5.319   5.062  19.209  0.00  0.00    +0.000 C 
ATOM     10  C   UNL     1       6.752   5.282  18.732  0.00  0.00    +0.000 C 
ATOM     11  S   UNL     1       8.476   7.895  19.028  0.00  0.00    +0.000 S 
ENDROOT
BRANCH   1  15
ATOM     12  C   UNL     1      11.402  12.278  19.965  0.00  0.00    +0.000 A 
ATOM     13  C   UNL     1      11.479  11.873  18.633  0.00  0.00    +0.000 A 
ATOM     14  C   UNL     1      10.548  10.969  18.122  0.00  0.00    +0.000 A 
ATOM     15  C   UNL     1       9.522  10.462  18.933  0.00  0.00    +0.000 A 
ATOM     16  C   UNL     1       9.452  10.889  20.272  0.00  0.00    +0.000 A 
ATOM     17  C   UNL     1      10.389  11.789  20.780  0.00  0.00    +0.000 A 
ENDBRANCH   1  15
BRANCH   8  18
ATOM     18  N   UNL     1       4.736   3.293  17.495  0.00  0.00    +0.000 NA
ATOM     19  H   UNL     1       5.727   3.086  17.615  0.00  0.00    +0.000 HD
BRANCH  18  20
ATOM     20  C   UNL     1       3.931   2.218  18.071  0.00  0.00    +0.000 C 
BRANCH  20  21
ATOM     21  C   UNL     1       2.490   2.298  17.577  0.00  0.00    +0.000 C 
BRANCH  21  22
ATOM     22  C   UNL     1       1.534   1.960  18.717  0.00  0.00    +0.000 C 
BRANCH  22  23
ATOM     23  N   UNL     1       1.711   2.840  19.846  0.00  0.00    +0.000 N 
ATOM     24  C   UNL     1       1.445   4.174  19.914  0.00  0.00    +0.000 A 
ATOM     25  C   UNL     1       1.762   4.500  21.211  0.00  0.00    +0.000 A 
ATOM     26  N   UNL     1       2.209   3.386  21.865  0.00  0.00    +0.000 NA
ATOM     27  N   UNL     1       2.173   2.369  21.014  0.00  0.00    +0.000 NA
ENDBRANCH  22  23
ENDBRANCH  21  22
ENDBRANCH  20  21
ENDBRANCH  18  20
ENDBRANCH   8  18
TORSDOF 6
ENDMDL
MODEL 4
REMARK VINA RESULT:      -6.9      2.048      4.028
REMARK  Name = 
REMARK  6 active torsions:
REMARK  status: ('A' for Active; 'I' for Inactive)
REMARK    1  A    between atoms: C_4  and  C_5
REMARK    2  A    between atoms: C_12  and  N_13
REMARK    3  A    between atoms: N_13  and  C_14
REMARK    4  A    between atoms: C_14  and  C_15
REMARK    5  A    between atoms: C_15  and  C_16
REMARK    6  A    between atoms: C_16  and  N_17
REMARK                            x       y       z     vdW  Elec       q    Type
REMARK                         _______ _______ _______ _____ _____    ______ ____
ROOT
ATOM      1  C   UNL     1       0.353  10.267  20.718  0.00  0.00    +0.000 A 
ATOM      2  N   UNL     1       0.661  10.285  19.439  0.00  0.00    +0.000 NA
ATOM      3  N   UNL     1       1.360   9.159  19.053  0.00  0.00    +0.000 NA
ATOM      4  C   UNL     1       1.524   8.280  20.024  0.00  0.00    +0.000 A 
ATOM      5  N   UNL     1       2.206   7.101  19.908  0.00  0.00    +0.000 N 
ATOM      6  C   UNL     1       2.931   6.804  18.673  0.00  0.00    +0.000 C 
ATOM      7  C   UNL     1       2.307   5.600  17.965  0.00  0.00    +0.000 C 
ATOM      8  C   UNL     1       2.146   4.386  18.899  0.00  0.00    +0.000 C 
ATOM      9  C   UNL     1       1.343   4.835  20.132  0.00  0.00    +0.000 C 
ATOM     10  C   UNL     1       2.030   5.996  20.845  0.00  0.00    +0.000 C 
ATOM     11  S   UNL     1       0.806   8.817  21.504  0.00  0.00    +0.000 S 
ENDROOT
BRANCH   1  15
ATOM     12  C   UNL     1      -1.542  13.459  22.842  0.00  0.00    +0.000 A 
ATOM     13  C   UNL     1      -0.831  13.713  21.669  0.00  0.00    +0.000 A 
ATOM     14  C   UNL     1      -0.228  12.664  20.977  0.00  0.00    +0.000 A 
ATOM     15  C   UNL     1      -0.332  11.345  21.441  0.00  0.00    +0.000 A 
ATOM     16  C   UNL     1      -1.061  11.105  22.620  0.00  0.00    +0.000 A 
ATOM     17  C   UNL     1      -1.659  12.158  23.313  0.00  0.00    +0.000 A 
ENDBRANCH   1  15
BRANCH   8  18
ATOM     18  N   UNL     1       3.461   3.793  19.217  0.00  0.00    +0.000 NA
ATOM     19  H   UNL     1       3.349   2.920  19.733  0.00  0.00    +0.000 HD
BRANCH  18  20
ATOM     20  C   UNL     1       4.288   3.568  18.034  0.00  0.00    +0.000 C 
BRANCH  20  21
ATOM     21  C   UNL     1       5.696   4.115  18.247  0.00  0.00    +0.000 C 
BRANCH  21  22
ATOM     22  C   UNL     1       5.880   5.397  17.438  0.00  0.00    +0.000 C 
BRANCH  22  23
ATOM     23  N   UNL     1       6.379   5.128  16.111  0.00  0.00    +0.000 N 
ATOM     24  C   UNL     1       5.894   4.239  15.202  0.00  0.00    +0.000 A 
ATOM     25  C   UNL     1       6.713   4.412  14.112  0.00  0.00    +0.000 A 
ATOM     26  N   UNL     1       7.652   5.365  14.395  0.00  0.00    +0.000 NA
ATOM     27  N   UNL     1       7.437   5.800  15.630  0.00  0.00    +0.000 NA
ENDBRANCH  22  23
ENDBRANCH  21  22
ENDBRANCH  20  21
ENDBRANCH  18  20
ENDBRANCH   8  18
TORSDOF 6
ENDMDL
MODEL 5
REMARK VINA RESULT:      -6.8      4.686      6.850
REMARK  Name = 
REMARK  6 active torsions:
REMARK  status: ('A' for Active; 'I' for Inactive)
REMARK    1  A    between atoms: C_4  and  C_5
REMARK    2  A    between atoms: C_12  and  N_13
REMARK    3  A    between atoms: N_13  and  C_14
REMARK    4  A    between atoms: C_14  and  C_15
REMARK    5  A    between atoms: C_15  and  C_16
REMARK    6  A    between atoms: C_16  and  N_17
REMARK                            x       y       z     vdW  Elec       q    Type
REMARK                         _______ _______ _______ _____ _____    ______ ____
ROOT
ATOM      1  C   UNL     1       8.593   9.450  18.408  0.00  0.00    +0.000 A 
ATOM      2  N   UNL     1       7.716   9.684  17.455  0.00  0.00    +0.000 NA
ATOM      3  N   UNL     1       7.026   8.546  17.088  0.00  0.00    +0.000 NA
ATOM      4  C   UNL     1       7.344   7.482  17.801  0.00  0.00    +0.000 A 
ATOM      5  N   UNL     1       6.828   6.230  17.615  0.00  0.00    +0.000 N 
ATOM      6  C   UNL     1       5.947   5.974  16.476  0.00  0.00    +0.000 C 
ATOM      7  C   UNL     1       4.538   5.624  16.960  0.00  0.00    +0.000 C 
ATOM      8  C   UNL     1       4.539   4.498  18.011  0.00  0.00    +0.000 C 
ATOM      9  C   UNL     1       5.477   4.916  19.156  0.00  0.00    +0.000 C 
ATOM     10  C   UNL     1       6.887   5.196  18.642  0.00  0.00    +0.000 C 
ATOM     11  S   UNL     1       8.548   7.842  18.990  0.00  0.00    +0.000 S 
ENDROOT
BRANCH   1  15
ATOM     12  C   UNL     1      11.207  12.401  20.067  0.00  0.00    +0.000 A 
ATOM     13  C   UNL     1      10.238  11.787  20.861  0.00  0.00    +0.000 A 
ATOM     14  C   UNL     1       9.399  10.817  20.313  0.00  0.00    +0.000 A 
ATOM     15  C   UNL     1       9.521  10.439  18.968  0.00  0.00    +0.000 A 
ATOM     16  C   UNL     1      10.511  11.061  18.185  0.00  0.00    +0.000 A 
ATOM     17  C   UNL     1      11.345  12.035  18.734  0.00  0.00    +0.000 A 
ENDBRANCH   1  15
BRANCH   8  18
ATOM     18  N   UNL     1       4.884   3.203  17.389  0.00  0.00    +0.000 NA
ATOM     19  H   UNL     1       5.606   2.725  17.928  0.00  0.00    +0.000 HD
BRANCH  18  20
ATOM     20  C   UNL     1       3.728   2.324  17.220  0.00  0.00    +0.000 C 
BRANCH  20  21
ATOM     21  C   UNL     1       3.413   1.590  18.519  0.00  0.00    +0.000 C 
BRANCH  21  22
ATOM     22  C   UNL     1       1.986   1.907  18.959  0.00  0.00    +0.000 C 
BRANCH  22  23
ATOM     23  N   UNL     1       1.930   3.084  19.792  0.00  0.00    +0.000 N 
ATOM     24  C   UNL     1       1.185   4.207  19.600  0.00  0.00    +0.000 A 
ATOM     25  C   UNL     1       1.484   4.983  20.694  0.00  0.00    +0.000 A 
ATOM     26  N   UNL     1       2.387   4.328  21.485  0.00  0.00    +0.000 NA
ATOM     27  N   UNL     1       2.654   3.158  20.919  0.00  0.00    +0.000 NA
ENDBRANCH  22  23
ENDBRANCH  21  22
ENDBRANCH  20  21
ENDBRANCH  18  20
ENDBRANCH   8  18
TORSDOF 6
ENDMDL
MODEL 6
REMARK VINA RESULT:      -6.8      2.109      3.945
REMARK  Name = 
REMARK  6 active torsions:
REMARK  status: ('A' for Active; 'I' for Inactive)
REMARK    1  A    between atoms: C_4  and  C_5
REMARK    2  A    between atoms: C_12  and  N_13
REMARK    3  A    between atoms: N_13  and  C_14
REMARK    4  A    between atoms: C_14  and  C_15
REMARK    5  A    between atoms: C_15  and  C_16
REMARK    6  A    between atoms: C_16  and  N_17
REMARK                            x       y       z     vdW  Elec       q    Type
REMARK                         _______ _______ _______ _____ _____    ______ ____
ROOT
ATOM      1  C   UNL     1       0.205  10.085  20.473  0.00  0.00    +0.000 A 
ATOM      2  N   UNL     1       0.715  10.086  19.261  0.00  0.00    +0.000 NA
ATOM      3  N   UNL     1       1.434   8.938  18.994  0.00  0.00    +0.000 NA
ATOM      4  C   UNL     1       1.413   8.060  19.979  0.00  0.00    +0.000 A 
ATOM      5  N   UNL     1       2.069   6.861  19.976  0.00  0.00    +0.000 N 
ATOM      6  C   UNL     1       2.975   6.536  18.874  0.00  0.00    +0.000 C 
ATOM      7  C   UNL     1       2.438   5.347  18.076  0.00  0.00    +0.000 C 
ATOM      8  C   UNL     1       2.093   4.143  18.973  0.00  0.00    +0.000 C 
ATOM      9  C   UNL     1       1.116   4.623  20.060  0.00  0.00    +0.000 C 
ATOM     10  C   UNL     1       1.712   5.768  20.873  0.00  0.00    +0.000 C 
ATOM     11  S   UNL     1       0.482   8.626  21.323  0.00  0.00    +0.000 S 
ENDROOT
BRANCH   1  15
ATOM     12  C   UNL     1      -1.941  13.369  22.175  0.00  0.00    +0.000 A 
ATOM     13  C   UNL     1      -1.866  13.214  20.791  0.00  0.00    +0.000 A 
ATOM     14  C   UNL     1      -1.175  12.132  20.246  0.00  0.00    +0.000 A 
ATOM     15  C   UNL     1      -0.555  11.186  21.075  0.00  0.00    +0.000 A 
ATOM     16  C   UNL     1      -0.649  11.352  22.469  0.00  0.00    +0.000 A 
ATOM     17  C   UNL     1      -1.337  12.439  23.011  0.00  0.00    +0.000 A 
ENDBRANCH   1  15
BRANCH   8  18
ATOM     18  N   UNL     1       3.322   3.515  19.500  0.00  0.00    +0.000 NA
ATOM     19  H   UNL     1       3.094   2.706  20.079  0.00  0.00    +0.000 HD
BRANCH  18  20
ATOM     20  C   UNL     1       4.260   3.124  18.449  0.00  0.00    +0.000 C 
BRANCH  20  21
ATOM     21  C   UNL     1       5.576   3.881  18.593  0.00  0.00    +0.000 C 
BRANCH  21  22
ATOM     22  C   UNL     1       5.976   4.482  17.249  0.00  0.00    +0.000 C 
BRANCH  22  23
ATOM     23  N   UNL     1       6.772   5.675  17.409  0.00  0.00    +0.000 N 
ATOM     24  C   UNL     1       7.282   6.189  18.562  0.00  0.00    +0.000 A 
ATOM     25  C   UNL     1       7.974   7.300  18.142  0.00  0.00    +0.000 A 
ATOM     26  N   UNL     1       7.853   7.427  16.786  0.00  0.00    +0.000 NA
ATOM     27  N   UNL     1       7.110   6.420  16.345  0.00  0.00    +0.000 NA
ENDBRANCH  22  23
ENDBRANCH  21  22
ENDBRANCH  20  21
ENDBRANCH  18  20
ENDBRANCH   8  18
TORSDOF 6
ENDMDL
MODEL 7
REMARK VINA RESULT:      -6.8      1.994      3.779
REMARK  Name = 
REMARK  6 active torsions:
REMARK  status: ('A' for Active; 'I' for Inactive)
REMARK    1  A    between atoms: C_4  and  C_5
REMARK    2  A    between atoms: C_12  and  N_13
REMARK    3  A    between atoms: N_13  and  C_14
REMARK    4  A    between atoms: C_14  and  C_15
REMARK    5  A    between atoms: C_15  and  C_16
REMARK    6  A    between atoms: C_16  and  N_17
REMARK                            x       y       z     vdW  Elec       q    Type
REMARK                         _______ _______ _______ _____ _____    ______ ____
ROOT
ATOM      1  C   UNL     1       0.665  10.160  20.781  0.00  0.00    +0.000 A 
ATOM      2  N   UNL     1       1.044  10.149  19.521  0.00  0.00    +0.000 NA
ATOM      3  N   UNL     1       1.606   8.942  19.155  0.00  0.00    +0.000 NA
ATOM      4  C   UNL     1       1.594   8.039  20.118  0.00  0.00    +0.000 A 
ATOM      5  N   UNL     1       2.115   6.779  20.019  0.00  0.00    +0.000 N 
ATOM      6  C   UNL     1       2.863   6.399  18.820  0.00  0.00    +0.000 C 
ATOM      7  C   UNL     1       2.123   5.299  18.058  0.00  0.00    +0.000 C 
ATOM      8  C   UNL     1       1.747   4.108  18.960  0.00  0.00    +0.000 C 
ATOM      9  C   UNL     1       0.944   4.650  20.155  0.00  0.00    +0.000 C 
ATOM     10  C   UNL     1       1.739   5.700  20.925  0.00  0.00    +0.000 C 
ATOM     11  S   UNL     1       0.872   8.654  21.565  0.00  0.00    +0.000 S 
ENDROOT
BRANCH   1  15
ATOM     12  C   UNL     1      -1.111  13.488  22.796  0.00  0.00    +0.000 A 
ATOM     13  C   UNL     1      -1.428  12.183  23.171  0.00  0.00    +0.000 A 
ATOM     14  C   UNL     1      -0.833  11.104  22.517  0.00  0.00    +0.000 A 
ATOM     15  C   UNL     1       0.092  11.314  21.484  0.00  0.00    +0.000 A 
ATOM     16  C   UNL     1       0.408  12.637  21.125  0.00  0.00    +0.000 A 
ATOM     17  C   UNL     1      -0.193  13.714  21.779  0.00  0.00    +0.000 A 
ENDBRANCH   1  15
BRANCH   8  18
ATOM     18  N   UNL     1       2.950   3.339  19.340  0.00  0.00    +0.000 NA
ATOM     19  H   UNL     1       2.691   2.479  19.824  0.00  0.00    +0.000 HD
BRANCH  18  20
ATOM     20  C   UNL     1       3.812   3.028  18.202  0.00  0.00    +0.000 C 
BRANCH  20  21
ATOM     21  C   UNL     1       5.225   3.551  18.437  0.00  0.00    +0.000 C 
BRANCH  21  22
ATOM     22  C   UNL     1       5.650   4.436  17.268  0.00  0.00    +0.000 C 
BRANCH  22  23
ATOM     23  N   UNL     1       6.573   5.465  17.680  0.00  0.00    +0.000 N 
ATOM     24  C   UNL     1       6.760   6.692  17.120  0.00  0.00    +0.000 A 
ATOM     25  C   UNL     1       7.720   7.267  17.917  0.00  0.00    +0.000 A 
ATOM     26  N   UNL     1       8.084   6.389  18.900  0.00  0.00    +0.000 NA
ATOM     27  N   UNL     1       7.371   5.281  18.744  0.00  0.00    +0.000 NA
ENDBRANCH  22  23
ENDBRANCH  21  22
ENDBRANCH  20  21
ENDBRANCH  18  20
ENDBRANCH   8  18
TORSDOF 6
ENDMDL
MODEL 8
REMARK VINA RESULT:      -6.7      3.771      9.523
REMARK  Name = 
REMARK  6 active torsions:
REMARK  status: ('A' for Active; 'I' for Inactive)
REMARK    1  A    between atoms: C_4  and  C_5
REMARK    2  A    between atoms: C_12  and  N_13
REMARK    3  A    between atoms: N_13  and  C_14
REMARK    4  A    between atoms: C_14  and  C_15
REMARK    5  A    between atoms: C_15  and  C_16
REMARK    6  A    between atoms: C_16  and  N_17
REMARK                            x       y       z     vdW  Elec       q    Type
REMARK                         _______ _______ _______ _____ _____    ______ ____
ROOT
ATOM      1  C   UNL     1       2.957   6.847  18.445  0.00  0.00    +0.000 A 
ATOM      2  N   UNL     1       2.555   6.628  19.679  0.00  0.00    +0.000 NA
ATOM      3  N   UNL     1       1.896   7.716  20.215  0.00  0.00    +0.000 NA
ATOM      4  C   UNL     1       1.758   8.720  19.369  0.00  0.00    +0.000 A 
ATOM      5  N   UNL     1       1.171   9.919  19.664  0.00  0.00    +0.000 N 
ATOM      6  C   UNL     1       0.764  10.206  21.040  0.00  0.00    +0.000 C 
ATOM      7  C   UNL     1      -0.758  10.337  21.128  0.00  0.00    +0.000 C 
ATOM      8  C   UNL     1      -1.324  11.327  20.093  0.00  0.00    +0.000 C 
ATOM      9  C   UNL     1      -0.843  10.887  18.700  0.00  0.00    +0.000 C 
ATOM     10  C   UNL     1       0.680  10.828  18.634  0.00  0.00    +0.000 C 
ATOM     11  S   UNL     1       2.456   8.361  17.828  0.00  0.00    +0.000 S 
ENDROOT
BRANCH   1  15
ATOM     12  C   UNL     1       5.188   4.167  15.969  0.00  0.00    +0.000 A 
ATOM     13  C   UNL     1       5.429   5.540  15.923  0.00  0.00    +0.000 A 
ATOM     14  C   UNL     1       4.706   6.404  16.745  0.00  0.00    +0.000 A 
ATOM     15  C   UNL     1       3.736   5.909  17.628  0.00  0.00    +0.000 A 
ATOM     16  C   UNL     1       3.512   4.521  17.669  0.00  0.00    +0.000 A 
ATOM     17  C   UNL     1       4.234   3.659  16.842  0.00  0.00    +0.000 A 
ENDBRANCH   1  15
BRANCH   8  18
ATOM     18  N   UNL     1      -0.965  12.716  20.446  0.00  0.00    +0.000 NA
ATOM     19  H   UNL     1      -0.282  13.090  19.787  0.00  0.00    +0.000 HD
BRANCH  18  20
ATOM     20  C   UNL     1      -2.122  13.605  20.519  0.00  0.00    +0.000 C 
BRANCH  20  21
ATOM     21  C   UNL     1      -3.420  12.809  20.435  0.00  0.00    +0.000 C 
BRANCH  21  22
ATOM     22  C   UNL     1      -4.270  13.073  21.675  0.00  0.00    +0.000 C 
BRANCH  22  23
ATOM     23  N   UNL     1      -5.574  12.462  21.573  0.00  0.00    +0.000 N 
ATOM     24  C   UNL     1      -6.185  11.983  20.455  0.00  0.00    +0.000 A 
ATOM     25  C   UNL     1      -7.378  11.489  20.926  0.00  0.00    +0.000 A 
ATOM     26  N   UNL     1      -7.454  11.692  22.276  0.00  0.00    +0.000 NA
ATOM     27  N   UNL     1      -6.336  12.292  22.664  0.00  0.00    +0.000 NA
ENDBRANCH  22  23
ENDBRANCH  21  22
ENDBRANCH  20  21
ENDBRANCH  18  20
ENDBRANCH   8  18
TORSDOF 6
ENDMDL
MODEL 9
REMARK VINA RESULT:      -6.6      3.087      9.498
REMARK  Name = 
REMARK  6 active torsions:
REMARK  status: ('A' for Active; 'I' for Inactive)
REMARK    1  A    between atoms: C_4  and  C_5
REMARK    2  A    between atoms: C_12  and  N_13
REMARK    3  A    between atoms: N_13  and  C_14
REMARK    4  A    between atoms: C_14  and  C_15
REMARK    5  A    between atoms: C_15  and  C_16
REMARK    6  A    between atoms: C_16  and  N_17
REMARK                            x       y       z     vdW  Elec       q    Type
REMARK                         _______ _______ _______ _____ _____    ______ ____
ROOT
ATOM      1  C   UNL     1       3.322   6.256  18.214  0.00  0.00    +0.000 A 
ATOM      2  N   UNL     1       2.916   5.713  19.341  0.00  0.00    +0.000 NA
ATOM      3  N   UNL     1       2.249   6.615  20.146  0.00  0.00    +0.000 NA
ATOM      4  C   UNL     1       2.109   7.808  19.600  0.00  0.00    +0.000 A 
ATOM      5  N   UNL     1       1.516   8.882  20.202  0.00  0.00    +0.000 N 
ATOM      6  C   UNL     1       1.101   8.787  21.602  0.00  0.00    +0.000 C 
ATOM      7  C   UNL     1      -0.422   8.884  21.714  0.00  0.00    +0.000 C 
ATOM      8  C   UNL     1      -0.989  10.114  20.980  0.00  0.00    +0.000 C 
ATOM      9  C   UNL     1      -0.499  10.066  19.522  0.00  0.00    +0.000 C 
ATOM     10  C   UNL     1       1.024  10.032  19.451  0.00  0.00    +0.000 C 
ATOM     11  S   UNL     1       2.816   7.879  18.022  0.00  0.00    +0.000 S 
ENDROOT
BRANCH   1  15
ATOM     12  C   UNL     1       5.679   4.221  15.282  0.00  0.00    +0.000 A 
ATOM     13  C   UNL     1       4.916   3.501  16.201  0.00  0.00    +0.000 A 
ATOM     14  C   UNL     1       4.140   4.174  17.144  0.00  0.00    +0.000 A 
ATOM     15  C   UNL     1       4.109   5.575  17.179  0.00  0.00    +0.000 A 
ATOM     16  C   UNL     1       4.877   6.287  16.238  0.00  0.00    +0.000 A 
ATOM     17  C   UNL     1       5.656   5.610  15.299  0.00  0.00    +0.000 A 
ENDBRANCH   1  15
BRANCH   8  18
ATOM     18  N   UNL     1      -0.638  11.358  21.694  0.00  0.00    +0.000 NA
ATOM     19  H   UNL     1       0.375  11.466  21.755  0.00  0.00    +0.000 HD
BRANCH  18  20
ATOM     20  C   UNL     1      -1.229  12.551  21.091  0.00  0.00    +0.000 C 
BRANCH  20  21
ATOM     21  C   UNL     1      -1.969  13.376  22.139  0.00  0.00    +0.000 C 
BRANCH  21  22
ATOM     22  C   UNL     1      -2.505  12.459  23.235  0.00  0.00    +0.000 C 
BRANCH  22  23
ATOM     23  N   UNL     1      -3.935  12.582  23.385  0.00  0.00    +0.000 N 
ATOM     24  C   UNL     1      -4.818  13.165  22.528  0.00  0.00    +0.000 A 
ATOM     25  C   UNL     1      -6.034  12.975  23.139  0.00  0.00    +0.000 A 
ATOM     26  N   UNL     1      -5.853  12.312  24.321  0.00  0.00    +0.000 NA
ATOM     27  N   UNL     1      -4.555  12.075  24.463  0.00  0.00    +0.000 NA
ENDBRANCH  22  23
ENDBRANCH  21  22
ENDBRANCH  20  21
ENDBRANCH  18  20
ENDBRANCH   8  18
TORSDOF 6
ENDMDL
