MODEL 1
REMARK VINA RESULT:      -8.0      0.000      0.000
REMARK  Name = 
REMARK  8 active torsions:
REMARK  status: ('A' for Active; 'I' for Inactive)
REMARK    1  A    between atoms: C_4  and  O_5
REMARK    2  A    between atoms: C_8  and  N_9
REMARK    3  A    between atoms: N_9  and  C_10
REMARK    4  A    between atoms: C_13  and  C_14
REMARK    5  A    between atoms: C_14  and  C_15
REMARK    6  A    between atoms: C_15  and  O_16
REMARK    7  A    between atoms: C_23  and  N_24
REMARK    8  A    between atoms: C_29  and  O_30
REMARK                            x       y       z     vdW  Elec       q    Type
REMARK                         _______ _______ _______ _____ _____    ______ ____
ROOT
ATOM      1  O   UNL     1       3.560   2.074  17.206  0.00  0.00    +0.000 OA
ATOM      2  C   UNL     1       3.822   3.220  17.557  0.00  0.00    +0.000 C 
ATOM      3  C   UNL     1       2.956   3.825  18.583  0.00  0.00    +0.000 A 
ATOM      4  C   UNL     1       1.893   3.081  19.125  0.00  0.00    +0.000 A 
ATOM      5  C   UNL     1       1.044   3.636  20.068  0.00  0.00    +0.000 A 
ATOM      6  C   UNL     1       1.245   4.951  20.472  0.00  0.00    +0.000 A 
ATOM      7  C   UNL     1       2.299   5.725  19.953  0.00  0.00    +0.000 A 
ATOM      8  C   UNL     1       3.165   5.142  18.995  0.00  0.00    +0.000 A 
ATOM      9  C   UNL     1       4.280   5.916  18.388  0.00  0.00    +0.000 C 
ATOM     10  O   UNL     1       4.368   7.120  18.595  0.00  0.00    +0.000 OA
ATOM     11  C   UNL     1       5.238   5.268  17.465  0.00  0.00    +0.000 A 
ATOM     12  C   UNL     1       6.372   5.932  16.962  0.00  0.00    +0.000 A 
ATOM     13  C   UNL     1       7.199   5.356  15.983  0.00  0.00    +0.000 A 
ATOM     14  C   UNL     1       6.896   4.093  15.494  0.00  0.00    +0.000 A 
ATOM     15  C   UNL     1       5.793   3.406  16.003  0.00  0.00    +0.000 A 
ATOM     16  C   UNL     1       4.969   3.975  16.998  0.00  0.00    +0.000 A 
ENDROOT
BRANCH  12  17
ATOM     17  N   UNL     1       6.797   7.224  17.466  0.00  0.00    +0.000 N 
ATOM     18  O   UNL     1       7.608   7.214  18.401  0.00  0.00    +0.000 OA
ATOM     19  O   UNL     1       6.422   8.216  16.832  0.00  0.00    +0.000 OA
ENDBRANCH  12  17
BRANCH   4  20
ATOM     20  O   UNL     1       1.604   1.793  18.759  0.00  0.00    +0.000 OA
ATOM     21  H   UNL     1       1.256   1.808  17.837  0.00  0.00    +0.000 HD
ENDBRANCH   4  20
BRANCH   7  22
ATOM     22  N   UNL     1       2.436   7.068  20.371  0.00  0.00    +0.000 N 
ATOM     23  H   UNL     1       2.981   7.169  21.236  0.00  0.00    +0.000 HD
BRANCH  22  24
ATOM     24  C   UNL     1       1.597   8.175  20.141  0.00  0.00    +0.000 A 
ATOM     25  C   UNL     1       1.542   8.848  18.916  0.00  0.00    +0.000 A 
ATOM     26  C   UNL     1       0.670   9.923  18.723  0.00  0.00    +0.000 A 
ATOM     27  C   UNL     1      -0.160  10.354  19.761  0.00  0.00    +0.000 A 
ATOM     28  C   UNL     1      -0.075   9.716  21.004  0.00  0.00    +0.000 A 
ATOM     29  C   UNL     1       0.792   8.636  21.189  0.00  0.00    +0.000 A 
BRANCH  27  30
ATOM     30  C   UNL     1      -1.171  11.451  19.525  0.00  0.00    +0.000 C 
BRANCH  30  31
ATOM     31  C   UNL     1      -1.606  11.542  18.061  0.00  0.00    +0.000 C 
BRANCH  31  32
ATOM     32  O   UNL     1      -1.146  12.742  17.447  0.00  0.00    +0.000 OA
ATOM     33  H   UNL     1      -1.146  12.582  16.485  0.00  0.00    +0.000 HD
ENDBRANCH  31  32
ENDBRANCH  30  31
ENDBRANCH  27  30
ENDBRANCH  22  24
ENDBRANCH   7  22
BRANCH  15  34
ATOM     34  O   UNL     1       5.521   2.169  15.495  0.00  0.00    +0.000 OA
ATOM     35  H   UNL     1       5.610   2.150  14.530  0.00  0.00    +0.000 HD
ENDBRANCH  15  34
TORSDOF 8
ENDMDL
MODEL 2
REMARK VINA RESULT:      -7.3      3.747     10.424
REMARK  Name = 
REMARK  8 active torsions:
REMARK  status: ('A' for Active; 'I' for Inactive)
REMARK    1  A    between atoms: C_4  and  O_5
REMARK    2  A    between atoms: C_8  and  N_9
REMARK    3  A    between atoms: N_9  and  C_10
REMARK    4  A    between atoms: C_13  and  C_14
REMARK    5  A    between atoms: C_14  and  C_15
REMARK    6  A    between atoms: C_15  and  O_16
REMARK    7  A    between atoms: C_23  and  N_24
REMARK    8  A    between atoms: C_29  and  O_30
REMARK                            x       y       z     vdW  Elec       q    Type
REMARK                         _______ _______ _______ _____ _____    ______ ____
ROOT
ATOM      1  O   UNL     1      -5.855  12.354  19.163  0.00  0.00    +0.000 OA
ATOM      2  C   UNL     1      -4.681  12.404  19.512  0.00  0.00    +0.000 C 
ATOM      3  C   UNL     1      -3.692  11.735  18.649  0.00  0.00    +0.000 A 
ATOM      4  C   UNL     1      -4.117  11.089  17.474  0.00  0.00    +0.000 A 
ATOM      5  C   UNL     1      -3.213  10.425  16.661  0.00  0.00    +0.000 A 
ATOM      6  C   UNL     1      -1.871  10.391  17.023  0.00  0.00    +0.000 A 
ATOM      7  C   UNL     1      -1.410  11.027  18.191  0.00  0.00    +0.000 A 
ATOM      8  C   UNL     1      -2.344  11.710  19.009  0.00  0.00    +0.000 A 
ATOM      9  C   UNL     1      -1.924  12.376  20.270  0.00  0.00    +0.000 C 
ATOM     10  O   UNL     1      -0.788  12.211  20.697  0.00  0.00    +0.000 OA
ATOM     11  C   UNL     1      -2.888  13.172  21.064  0.00  0.00    +0.000 A 
ATOM     12  C   UNL     1      -2.505  13.913  22.196  0.00  0.00    +0.000 A 
ATOM     13  C   UNL     1      -3.447  14.553  23.020  0.00  0.00    +0.000 A 
ATOM     14  C   UNL     1      -4.797  14.455  22.713  0.00  0.00    +0.000 A 
ATOM     15  C   UNL     1      -5.193  13.749  21.576  0.00  0.00    +0.000 A 
ATOM     16  C   UNL     1      -4.249  13.119  20.737  0.00  0.00    +0.000 A 
ENDROOT
BRANCH  12  17
ATOM     17  N   UNL     1      -1.114  14.120  22.550  0.00  0.00    +0.000 N 
ATOM     18  O   UNL     1      -0.525  15.037  21.964  0.00  0.00    +0.000 OA
ATOM     19  O   UNL     1      -0.680  13.457  23.498  0.00  0.00    +0.000 OA
ENDBRANCH  12  17
BRANCH   4  20
ATOM     20  O   UNL     1      -5.423  11.047  17.062  0.00  0.00    +0.000 OA
ATOM     21  H   UNL     1      -5.996  11.194  17.849  0.00  0.00    +0.000 HD
ENDBRANCH   4  20
BRANCH   7  22
ATOM     22  N   UNL     1      -0.042  10.930  18.531  0.00  0.00    +0.000 N 
ATOM     23  H   UNL     1       0.523  11.702  18.158  0.00  0.00    +0.000 HD
BRANCH  22  24
ATOM     24  C   UNL     1       0.738   9.794  18.820  0.00  0.00    +0.000 A 
ATOM     25  C   UNL     1       0.841   9.247  20.104  0.00  0.00    +0.000 A 
ATOM     26  C   UNL     1       1.601   8.098  20.338  0.00  0.00    +0.000 A 
ATOM     27  C   UNL     1       2.287   7.479  19.291  0.00  0.00    +0.000 A 
ATOM     28  C   UNL     1       2.228   8.049  18.013  0.00  0.00    +0.000 A 
ATOM     29  C   UNL     1       1.458   9.193  17.782  0.00  0.00    +0.000 A 
BRANCH  27  30
ATOM     30  C   UNL     1       3.029   6.184  19.523  0.00  0.00    +0.000 C 
BRANCH  30  31
ATOM     31  C   UNL     1       2.151   5.114  20.174  0.00  0.00    +0.000 C 
BRANCH  31  32
ATOM     32  O   UNL     1       1.564   4.251  19.204  0.00  0.00    +0.000 OA
ATOM     33  H   UNL     1       0.868   4.768  18.756  0.00  0.00    +0.000 HD
ENDBRANCH  31  32
ENDBRANCH  30  31
ENDBRANCH  27  30
ENDBRANCH  22  24
ENDBRANCH   7  22
BRANCH  15  34
ATOM     34  O   UNL     1      -6.529  13.670  21.307  0.00  0.00    +0.000 OA
ATOM     35  H   UNL     1      -6.714  13.037  20.596  0.00  0.00    +0.000 HD
ENDBRANCH  15  34
TORSDOF 8
ENDMDL
MODEL 3
REMARK VINA RESULT:      -7.2      0.996      1.416
REMARK  Name = 
REMARK  8 active torsions:
REMARK  status: ('A' for Active; 'I' for Inactive)
REMARK    1  A    between atoms: C_4  and  O_5
REMARK    2  A    between atoms: C_8  and  N_9
REMARK    3  A    between atoms: N_9  and  C_10
REMARK    4  A    between atoms: C_13  and  C_14
REMARK    5  A    between atoms: C_14  and  C_15
REMARK    6  A    between atoms: C_15  and  O_16
REMARK    7  A    between atoms: C_23  and  N_24
REMARK    8  A    between atoms: C_29  and  O_30
REMARK                            x       y       z     vdW  Elec       q    Type
REMARK                         _______ _______ _______ _____ _____    ______ ____
ROOT
ATOM      1  O   UNL     1       3.595   2.214  16.772  0.00  0.00    +0.000 OA
ATOM      2  C   UNL     1       3.892   3.308  17.237  0.00  0.00    +0.000 C 
ATOM      3  C   UNL     1       3.021   3.848  18.295  0.00  0.00    +0.000 A 
ATOM      4  C   UNL     1       1.913   3.101  18.735  0.00  0.00    +0.000 A 
ATOM      5  C   UNL     1       1.060   3.599  19.705  0.00  0.00    +0.000 A 
ATOM      6  C   UNL     1       1.300   4.860  20.240  0.00  0.00    +0.000 A 
ATOM      7  C   UNL     1       2.399   5.635  19.825  0.00  0.00    +0.000 A 
ATOM      8  C   UNL     1       3.269   5.110  18.837  0.00  0.00    +0.000 A 
ATOM      9  C   UNL     1       4.430   5.892  18.336  0.00  0.00    +0.000 C 
ATOM     10  O   UNL     1       4.560   7.066  18.661  0.00  0.00    +0.000 OA
ATOM     11  C   UNL     1       5.390   5.295  17.380  0.00  0.00    +0.000 A 
ATOM     12  C   UNL     1       6.563   5.956  16.973  0.00  0.00    +0.000 A 
ATOM     13  C   UNL     1       7.395   5.441  15.965  0.00  0.00    +0.000 A 
ATOM     14  C   UNL     1       7.057   4.245  15.348  0.00  0.00    +0.000 A 
ATOM     15  C   UNL     1       5.913   3.560  15.760  0.00  0.00    +0.000 A 
ATOM     16  C   UNL     1       5.083   4.065  16.784  0.00  0.00    +0.000 A 
ENDROOT
BRANCH  12  17
ATOM     17  N   UNL     1       7.023   7.175  17.610  0.00  0.00    +0.000 N 
ATOM     18  O   UNL     1       7.771   7.040  18.586  0.00  0.00    +0.000 OA
ATOM     19  O   UNL     1       6.742   8.236  17.043  0.00  0.00    +0.000 OA
ENDBRANCH  12  17
BRANCH   4  20
ATOM     20  O   UNL     1       1.585   1.867  18.239  0.00  0.00    +0.000 OA
ATOM     21  H   UNL     1       0.827   1.519  18.762  0.00  0.00    +0.000 HD
ENDBRANCH   4  20
BRANCH   7  22
ATOM     22  N   UNL     1       2.576   6.925  20.374  0.00  0.00    +0.000 N 
ATOM     23  H   UNL     1       3.215   6.938  21.177  0.00  0.00    +0.000 HD
BRANCH  22  24
ATOM     24  C   UNL     1       1.711   8.036  20.367  0.00  0.00    +0.000 A 
ATOM     25  C   UNL     1       0.992   8.449  21.494  0.00  0.00    +0.000 A 
ATOM     26  C   UNL     1       0.170   9.578  21.451  0.00  0.00    +0.000 A 
ATOM     27  C   UNL     1       0.040  10.312  20.270  0.00  0.00    +0.000 A 
ATOM     28  C   UNL     1       0.719   9.877  19.125  0.00  0.00    +0.000 A 
ATOM     29  C   UNL     1       1.547   8.753  19.177  0.00  0.00    +0.000 A 
BRANCH  27  30
ATOM     30  C   UNL     1      -0.770  11.586  20.247  0.00  0.00    +0.000 C 
BRANCH  30  31
ATOM     31  C   UNL     1      -0.768  12.306  21.597  0.00  0.00    +0.000 C 
BRANCH  31  32
ATOM     32  O   UNL     1       0.424  13.061  21.791  0.00  0.00    +0.000 OA
ATOM     33  H   UNL     1       0.655  12.979  22.736  0.00  0.00    +0.000 HD
ENDBRANCH  31  32
ENDBRANCH  30  31
ENDBRANCH  27  30
ENDBRANCH  22  24
ENDBRANCH   7  22
BRANCH  15  34
ATOM     34  O   UNL     1       5.608   2.388  15.128  0.00  0.00    +0.000 OA
ATOM     35  H   UNL     1       4.669   2.167  15.219  0.00  0.00    +0.000 HD
ENDBRANCH  15  34
TORSDOF 8
ENDMDL
MODEL 4
REMARK VINA RESULT:      -7.1      1.357      1.556
REMARK  Name = 
REMARK  8 active torsions:
REMARK  status: ('A' for Active; 'I' for Inactive)
REMARK    1  A    between atoms: C_4  and  O_5
REMARK    2  A    between atoms: C_8  and  N_9
REMARK    3  A    between atoms: N_9  and  C_10
REMARK    4  A    between atoms: C_13  and  C_14
REMARK    5  A    between atoms: C_14  and  C_15
REMARK    6  A    between atoms: C_15  and  O_16
REMARK    7  A    between atoms: C_23  and  N_24
REMARK    8  A    between atoms: C_29  and  O_30
REMARK                            x       y       z     vdW  Elec       q    Type
REMARK                         _______ _______ _______ _____ _____    ______ ____
ROOT
ATOM      1  O   UNL     1       3.392   2.156  17.421  0.00  0.00    +0.000 OA
ATOM      2  C   UNL     1       3.710   3.304  17.709  0.00  0.00    +0.000 C 
ATOM      3  C   UNL     1       2.876   4.005  18.700  0.00  0.00    +0.000 A 
ATOM      4  C   UNL     1       1.778   3.344  19.280  0.00  0.00    +0.000 A 
ATOM      5  C   UNL     1       0.959   3.990  20.190  0.00  0.00    +0.000 A 
ATOM      6  C   UNL     1       1.223   5.314  20.523  0.00  0.00    +0.000 A 
ATOM      7  C   UNL     1       2.313   6.007  19.964  0.00  0.00    +0.000 A 
ATOM      8  C   UNL     1       3.149   5.331  19.040  0.00  0.00    +0.000 A 
ATOM      9  C   UNL     1       4.298   6.017  18.393  0.00  0.00    +0.000 C 
ATOM     10  O   UNL     1       4.445   7.225  18.535  0.00  0.00    +0.000 OA
ATOM     11  C   UNL     1       5.224   5.274  17.509  0.00  0.00    +0.000 A 
ATOM     12  C   UNL     1       6.387   5.855  16.972  0.00  0.00    +0.000 A 
ATOM     13  C   UNL     1       7.185   5.187  16.028  0.00  0.00    +0.000 A 
ATOM     14  C   UNL     1       6.820   3.915  15.607  0.00  0.00    +0.000 A 
ATOM     15  C   UNL     1       5.686   3.311  16.150  0.00  0.00    +0.000 A 
ATOM     16  C   UNL     1       4.892   3.972  17.112  0.00  0.00    +0.000 A 
ENDROOT
BRANCH  12  17
ATOM     17  N   UNL     1       6.875   7.150  17.406  0.00  0.00    +0.000 N 
ATOM     18  O   UNL     1       7.663   7.153  18.361  0.00  0.00    +0.000 OA
ATOM     19  O   UNL     1       6.571   8.119  16.703  0.00  0.00    +0.000 OA
ENDBRANCH  12  17
BRANCH   4  20
ATOM     20  O   UNL     1       1.428   2.053  18.983  0.00  0.00    +0.000 OA
ATOM     21  H   UNL     1       2.243   1.569  18.717  0.00  0.00    +0.000 HD
ENDBRANCH   4  20
BRANCH   7  22
ATOM     22  N   UNL     1       2.515   7.362  20.309  0.00  0.00    +0.000 N 
ATOM     23  H   UNL     1       3.407   7.528  20.788  0.00  0.00    +0.000 HD
BRANCH  22  24
ATOM     24  C   UNL     1       1.575   8.377  20.572  0.00  0.00    +0.000 A 
ATOM     25  C   UNL     1       1.029   9.188  19.572  0.00  0.00    +0.000 A 
ATOM     26  C   UNL     1       0.073  10.161  19.875  0.00  0.00    +0.000 A 
ATOM     27  C   UNL     1      -0.348  10.351  21.194  0.00  0.00    +0.000 A 
ATOM     28  C   UNL     1       0.230   9.575  22.206  0.00  0.00    +0.000 A 
ATOM     29  C   UNL     1       1.178   8.597  21.896  0.00  0.00    +0.000 A 
BRANCH  27  30
ATOM     30  C   UNL     1      -1.449  11.334  21.511  0.00  0.00    +0.000 C 
BRANCH  30  31
ATOM     31  C   UNL     1      -1.640  11.535  23.016  0.00  0.00    +0.000 C 
BRANCH  31  32
ATOM     32  O   UNL     1      -2.927  12.065  23.318  0.00  0.00    +0.000 OA
ATOM     33  H   UNL     1      -3.210  12.575  22.536  0.00  0.00    +0.000 HD
ENDBRANCH  31  32
ENDBRANCH  30  31
ENDBRANCH  27  30
ENDBRANCH  22  24
ENDBRANCH   7  22
BRANCH  15  34
ATOM     34  O   UNL     1       5.354   2.062  15.710  0.00  0.00    +0.000 OA
ATOM     35  H   UNL     1       6.127   1.478  15.677  0.00  0.00    +0.000 HD
ENDBRANCH  15  34
TORSDOF 8
ENDMDL
MODEL 5
REMARK VINA RESULT:      -7.1      3.544     10.224
REMARK  Name = 
REMARK  8 active torsions:
REMARK  status: ('A' for Active; 'I' for Inactive)
REMARK    1  A    between atoms: C_4  and  O_5
REMARK    2  A    between atoms: C_8  and  N_9
REMARK    3  A    between atoms: N_9  and  C_10
REMARK    4  A    between atoms: C_13  and  C_14
REMARK    5  A    between atoms: C_14  and  C_15
REMARK    6  A    between atoms: C_15  and  O_16
REMARK    7  A    between atoms: C_23  and  N_24
REMARK    8  A    between atoms: C_29  and  O_30
REMARK                            x       y       z     vdW  Elec       q    Type
REMARK                         _______ _______ _______ _____ _____    ______ ____
ROOT
ATOM      1  O   UNL     1      -5.502  12.308  18.898  0.00  0.00    +0.000 OA
ATOM      2  C   UNL     1      -4.348  12.314  19.311  0.00  0.00    +0.000 C 
ATOM      3  C   UNL     1      -3.355  11.543  18.543  0.00  0.00    +0.000 A 
ATOM      4  C   UNL     1      -3.752  10.856  17.381  0.00  0.00    +0.000 A 
ATOM      5  C   UNL     1      -2.847  10.098  16.659  0.00  0.00    +0.000 A 
ATOM      6  C   UNL     1      -1.531  10.009  17.098  0.00  0.00    +0.000 A 
ATOM      7  C   UNL     1      -1.097  10.684  18.255  0.00  0.00    +0.000 A 
ATOM      8  C   UNL     1      -2.032  11.463  18.980  0.00  0.00    +0.000 A 
ATOM      9  C   UNL     1      -1.643  12.176  20.225  0.00  0.00    +0.000 C 
ATOM     10  O   UNL     1      -0.543  11.973  20.725  0.00  0.00    +0.000 OA
ATOM     11  C   UNL     1      -2.600  13.067  20.919  0.00  0.00    +0.000 A 
ATOM     12  C   UNL     1      -2.236  13.849  22.030  0.00  0.00    +0.000 A 
ATOM     13  C   UNL     1      -3.181  14.586  22.763  0.00  0.00    +0.000 A 
ATOM     14  C   UNL     1      -4.517  14.546  22.385  0.00  0.00    +0.000 A 
ATOM     15  C   UNL     1      -4.891  13.800  21.267  0.00  0.00    +0.000 A 
ATOM     16  C   UNL     1      -3.942  13.072  20.518  0.00  0.00    +0.000 A 
ENDROOT
BRANCH  12  17
ATOM     17  N   UNL     1      -0.856  13.998  22.452  0.00  0.00    +0.000 N 
ATOM     18  O   UNL     1      -0.198  14.882  21.888  0.00  0.00    +0.000 OA
ATOM     19  O   UNL     1      -0.499  13.328  23.426  0.00  0.00    +0.000 OA
ENDBRANCH  12  17
BRANCH   4  20
ATOM     20  O   UNL     1      -5.034  10.862  16.898  0.00  0.00    +0.000 OA
ATOM     21  H   UNL     1      -5.543  11.547  17.390  0.00  0.00    +0.000 HD
ENDBRANCH   4  20
BRANCH   7  22
ATOM     22  N   UNL     1       0.243  10.531  18.677  0.00  0.00    +0.000 N 
ATOM     23  H   UNL     1       0.833  11.341  18.453  0.00  0.00    +0.000 HD
BRANCH  22  24
ATOM     24  C   UNL     1       1.001   9.360  18.868  0.00  0.00    +0.000 A 
ATOM     25  C   UNL     1       1.753   8.764  17.849  0.00  0.00    +0.000 A 
ATOM     26  C   UNL     1       2.517   7.620  18.092  0.00  0.00    +0.000 A 
ATOM     27  C   UNL     1       2.536   7.040  19.363  0.00  0.00    +0.000 A 
ATOM     28  C   UNL     1       1.749   7.603  20.375  0.00  0.00    +0.000 A 
ATOM     29  C   UNL     1       0.993   8.753  20.129  0.00  0.00    +0.000 A 
BRANCH  27  30
ATOM     30  C   UNL     1       3.436   5.863  19.653  0.00  0.00    +0.000 C 
BRANCH  30  31
ATOM     31  C   UNL     1       4.470   5.630  18.549  0.00  0.00    +0.000 C 
BRANCH  31  32
ATOM     32  O   UNL     1       5.382   4.592  18.890  0.00  0.00    +0.000 OA
ATOM     33  H   UNL     1       4.999   4.124  19.656  0.00  0.00    +0.000 HD
ENDBRANCH  31  32
ENDBRANCH  30  31
ENDBRANCH  27  30
ENDBRANCH  22  24
ENDBRANCH   7  22
BRANCH  15  34
ATOM     34  O   UNL     1      -6.213  13.779  20.926  0.00  0.00    +0.000 OA
ATOM     35  H   UNL     1      -6.774  13.556  21.684  0.00  0.00    +0.000 HD
ENDBRANCH  15  34
TORSDOF 8
ENDMDL
MODEL 6
REMARK VINA RESULT:      -7.1      3.479     10.128
REMARK  Name = 
REMARK  8 active torsions:
REMARK  status: ('A' for Active; 'I' for Inactive)
REMARK    1  A    between atoms: C_4  and  O_5
REMARK    2  A    between atoms: C_8  and  N_9
REMARK    3  A    between atoms: N_9  and  C_10
REMARK    4  A    between atoms: C_13  and  C_14
REMARK    5  A    between atoms: C_14  and  C_15
REMARK    6  A    between atoms: C_15  and  O_16
REMARK    7  A    between atoms: C_23  and  N_24
REMARK    8  A    between atoms: C_29  and  O_30
REMARK                            x       y       z     vdW  Elec       q    Type
REMARK                         _______ _______ _______ _____ _____    ______ ____
ROOT
ATOM      1  O   UNL     1      -4.725  13.069  21.657  0.00  0.00    +0.000 OA
ATOM      2  C   UNL     1      -4.033  12.617  20.751  0.00  0.00    +0.000 C 
ATOM      3  C   UNL     1      -2.613  12.365  21.050  0.00  0.00    +0.000 A 
ATOM      4  C   UNL     1      -2.114  12.632  22.338  0.00  0.00    +0.000 A 
ATOM      5  C   UNL     1      -0.776  12.435  22.636  0.00  0.00    +0.000 A 
ATOM      6  C   UNL     1       0.082  11.978  21.643  0.00  0.00    +0.000 A 
ATOM      7  C   UNL     1      -0.382  11.700  20.343  0.00  0.00    +0.000 A 
ATOM      8  C   UNL     1      -1.755  11.897  20.054  0.00  0.00    +0.000 A 
ATOM      9  C   UNL     1      -2.301  11.649  18.693  0.00  0.00    +0.000 C 
ATOM     10  O   UNL     1      -1.538  11.417  17.764  0.00  0.00    +0.000 OA
ATOM     11  C   UNL     1      -3.753  11.762  18.427  0.00  0.00    +0.000 A 
ATOM     12  C   UNL     1      -4.323  11.422  17.187  0.00  0.00    +0.000 A 
ATOM     13  C   UNL     1      -5.678  11.660  16.901  0.00  0.00    +0.000 A 
ATOM     14  C   UNL     1      -6.484  12.248  17.867  0.00  0.00    +0.000 A 
ATOM     15  C   UNL     1      -5.943  12.563  19.113  0.00  0.00    +0.000 A 
ATOM     16  C   UNL     1      -4.586  12.310  19.410  0.00  0.00    +0.000 A 
ENDROOT
BRANCH  12  17
ATOM     17  N   UNL     1      -3.569  10.746  16.149  0.00  0.00    +0.000 N 
ATOM     18  O   UNL     1      -3.397   9.529  16.294  0.00  0.00    +0.000 OA
ATOM     19  O   UNL     1      -3.284  11.413  15.149  0.00  0.00    +0.000 OA
ENDBRANCH  12  17
BRANCH   4  20
ATOM     20  O   UNL     1      -2.882  13.115  23.364  0.00  0.00    +0.000 OA
ATOM     21  H   UNL     1      -2.318  13.705  23.916  0.00  0.00    +0.000 HD
ENDBRANCH   4  20
BRANCH   7  22
ATOM     22  N   UNL     1       0.540  11.272  19.361  0.00  0.00    +0.000 N 
ATOM     23  H   UNL     1       0.472  11.803  18.485  0.00  0.00    +0.000 HD
BRANCH  22  24
ATOM     24  C   UNL     1       1.138  10.012  19.172  0.00  0.00    +0.000 A 
ATOM     25  C   UNL     1       1.708   9.613  17.959  0.00  0.00    +0.000 A 
ATOM     26  C   UNL     1       2.320   8.364  17.826  0.00  0.00    +0.000 A 
ATOM     27  C   UNL     1       2.364   7.480  18.908  0.00  0.00    +0.000 A 
ATOM     28  C   UNL     1       1.754   7.854  20.111  0.00  0.00    +0.000 A 
ATOM     29  C   UNL     1       1.151   9.108  20.241  0.00  0.00    +0.000 A 
BRANCH  27  30
ATOM     30  C   UNL     1       3.109   6.172  18.796  0.00  0.00    +0.000 C 
BRANCH  30  31
ATOM     31  C   UNL     1       2.245   5.054  18.207  0.00  0.00    +0.000 C 
BRANCH  31  32
ATOM     32  O   UNL     1       3.022   4.123  17.461  0.00  0.00    +0.000 OA
ATOM     33  H   UNL     1       2.427   3.386  17.227  0.00  0.00    +0.000 HD
ENDBRANCH  31  32
ENDBRANCH  30  31
ENDBRANCH  27  30
ENDBRANCH  22  24
ENDBRANCH   7  22
BRANCH  15  34
ATOM     34  O   UNL     1      -6.763  13.144  20.037  0.00  0.00    +0.000 OA
ATOM     35  H   UNL     1      -6.669  14.109  20.043  0.00  0.00    +0.000 HD
ENDBRANCH  15  34
TORSDOF 8
ENDMDL
MODEL 7
REMARK VINA RESULT:      -7.0      3.488     10.206
REMARK  Name = 
REMARK  8 active torsions:
REMARK  status: ('A' for Active; 'I' for Inactive)
REMARK    1  A    between atoms: C_4  and  O_5
REMARK    2  A    between atoms: C_8  and  N_9
REMARK    3  A    between atoms: N_9  and  C_10
REMARK    4  A    between atoms: C_13  and  C_14
REMARK    5  A    between atoms: C_14  and  C_15
REMARK    6  A    between atoms: C_15  and  O_16
REMARK    7  A    between atoms: C_23  and  N_24
REMARK    8  A    between atoms: C_29  and  O_30
REMARK                            x       y       z     vdW  Elec       q    Type
REMARK                         _______ _______ _______ _____ _____    ______ ____
ROOT
ATOM      1  O   UNL     1      -4.746  13.105  21.700  0.00  0.00    +0.000 OA
ATOM      2  C   UNL     1      -4.049  12.639  20.806  0.00  0.00    +0.000 C 
ATOM      3  C   UNL     1      -2.639  12.359  21.127  0.00  0.00    +0.000 A 
ATOM      4  C   UNL     1      -2.156  12.615  22.423  0.00  0.00    +0.000 A 
ATOM      5  C   UNL     1      -0.828  12.392  22.743  0.00  0.00    +0.000 A 
ATOM      6  C   UNL     1       0.037  11.917  21.764  0.00  0.00    +0.000 A 
ATOM      7  C   UNL     1      -0.411  11.648  20.458  0.00  0.00    +0.000 A 
ATOM      8  C   UNL     1      -1.775  11.873  20.146  0.00  0.00    +0.000 A 
ATOM      9  C   UNL     1      -2.303  11.635  18.776  0.00  0.00    +0.000 C 
ATOM     10  O   UNL     1      -1.530  11.387  17.859  0.00  0.00    +0.000 OA
ATOM     11  C   UNL     1      -3.748  11.777  18.487  0.00  0.00    +0.000 A 
ATOM     12  C   UNL     1      -4.305  11.449  17.237  0.00  0.00    +0.000 A 
ATOM     13  C   UNL     1      -5.650  11.714  16.929  0.00  0.00    +0.000 A 
ATOM     14  C   UNL     1      -6.460  12.319  17.881  0.00  0.00    +0.000 A 
ATOM     15  C   UNL     1      -5.932  12.624  19.137  0.00  0.00    +0.000 A 
ATOM     16  C   UNL     1      -4.587  12.343  19.456  0.00  0.00    +0.000 A 
ENDROOT
BRANCH  12  17
ATOM     17  N   UNL     1      -3.548  10.758  16.212  0.00  0.00    +0.000 N 
ATOM     18  O   UNL     1      -3.380   9.541  16.373  0.00  0.00    +0.000 OA
ATOM     19  O   UNL     1      -3.256  11.410  15.204  0.00  0.00    +0.000 OA
ENDBRANCH  12  17
BRANCH   4  20
ATOM     20  O   UNL     1      -2.931  13.114  23.437  0.00  0.00    +0.000 OA
ATOM     21  H   UNL     1      -3.760  12.584  23.477  0.00  0.00    +0.000 HD
ENDBRANCH   4  20
BRANCH   7  22
ATOM     22  N   UNL     1       0.518  11.201  19.491  0.00  0.00    +0.000 N 
ATOM     23  H   UNL     1       0.465  11.723  18.608  0.00  0.00    +0.000 HD
BRANCH  22  24
ATOM     24  C   UNL     1       1.106   9.933  19.322  0.00  0.00    +0.000 A 
ATOM     25  C   UNL     1       1.189   8.989  20.351  0.00  0.00    +0.000 A 
ATOM     26  C   UNL     1       1.753   7.729  20.129  0.00  0.00    +0.000 A 
ATOM     27  C   UNL     1       2.258   7.393  18.871  0.00  0.00    +0.000 A 
ATOM     28  C   UNL     1       2.222   8.351  17.850  0.00  0.00    +0.000 A 
ATOM     29  C   UNL     1       1.649   9.605  18.075  0.00  0.00    +0.000 A 
BRANCH  27  30
ATOM     30  C   UNL     1       2.779   6.001  18.603  0.00  0.00    +0.000 C 
BRANCH  30  31
ATOM     31  C   UNL     1       4.269   5.862  18.922  0.00  0.00    +0.000 C 
BRANCH  31  32
ATOM     32  O   UNL     1       4.599   4.541  19.337  0.00  0.00    +0.000 OA
ATOM     33  H   UNL     1       4.764   4.025  18.525  0.00  0.00    +0.000 HD
ENDBRANCH  31  32
ENDBRANCH  30  31
ENDBRANCH  27  30
ENDBRANCH  22  24
ENDBRANCH   7  22
BRANCH  15  34
ATOM     34  O   UNL     1      -6.756  13.221  20.047  0.00  0.00    +0.000 OA
ATOM     35  H   UNL     1      -7.230  12.568  20.583  0.00  0.00    +0.000 HD
ENDBRANCH  15  34
TORSDOF 8
ENDMDL
MODEL 8
REMARK VINA RESULT:      -6.9      3.354      9.450
REMARK  Name = 
REMARK  8 active torsions:
REMARK  status: ('A' for Active; 'I' for Inactive)
REMARK    1  A    between atoms: C_4  and  O_5
REMARK    2  A    between atoms: C_8  and  N_9
REMARK    3  A    between atoms: N_9  and  C_10
REMARK    4  A    between atoms: C_13  and  C_14
REMARK    5  A    between atoms: C_14  and  C_15
REMARK    6  A    between atoms: C_15  and  O_16
REMARK    7  A    between atoms: C_23  and  N_24
REMARK    8  A    between atoms: C_29  and  O_30
REMARK                            x       y       z     vdW  Elec       q    Type
REMARK                         _______ _______ _______ _____ _____    ______ ____
ROOT
ATOM      1  O   UNL     1      -3.205  13.424  20.238  0.00  0.00    +0.000 OA
ATOM      2  C   UNL     1      -2.017  13.144  20.114  0.00  0.00    +0.000 C 
ATOM      3  C   UNL     1      -1.681  12.018  19.226  0.00  0.00    +0.000 A 
ATOM      4  C   UNL     1      -2.706  11.328  18.555  0.00  0.00    +0.000 A 
ATOM      5  C   UNL     1      -2.420  10.246  17.740  0.00  0.00    +0.000 A 
ATOM      6  C   UNL     1      -1.100   9.834  17.596  0.00  0.00    +0.000 A 
ATOM      7  C   UNL     1      -0.048  10.500  18.251  0.00  0.00    +0.000 A 
ATOM      8  C   UNL     1      -0.354  11.611  19.075  0.00  0.00    +0.000 A 
ATOM      9  C   UNL     1       0.710  12.339  19.817  0.00  0.00    +0.000 C 
ATOM     10  O   UNL     1       1.849  11.890  19.845  0.00  0.00    +0.000 OA
ATOM     11  C   UNL     1       0.392  13.558  20.594  0.00  0.00    +0.000 A 
ATOM     12  C   UNL     1       1.385  14.341  21.212  0.00  0.00    +0.000 A 
ATOM     13  C   UNL     1       1.065  15.416  22.058  0.00  0.00    +0.000 A 
ATOM     14  C   UNL     1      -0.268  15.721  22.296  0.00  0.00    +0.000 A 
ATOM     15  C   UNL     1      -1.266  14.975  21.668  0.00  0.00    +0.000 A 
ATOM     16  C   UNL     1      -0.948  13.905  20.804  0.00  0.00    +0.000 A 
ENDROOT
BRANCH  12  17
ATOM     17  N   UNL     1       2.799  14.132  20.965  0.00  0.00    +0.000 N 
ATOM     18  O   UNL     1       3.263  14.647  19.940  0.00  0.00    +0.000 OA
ATOM     19  O   UNL     1       3.442  13.578  21.863  0.00  0.00    +0.000 OA
ENDBRANCH  12  17
BRANCH   4  20
ATOM     20  O   UNL     1      -4.034  11.647  18.668  0.00  0.00    +0.000 OA
ATOM     21  H   UNL     1      -4.254  11.705  19.626  0.00  0.00    +0.000 HD
ENDBRANCH   4  20
BRANCH   7  22
ATOM     22  N   UNL     1       1.271  10.017  18.099  0.00  0.00    +0.000 N 
ATOM     23  H   UNL     1       1.757  10.418  17.288  0.00  0.00    +0.000 HD
BRANCH  22  24
ATOM     24  C   UNL     1       1.837   8.793  18.504  0.00  0.00    +0.000 A 
ATOM     25  C   UNL     1       1.629   8.240  19.772  0.00  0.00    +0.000 A 
ATOM     26  C   UNL     1       2.183   7.006  20.120  0.00  0.00    +0.000 A 
ATOM     27  C   UNL     1       2.972   6.303  19.205  0.00  0.00    +0.000 A 
ATOM     28  C   UNL     1       3.224   6.873  17.952  0.00  0.00    +0.000 A 
ATOM     29  C   UNL     1       2.659   8.103  17.606  0.00  0.00    +0.000 A 
BRANCH  27  30
ATOM     30  C   UNL     1       3.492   4.926  19.544  0.00  0.00    +0.000 C 
BRANCH  30  31
ATOM     31  C   UNL     1       4.432   4.375  18.470  0.00  0.00    +0.000 C 
BRANCH  31  32
ATOM     32  O   UNL     1       5.579   3.753  19.041  0.00  0.00    +0.000 OA
ATOM     33  H   UNL     1       6.088   4.458  19.484  0.00  0.00    +0.000 HD
ENDBRANCH  31  32
ENDBRANCH  30  31
ENDBRANCH  27  30
ENDBRANCH  22  24
ENDBRANCH   7  22
BRANCH  15  34
ATOM     34  O   UNL     1      -2.566  15.299  21.929  0.00  0.00    +0.000 OA
ATOM     35  H   UNL     1      -2.942  15.859  21.232  0.00  0.00    +0.000 HD
ENDBRANCH  15  34
TORSDOF 8
ENDMDL
MODEL 9
REMARK VINA RESULT:      -6.9      0.962      1.159
REMARK  Name = 
REMARK  8 active torsions:
REMARK  status: ('A' for Active; 'I' for Inactive)
REMARK    1  A    between atoms: C_4  and  O_5
REMARK    2  A    between atoms: C_8  and  N_9
REMARK    3  A    between atoms: N_9  and  C_10
REMARK    4  A    between atoms: C_13  and  C_14
REMARK    5  A    between atoms: C_14  and  C_15
REMARK    6  A    between atoms: C_15  and  O_16
REMARK    7  A    between atoms: C_23  and  N_24
REMARK    8  A    between atoms: C_29  and  O_30
REMARK                            x       y       z     vdW  Elec       q    Type
REMARK                         _______ _______ _______ _____ _____    ______ ____
ROOT
ATOM      1  O   UNL     1       3.551   2.192  17.024  0.00  0.00    +0.000 OA
ATOM      2  C   UNL     1       3.850   3.312  17.422  0.00  0.00    +0.000 C 
ATOM      3  C   UNL     1       2.977   3.920  18.441  0.00  0.00    +0.000 A 
ATOM      4  C   UNL     1       1.865   3.206  18.922  0.00  0.00    +0.000 A 
ATOM      5  C   UNL     1       1.010   3.766  19.856  0.00  0.00    +0.000 A 
ATOM      6  C   UNL     1       1.253   5.057  20.312  0.00  0.00    +0.000 A 
ATOM      7  C   UNL     1       2.356   5.801  19.853  0.00  0.00    +0.000 A 
ATOM      8  C   UNL     1       3.228   5.212  18.904  0.00  0.00    +0.000 A 
ATOM      9  C   UNL     1       4.394   5.957  18.359  0.00  0.00    +0.000 C 
ATOM     10  O   UNL     1       4.527   7.149  18.610  0.00  0.00    +0.000 OA
ATOM     11  C   UNL     1       5.354   5.298  17.445  0.00  0.00    +0.000 A 
ATOM     12  C   UNL     1       6.531   5.929  17.002  0.00  0.00    +0.000 A 
ATOM     13  C   UNL     1       7.365   5.350  16.031  0.00  0.00    +0.000 A 
ATOM     14  C   UNL     1       7.025   4.118  15.489  0.00  0.00    +0.000 A 
ATOM     15  C   UNL     1       5.877   3.464  15.939  0.00  0.00    +0.000 A 
ATOM     16  C   UNL     1       5.046   4.035  16.926  0.00  0.00    +0.000 A 
ENDROOT
BRANCH  12  17
ATOM     17  N   UNL     1       6.993   7.184  17.563  0.00  0.00    +0.000 N 
ATOM     18  O   UNL     1       6.557   8.218  17.040  0.00  0.00    +0.000 OA
ATOM     19  O   UNL     1       7.669   7.114  18.595  0.00  0.00    +0.000 OA
ENDBRANCH  12  17
BRANCH   4  20
ATOM     20  O   UNL     1       1.535   1.944  18.503  0.00  0.00    +0.000 OA
ATOM     21  H   UNL     1       1.101   2.019  17.622  0.00  0.00    +0.000 HD
ENDBRANCH   4  20
BRANCH   7  22
ATOM     22  N   UNL     1       2.536   7.123  20.321  0.00  0.00    +0.000 N 
ATOM     23  H   UNL     1       3.225   7.192  21.079  0.00  0.00    +0.000 HD
BRANCH  22  24
ATOM     24  C   UNL     1       1.645   8.212  20.314  0.00  0.00    +0.000 A 
ATOM     25  C   UNL     1       1.408   8.995  19.179  0.00  0.00    +0.000 A 
ATOM     26  C   UNL     1       0.489  10.047  19.208  0.00  0.00    +0.000 A 
ATOM     27  C   UNL     1      -0.205  10.346  20.383  0.00  0.00    +0.000 A 
ATOM     28  C   UNL     1       0.063   9.598  21.536  0.00  0.00    +0.000 A 
ATOM     29  C   UNL     1       0.976   8.540  21.498  0.00  0.00    +0.000 A 
BRANCH  27  30
ATOM     30  C   UNL     1      -1.268  11.419  20.391  0.00  0.00    +0.000 C 
BRANCH  30  31
ATOM     31  C   UNL     1      -0.682  12.822  20.572  0.00  0.00    +0.000 C 
BRANCH  31  32
ATOM     32  O   UNL     1       0.045  12.937  21.791  0.00  0.00    +0.000 OA
ATOM     33  H   UNL     1       0.391  12.047  21.995  0.00  0.00    +0.000 HD
ENDBRANCH  31  32
ENDBRANCH  30  31
ENDBRANCH  27  30
ENDBRANCH  22  24
ENDBRANCH   7  22
BRANCH  15  34
ATOM     34  O   UNL     1       5.570   2.257  15.381  0.00  0.00    +0.000 OA
ATOM     35  H   UNL     1       5.707   1.528  16.005  0.00  0.00    +0.000 HD
ENDBRANCH  15  34
TORSDOF 8
ENDMDL
