MODEL 1
REMARK VINA RESULT:      -7.9      0.000      0.000
REMARK  Name = 
REMARK  9 active torsions:
REMARK  status: ('A' for Active; 'I' for Inactive)
REMARK    1  A    between atoms: C_1  and  C_2
REMARK    2  A    between atoms: C_4  and  C_5
REMARK    3  A    between atoms: N_6  and  C_7
REMARK    4  A    between atoms: C_7  and  C_8
REMARK    5  A    between atoms: C_8  and  O_9
REMARK    6  A    between atoms: C_8  and  C_10
REMARK    7  A    between atoms: C_10  and  N_11
REMARK    8  A    between atoms: N_11  and  S_12
REMARK    9  A    between atoms: S_12  and  C_15
REMARK                            x       y       z     vdW  Elec       q    Type
REMARK                         _______ _______ _______ _____ _____    ______ ____
ROOT
ATOM      1  N   UNL     1       6.811   6.748  17.751  0.00  0.00    +0.000 NA
ATOM      2  H   UNL     1       6.232   6.682  18.591  0.00  0.00    +0.000 HD
ENDROOT
BRANCH   1   3
ATOM      3  S   UNL     1       6.327   5.694  16.534  0.00  0.00    +0.000 S 
ATOM      4  O   UNL     1       5.869   6.512  15.433  0.00  0.00    +0.000 OA
ATOM      5  O   UNL     1       7.359   4.695  16.368  0.00  0.00    +0.000 OA
BRANCH   3   6
ATOM      6  C   UNL     1       4.897   4.924  17.247  0.00  0.00    +0.000 A 
ATOM      7  C   UNL     1       4.329   3.802  16.644  0.00  0.00    +0.000 A 
ATOM      8  C   UNL     1       3.188   3.226  17.203  0.00  0.00    +0.000 A 
ATOM      9  C   UNL     1       2.605   3.768  18.363  0.00  0.00    +0.000 A 
ATOM     10  C   UNL     1       1.448   3.206  18.932  0.00  0.00    +0.000 A 
ATOM     11  C   UNL     1       0.880   3.759  20.079  0.00  0.00    +0.000 A 
ATOM     12  C   UNL     1       1.454   4.878  20.673  0.00  0.00    +0.000 A 
ATOM     13  C   UNL     1       2.602   5.449  20.121  0.00  0.00    +0.000 A 
ATOM     14  C   UNL     1       3.188   4.907  18.969  0.00  0.00    +0.000 A 
ATOM     15  C   UNL     1       4.336   5.479  18.400  0.00  0.00    +0.000 A 
ENDBRANCH   3   6
ENDBRANCH   1   3
BRANCH   1  16
ATOM     16  C   UNL     1       7.194   8.111  17.351  0.00  0.00    +0.000 C 
BRANCH  16  17
ATOM     17  C   UNL     1       8.536   8.498  18.001  0.00  0.00    +0.000 C 
BRANCH  17  18
ATOM     18  O   UNL     1       8.745   7.652  19.146  0.00  0.00    +0.000 OA
ATOM     19  H   UNL     1       8.278   6.813  18.983  0.00  0.00    +0.000 HD
ENDBRANCH  17  18
BRANCH  17  20
ATOM     20  C   UNL     1       8.478  10.000  18.382  0.00  0.00    +0.000 C 
BRANCH  20  26
ATOM     21  C   UNL     1       9.683  13.177  21.931  0.00  0.00    +0.000 C 
ATOM     22  C   UNL     1       9.705  12.561  20.543  0.00  0.00    +0.000 C 
ATOM     23  C   UNL     1      11.051  11.983  20.143  0.00  0.00    +0.000 C 
ATOM     24  C   UNL     1      10.690  11.044  18.986  0.00  0.00    +0.000 C 
ATOM     25  C   UNL     1      10.686  11.817  17.661  0.00  0.00    +0.000 C 
ATOM     26  N   UNL     1       9.407  10.457  19.419  0.00  0.00    +0.000 NA
ATOM     27  C   UNL     1       8.765  11.371  20.381  0.00  0.00    +0.000 C 
ENDBRANCH  20  26
ENDBRANCH  17  20
ENDBRANCH  16  17
ENDBRANCH   1  16
TORSDOF 7
ENDMDL
MODEL 2
REMARK VINA RESULT:      -7.8      1.077      1.187
REMARK  Name = 
REMARK  9 active torsions:
REMARK  status: ('A' for Active; 'I' for Inactive)
REMARK    1  A    between atoms: C_1  and  C_2
REMARK    2  A    between atoms: C_4  and  C_5
REMARK    3  A    between atoms: N_6  and  C_7
REMARK    4  A    between atoms: C_7  and  C_8
REMARK    5  A    between atoms: C_8  and  O_9
REMARK    6  A    between atoms: C_8  and  C_10
REMARK    7  A    between atoms: C_10  and  N_11
REMARK    8  A    between atoms: N_11  and  S_12
REMARK    9  A    between atoms: S_12  and  C_15
REMARK                            x       y       z     vdW  Elec       q    Type
REMARK                         _______ _______ _______ _____ _____    ______ ____
ROOT
ATOM      1  N   UNL     1       6.557   6.578  18.060  0.00  0.00    +0.000 NA
ATOM      2  H   UNL     1       5.655   6.773  18.501  0.00  0.00    +0.000 HD
ENDROOT
BRANCH   1   3
ATOM      3  S   UNL     1       6.690   4.996  17.508  0.00  0.00    +0.000 S 
ATOM      4  O   UNL     1       6.842   5.067  16.072  0.00  0.00    +0.000 OA
ATOM      5  O   UNL     1       7.645   4.306  18.346  0.00  0.00    +0.000 OA
BRANCH   3   6
ATOM      6  C   UNL     1       5.072   4.344  17.833  0.00  0.00    +0.000 A 
ATOM      7  C   UNL     1       4.349   3.721  16.816  0.00  0.00    +0.000 A 
ATOM      8  C   UNL     1       3.066   3.239  17.082  0.00  0.00    +0.000 A 
ATOM      9  C   UNL     1       2.498   3.380  18.362  0.00  0.00    +0.000 A 
ATOM     10  C   UNL     1       1.203   2.910  18.643  0.00  0.00    +0.000 A 
ATOM     11  C   UNL     1       0.652   3.063  19.914  0.00  0.00    +0.000 A 
ATOM     12  C   UNL     1       1.381   3.686  20.922  0.00  0.00    +0.000 A 
ATOM     13  C   UNL     1       2.668   4.159  20.660  0.00  0.00    +0.000 A 
ATOM     14  C   UNL     1       3.239   4.014  19.388  0.00  0.00    +0.000 A 
ATOM     15  C   UNL     1       4.528   4.495  19.111  0.00  0.00    +0.000 A 
ENDBRANCH   3   6
ENDBRANCH   1   3
BRANCH   1  16
ATOM     16  C   UNL     1       7.081   7.643  17.191  0.00  0.00    +0.000 C 
BRANCH  16  17
ATOM     17  C   UNL     1       8.337   8.273  17.822  0.00  0.00    +0.000 C 
BRANCH  17  18
ATOM     18  O   UNL     1       8.633   7.570  19.041  0.00  0.00    +0.000 OA
ATOM     19  H   UNL     1       9.204   6.814  18.816  0.00  0.00    +0.000 HD
ENDBRANCH  17  18
BRANCH  17  20
ATOM     20  C   UNL     1       8.057   9.779  18.064  0.00  0.00    +0.000 C 
BRANCH  20  26
ATOM     21  C   UNL     1      10.300  12.635  21.374  0.00  0.00    +0.000 C 
ATOM     22  C   UNL     1       9.478  12.312  20.138  0.00  0.00    +0.000 C 
ATOM     23  C   UNL     1      10.124  12.744  18.834  0.00  0.00    +0.000 C 
ATOM     24  C   UNL     1       9.377  11.907  17.788  0.00  0.00    +0.000 C 
ATOM     25  C   UNL     1       8.104  12.638  17.341  0.00  0.00    +0.000 C 
ATOM     26  N   UNL     1       9.197  10.609  18.465  0.00  0.00    +0.000 NA
ATOM     27  C   UNL     1       9.249  10.819  19.923  0.00  0.00    +0.000 C 
ENDBRANCH  20  26
ENDBRANCH  17  20
ENDBRANCH  16  17
ENDBRANCH   1  16
TORSDOF 7
ENDMDL
MODEL 3
REMARK VINA RESULT:      -7.7      4.247      6.692
REMARK  Name = 
REMARK  9 active torsions:
REMARK  status: ('A' for Active; 'I' for Inactive)
REMARK    1  A    between atoms: C_1  and  C_2
REMARK    2  A    between atoms: C_4  and  C_5
REMARK    3  A    between atoms: N_6  and  C_7
REMARK    4  A    between atoms: C_7  and  C_8
REMARK    5  A    between atoms: C_8  and  O_9
REMARK    6  A    between atoms: C_8  and  C_10
REMARK    7  A    between atoms: C_10  and  N_11
REMARK    8  A    between atoms: N_11  and  S_12
REMARK    9  A    between atoms: S_12  and  C_15
REMARK                            x       y       z     vdW  Elec       q    Type
REMARK                         _______ _______ _______ _____ _____    ______ ____
ROOT
ATOM      1  N   UNL     1       2.144   3.763  18.636  0.00  0.00    +0.000 NA
ATOM      2  H   UNL     1       1.254   3.924  18.157  0.00  0.00    +0.000 HD
ENDROOT
BRANCH   1   3
ATOM      3  S   UNL     1       2.268   4.603  20.087  0.00  0.00    +0.000 S 
ATOM      4  O   UNL     1       1.117   4.236  20.881  0.00  0.00    +0.000 OA
ATOM      5  O   UNL     1       3.619   4.449  20.580  0.00  0.00    +0.000 OA
BRANCH   3   6
ATOM      6  C   UNL     1       2.038   6.285  19.573  0.00  0.00    +0.000 A 
ATOM      7  C   UNL     1       2.409   6.684  18.289  0.00  0.00    +0.000 A 
ATOM      8  C   UNL     1       2.246   8.018  17.912  0.00  0.00    +0.000 A 
ATOM      9  C   UNL     1       1.715   8.959  18.813  0.00  0.00    +0.000 A 
ATOM     10  C   UNL     1       1.556  10.309  18.451  0.00  0.00    +0.000 A 
ATOM     11  C   UNL     1       1.034  11.230  19.358  0.00  0.00    +0.000 A 
ATOM     12  C   UNL     1       0.666  10.822  20.636  0.00  0.00    +0.000 A 
ATOM     13  C   UNL     1       0.819   9.486  21.012  0.00  0.00    +0.000 A 
ATOM     14  C   UNL     1       1.341   8.545  20.114  0.00  0.00    +0.000 A 
ATOM     15  C   UNL     1       1.509   7.202  20.484  0.00  0.00    +0.000 A 
ENDBRANCH   3   6
ENDBRANCH   1   3
BRANCH   1  16
ATOM     16  C   UNL     1       2.634   2.377  18.614  0.00  0.00    +0.000 C 
BRANCH  16  17
ATOM     17  C   UNL     1       4.090   2.336  18.111  0.00  0.00    +0.000 C 
BRANCH  17  18
ATOM     18  O   UNL     1       4.962   2.302  19.253  0.00  0.00    +0.000 OA
ATOM     19  H   UNL     1       5.506   3.110  19.235  0.00  0.00    +0.000 HD
ENDBRANCH  17  18
BRANCH  17  20
ATOM     20  C   UNL     1       4.333   3.584  17.222  0.00  0.00    +0.000 C 
BRANCH  20  26
ATOM     21  C   UNL     1       7.489   7.339  17.509  0.00  0.00    +0.000 C 
ATOM     22  C   UNL     1       6.612   6.301  16.829  0.00  0.00    +0.000 C 
ATOM     23  C   UNL     1       7.383   5.281  16.010  0.00  0.00    +0.000 C 
ATOM     24  C   UNL     1       6.377   4.135  15.855  0.00  0.00    +0.000 C 
ATOM     25  C   UNL     1       5.489   4.376  14.627  0.00  0.00    +0.000 C 
ATOM     26  N   UNL     1       5.702   4.102  17.167  0.00  0.00    +0.000 NA
ATOM     27  C   UNL     1       5.824   5.428  17.800  0.00  0.00    +0.000 C 
ENDBRANCH  20  26
ENDBRANCH  17  20
ENDBRANCH  16  17
ENDBRANCH   1  16
TORSDOF 7
ENDMDL
MODEL 4
REMARK VINA RESULT:      -7.6      0.769      1.489
REMARK  Name = 
REMARK  9 active torsions:
REMARK  status: ('A' for Active; 'I' for Inactive)
REMARK    1  A    between atoms: C_1  and  C_2
REMARK    2  A    between atoms: C_4  and  C_5
REMARK    3  A    between atoms: N_6  and  C_7
REMARK    4  A    between atoms: C_7  and  C_8
REMARK    5  A    between atoms: C_8  and  O_9
REMARK    6  A    between atoms: C_8  and  C_10
REMARK    7  A    between atoms: C_10  and  N_11
REMARK    8  A    between atoms: N_11  and  S_12
REMARK    9  A    between atoms: S_12  and  C_15
REMARK                            x       y       z     vdW  Elec       q    Type
REMARK                         _______ _______ _______ _____ _____    ______ ____
ROOT
ATOM      1  N   UNL     1       6.869   6.463  17.276  0.00  0.00    +0.000 NA
ATOM      2  H   UNL     1       6.896   5.923  18.144  0.00  0.00    +0.000 HD
ENDROOT
BRANCH   1   3
ATOM      3  S   UNL     1       5.710   5.910  16.192  0.00  0.00    +0.000 S 
ATOM      4  O   UNL     1       5.302   7.049  15.401  0.00  0.00    +0.000 OA
ATOM      5  O   UNL     1       6.207   4.695  15.585  0.00  0.00    +0.000 OA
BRANCH   3   6
ATOM      6  C   UNL     1       4.356   5.500  17.262  0.00  0.00    +0.000 A 
ATOM      7  C   UNL     1       3.650   6.508  17.919  0.00  0.00    +0.000 A 
ATOM      8  C   UNL     1       2.606   6.166  18.779  0.00  0.00    +0.000 A 
ATOM      9  C   UNL     1       2.262   4.818  18.990  0.00  0.00    +0.000 A 
ATOM     10  C   UNL     1       1.220   4.456  19.862  0.00  0.00    +0.000 A 
ATOM     11  C   UNL     1       0.896   3.116  20.065  0.00  0.00    +0.000 A 
ATOM     12  C   UNL     1       1.606   2.117  19.405  0.00  0.00    +0.000 A 
ATOM     13  C   UNL     1       2.644   2.459  18.536  0.00  0.00    +0.000 A 
ATOM     14  C   UNL     1       2.984   3.802  18.319  0.00  0.00    +0.000 A 
ATOM     15  C   UNL     1       4.032   4.156  17.457  0.00  0.00    +0.000 A 
ENDBRANCH   3   6
ENDBRANCH   1   3
BRANCH   1  16
ATOM     16  C   UNL     1       7.008   7.919  17.432  0.00  0.00    +0.000 C 
BRANCH  16  17
ATOM     17  C   UNL     1       8.400   8.264  17.993  0.00  0.00    +0.000 C 
BRANCH  17  18
ATOM     18  O   UNL     1       8.623   7.468  19.170  0.00  0.00    +0.000 OA
ATOM     19  H   UNL     1       9.032   8.042  19.842  0.00  0.00    +0.000 HD
ENDBRANCH  17  18
BRANCH  17  20
ATOM     20  C   UNL     1       8.441   9.785  18.295  0.00  0.00    +0.000 C 
BRANCH  20  26
ATOM     21  C   UNL     1       9.621  12.750  22.031  0.00  0.00    +0.000 C 
ATOM     22  C   UNL     1       9.599  12.255  20.595  0.00  0.00    +0.000 C 
ATOM     23  C   UNL     1      10.958  11.830  20.066  0.00  0.00    +0.000 C 
ATOM     24  C   UNL     1      10.597  10.962  18.855  0.00  0.00    +0.000 C 
ATOM     25  C   UNL     1      10.442  11.839  17.605  0.00  0.00    +0.000 C 
ATOM     26  N   UNL     1       9.398  10.233  19.310  0.00  0.00    +0.000 NA
ATOM     27  C   UNL     1       8.750  11.005  20.386  0.00  0.00    +0.000 C 
ENDBRANCH  20  26
ENDBRANCH  17  20
ENDBRANCH  16  17
ENDBRANCH   1  16
TORSDOF 7
ENDMDL
MODEL 5
REMARK VINA RESULT:      -7.6      4.793      6.459
REMARK  Name = 
REMARK  9 active torsions:
REMARK  status: ('A' for Active; 'I' for Inactive)
REMARK    1  A    between atoms: C_1  and  C_2
REMARK    2  A    between atoms: C_4  and  C_5
REMARK    3  A    between atoms: N_6  and  C_7
REMARK    4  A    between atoms: C_7  and  C_8
REMARK    5  A    between atoms: C_8  and  O_9
REMARK    6  A    between atoms: C_8  and  C_10
REMARK    7  A    between atoms: C_10  and  N_11
REMARK    8  A    between atoms: N_11  and  S_12
REMARK    9  A    between atoms: S_12  and  C_15
REMARK                            x       y       z     vdW  Elec       q    Type
REMARK                         _______ _______ _______ _____ _____    ______ ____
ROOT
ATOM      1  N   UNL     1       4.763   3.383  18.800  0.00  0.00    +0.000 NA
ATOM      2  H   UNL     1       5.212   2.530  19.144  0.00  0.00    +0.000 HD
ENDROOT
BRANCH   1   3
ATOM      3  S   UNL     1       3.089   3.258  18.721  0.00  0.00    +0.000 S 
ATOM      4  O   UNL     1       2.748   3.114  17.322  0.00  0.00    +0.000 OA
ATOM      5  O   UNL     1       2.662   2.298  19.715  0.00  0.00    +0.000 OA
BRANCH   3   6
ATOM      6  C   UNL     1       2.563   4.875  19.226  0.00  0.00    +0.000 A 
ATOM      7  C   UNL     1       2.108   5.091  20.527  0.00  0.00    +0.000 A 
ATOM      8  C   UNL     1       1.672   6.363  20.898  0.00  0.00    +0.000 A 
ATOM      9  C   UNL     1       1.685   7.425  19.975  0.00  0.00    +0.000 A 
ATOM     10  C   UNL     1       1.238   8.710  20.330  0.00  0.00    +0.000 A 
ATOM     11  C   UNL     1       1.251   9.749  19.402  0.00  0.00    +0.000 A 
ATOM     12  C   UNL     1       1.706   9.523  18.107  0.00  0.00    +0.000 A 
ATOM     13  C   UNL     1       2.152   8.254  17.736  0.00  0.00    +0.000 A 
ATOM     14  C   UNL     1       2.147   7.196  18.657  0.00  0.00    +0.000 A 
ATOM     15  C   UNL     1       2.584   5.914  18.293  0.00  0.00    +0.000 A 
ENDBRANCH   3   6
ENDBRANCH   1   3
BRANCH   1  16
ATOM     16  C   UNL     1       5.322   4.643  19.312  0.00  0.00    +0.000 C 
BRANCH  16  17
ATOM     17  C   UNL     1       6.828   4.723  18.996  0.00  0.00    +0.000 C 
BRANCH  17  18
ATOM     18  O   UNL     1       7.456   5.546  19.994  0.00  0.00    +0.000 OA
ATOM     19  H   UNL     1       8.355   5.756  19.682  0.00  0.00    +0.000 HD
ENDBRANCH  17  18
BRANCH  17  20
ATOM     20  C   UNL     1       6.997   5.299  17.566  0.00  0.00    +0.000 C 
BRANCH  20  26
ATOM     21  C   UNL     1       6.730   3.751  12.911  0.00  0.00    +0.000 C 
ATOM     22  C   UNL     1       6.468   4.666  14.095  0.00  0.00    +0.000 C 
ATOM     23  C   UNL     1       5.007   4.749  14.501  0.00  0.00    +0.000 C 
ATOM     24  C   UNL     1       5.080   5.301  15.930  0.00  0.00    +0.000 C 
ATOM     25  C   UNL     1       5.107   6.835  15.902  0.00  0.00    +0.000 C 
ATOM     26  N   UNL     1       6.267   4.625  16.490  0.00  0.00    +0.000 NA
ATOM     27  C   UNL     1       7.152   4.220  15.383  0.00  0.00    +0.000 C 
ENDBRANCH  20  26
ENDBRANCH  17  20
ENDBRANCH  16  17
ENDBRANCH   1  16
TORSDOF 7
ENDMDL
MODEL 6
REMARK VINA RESULT:      -7.6      1.267      1.818
REMARK  Name = 
REMARK  9 active torsions:
REMARK  status: ('A' for Active; 'I' for Inactive)
REMARK    1  A    between atoms: C_1  and  C_2
REMARK    2  A    between atoms: C_4  and  C_5
REMARK    3  A    between atoms: N_6  and  C_7
REMARK    4  A    between atoms: C_7  and  C_8
REMARK    5  A    between atoms: C_8  and  O_9
REMARK    6  A    between atoms: C_8  and  C_10
REMARK    7  A    between atoms: C_10  and  N_11
REMARK    8  A    between atoms: N_11  and  S_12
REMARK    9  A    between atoms: S_12  and  C_15
REMARK                            x       y       z     vdW  Elec       q    Type
REMARK                         _______ _______ _______ _____ _____    ______ ____
ROOT
ATOM      1  N   UNL     1       6.987   6.371  16.838  0.00  0.00    +0.000 NA
ATOM      2  H   UNL     1       7.455   5.705  17.458  0.00  0.00    +0.000 HD
ENDROOT
BRANCH   1   3
ATOM      3  S   UNL     1       5.658   5.712  16.048  0.00  0.00    +0.000 S 
ATOM      4  O   UNL     1       5.128   6.747  15.190  0.00  0.00    +0.000 OA
ATOM      5  O   UNL     1       6.037   4.413  15.537  0.00  0.00    +0.000 OA
BRANCH   3   6
ATOM      6  C   UNL     1       4.502   5.486  17.375  0.00  0.00    +0.000 A 
ATOM      7  C   UNL     1       3.593   6.495  17.694  0.00  0.00    +0.000 A 
ATOM      8  C   UNL     1       2.710   6.312  18.759  0.00  0.00    +0.000 A 
ATOM      9  C   UNL     1       2.732   5.123  19.512  0.00  0.00    +0.000 A 
ATOM     10  C   UNL     1       1.856   4.928  20.595  0.00  0.00    +0.000 A 
ATOM     11  C   UNL     1       1.894   3.748  21.336  0.00  0.00    +0.000 A 
ATOM     12  C   UNL     1       2.805   2.748  21.010  0.00  0.00    +0.000 A 
ATOM     13  C   UNL     1       3.681   2.926  19.939  0.00  0.00    +0.000 A 
ATOM     14  C   UNL     1       3.658   4.105  19.182  0.00  0.00    +0.000 A 
ATOM     15  C   UNL     1       4.541   4.299  18.110  0.00  0.00    +0.000 A 
ENDBRANCH   3   6
ENDBRANCH   1   3
BRANCH   1  16
ATOM     16  C   UNL     1       6.851   7.738  17.364  0.00  0.00    +0.000 C 
BRANCH  16  17
ATOM     17  C   UNL     1       8.216   8.259  17.849  0.00  0.00    +0.000 C 
BRANCH  17  18
ATOM     18  O   UNL     1       8.593   7.519  19.023  0.00  0.00    +0.000 OA
ATOM     19  H   UNL     1       8.076   6.693  19.031  0.00  0.00    +0.000 HD
ENDBRANCH  17  18
BRANCH  17  20
ATOM     20  C   UNL     1       8.087   9.779  18.128  0.00  0.00    +0.000 C 
BRANCH  20  26
ATOM     21  C   UNL     1      11.393  12.446  20.598  0.00  0.00    +0.000 C 
ATOM     22  C   UNL     1      10.205  12.191  19.686  0.00  0.00    +0.000 C 
ATOM     23  C   UNL     1      10.416  12.645  18.253  0.00  0.00    +0.000 C 
ATOM     24  C   UNL     1       9.338  11.869  17.486  0.00  0.00    +0.000 C 
ATOM     25  C   UNL     1       8.021  12.657  17.487  0.00  0.00    +0.000 C 
ATOM     26  N   UNL     1       9.329  10.556  18.158  0.00  0.00    +0.000 NA
ATOM     27  C   UNL     1       9.855  10.715  19.526  0.00  0.00    +0.000 C 
ENDBRANCH  20  26
ENDBRANCH  17  20
ENDBRANCH  16  17
ENDBRANCH   1  16
TORSDOF 7
ENDMDL
MODEL 7
REMARK VINA RESULT:      -7.5      4.326      7.127
REMARK  Name = 
REMARK  9 active torsions:
REMARK  status: ('A' for Active; 'I' for Inactive)
REMARK    1  A    between atoms: C_1  and  C_2
REMARK    2  A    between atoms: C_4  and  C_5
REMARK    3  A    between atoms: N_6  and  C_7
REMARK    4  A    between atoms: C_7  and  C_8
REMARK    5  A    between atoms: C_8  and  O_9
REMARK    6  A    between atoms: C_8  and  C_10
REMARK    7  A    between atoms: C_10  and  N_11
REMARK    8  A    between atoms: N_11  and  S_12
REMARK    9  A    between atoms: S_12  and  C_15
REMARK                            x       y       z     vdW  Elec       q    Type
REMARK                         _______ _______ _______ _____ _____    ______ ____
ROOT
ATOM      1  N   UNL     1       2.601   2.823  20.210  0.00  0.00    +0.000 NA
ATOM      2  H   UNL     1       1.778   2.817  19.602  0.00  0.00    +0.000 HD
ENDROOT
BRANCH   1   3
ATOM      3  S   UNL     1       3.983   2.240  19.452  0.00  0.00    +0.000 S 
ATOM      4  O   UNL     1       4.902   1.855  20.500  0.00  0.00    +0.000 OA
ATOM      5  O   UNL     1       3.572   1.317  18.417  0.00  0.00    +0.000 OA
BRANCH   3   6
ATOM      6  C   UNL     1       4.640   3.699  18.686  0.00  0.00    +0.000 A 
ATOM      7  C   UNL     1       4.009   4.254  17.573  0.00  0.00    +0.000 A 
ATOM      8  C   UNL     1       4.556   5.385  16.967  0.00  0.00    +0.000 A 
ATOM      9  C   UNL     1       5.736   5.967  17.466  0.00  0.00    +0.000 A 
ATOM     10  C   UNL     1       6.306   7.100  16.859  0.00  0.00    +0.000 A 
ATOM     11  C   UNL     1       7.479   7.661  17.362  0.00  0.00    +0.000 A 
ATOM     12  C   UNL     1       8.102   7.100  18.473  0.00  0.00    +0.000 A 
ATOM     13  C   UNL     1       7.550   5.974  19.086  0.00  0.00    +0.000 A 
ATOM     14  C   UNL     1       6.371   5.397  18.596  0.00  0.00    +0.000 A 
ATOM     15  C   UNL     1       5.813   4.260  19.198  0.00  0.00    +0.000 A 
ENDBRANCH   3   6
ENDBRANCH   1   3
BRANCH   1  16
ATOM     16  C   UNL     1       2.749   4.013  21.063  0.00  0.00    +0.000 C 
BRANCH  16  17
ATOM     17  C   UNL     1       1.613   5.013  20.781  0.00  0.00    +0.000 C 
BRANCH  17  18
ATOM     18  O   UNL     1       0.511   4.294  20.200  0.00  0.00    +0.000 OA
ATOM     19  H   UNL     1       0.808   3.939  19.343  0.00  0.00    +0.000 HD
ENDBRANCH  17  18
BRANCH  17  20
ATOM     20  C   UNL     1       2.157   6.117  19.838  0.00  0.00    +0.000 C 
BRANCH  20  26
ATOM     21  C   UNL     1      -0.398   9.725  21.982  0.00  0.00    +0.000 C 
ATOM     22  C   UNL     1       0.201   8.930  20.834  0.00  0.00    +0.000 C 
ATOM     23  C   UNL     1       1.240   9.692  20.030  0.00  0.00    +0.000 C 
ATOM     24  C   UNL     1       1.995   8.574  19.302  0.00  0.00    +0.000 C 
ATOM     25  C   UNL     1       1.293   8.238  17.979  0.00  0.00    +0.000 C 
ATOM     26  N   UNL     1       2.061   7.500  20.312  0.00  0.00    +0.000 NA
ATOM     27  C   UNL     1       0.963   7.685  21.277  0.00  0.00    +0.000 C 
ENDBRANCH  20  26
ENDBRANCH  17  20
ENDBRANCH  16  17
ENDBRANCH   1  16
TORSDOF 7
ENDMDL
MODEL 8
REMARK VINA RESULT:      -7.4      1.025      1.815
REMARK  Name = 
REMARK  9 active torsions:
REMARK  status: ('A' for Active; 'I' for Inactive)
REMARK    1  A    between atoms: C_1  and  C_2
REMARK    2  A    between atoms: C_4  and  C_5
REMARK    3  A    between atoms: N_6  and  C_7
REMARK    4  A    between atoms: C_7  and  C_8
REMARK    5  A    between atoms: C_8  and  O_9
REMARK    6  A    between atoms: C_8  and  C_10
REMARK    7  A    between atoms: C_10  and  N_11
REMARK    8  A    between atoms: N_11  and  S_12
REMARK    9  A    between atoms: S_12  and  C_15
REMARK                            x       y       z     vdW  Elec       q    Type
REMARK                         _______ _______ _______ _____ _____    ______ ____
ROOT
ATOM      1  N   UNL     1       7.135   6.507  18.490  0.00  0.00    +0.000 NA
ATOM      2  H   UNL     1       6.337   6.917  18.983  0.00  0.00    +0.000 HD
ENDROOT
BRANCH   1   3
ATOM      3  S   UNL     1       6.697   5.725  17.068  0.00  0.00    +0.000 S 
ATOM      4  O   UNL     1       6.385   6.756  16.104  0.00  0.00    +0.000 OA
ATOM      5  O   UNL     1       7.679   4.698  16.800  0.00  0.00    +0.000 OA
BRANCH   3   6
ATOM      6  C   UNL     1       5.168   4.947  17.519  0.00  0.00    +0.000 A 
ATOM      7  C   UNL     1       4.568   4.027  16.659  0.00  0.00    +0.000 A 
ATOM      8  C   UNL     1       3.350   3.447  17.018  0.00  0.00    +0.000 A 
ATOM      9  C   UNL     1       2.725   3.782  18.233  0.00  0.00    +0.000 A 
ATOM     10  C   UNL     1       1.493   3.214  18.604  0.00  0.00    +0.000 A 
ATOM     11  C   UNL     1       0.884   3.561  19.808  0.00  0.00    +0.000 A 
ATOM     12  C   UNL     1       1.491   4.480  20.659  0.00  0.00    +0.000 A 
ATOM     13  C   UNL     1       2.714   5.054  20.306  0.00  0.00    +0.000 A 
ATOM     14  C   UNL     1       3.342   4.716  19.099  0.00  0.00    +0.000 A 
ATOM     15  C   UNL     1       4.565   5.295  18.730  0.00  0.00    +0.000 A 
ENDBRANCH   3   6
ENDBRANCH   1   3
BRANCH   1  16
ATOM     16  C   UNL     1       8.352   7.332  18.459  0.00  0.00    +0.000 C 
BRANCH  16  17
ATOM     17  C   UNL     1       7.981   8.827  18.427  0.00  0.00    +0.000 C 
BRANCH  17  18
ATOM     18  O   UNL     1       7.690   9.191  17.066  0.00  0.00    +0.000 OA
ATOM     19  H   UNL     1       8.395   8.824  16.504  0.00  0.00    +0.000 HD
ENDBRANCH  17  18
BRANCH  17  20
ATOM     20  C   UNL     1       9.167   9.637  19.012  0.00  0.00    +0.000 C 
BRANCH  20  26
ATOM     21  C   UNL     1      11.953  13.210  17.112  0.00  0.00    +0.000 C 
ATOM     22  C   UNL     1      11.238  12.427  18.200  0.00  0.00    +0.000 C 
ATOM     23  C   UNL     1      10.133  13.202  18.896  0.00  0.00    +0.000 C 
ATOM     24  C   UNL     1       9.300  12.094  19.552  0.00  0.00    +0.000 C 
ATOM     25  C   UNL     1       9.868  11.758  20.938  0.00  0.00    +0.000 C 
ATOM     26  N   UNL     1       9.322  11.017  18.544  0.00  0.00    +0.000 NA
ATOM     27  C   UNL     1      10.511  11.187  17.690  0.00  0.00    +0.000 C 
ENDBRANCH  20  26
ENDBRANCH  17  20
ENDBRANCH  16  17
ENDBRANCH   1  16
TORSDOF 7
ENDMDL
MODEL 9
REMARK VINA RESULT:      -7.4      4.789      7.028
REMARK  Name = 
REMARK  9 active torsions:
REMARK  status: ('A' for Active; 'I' for Inactive)
REMARK    1  A    between atoms: C_1  and  C_2
REMARK    2  A    between atoms: C_4  and  C_5
REMARK    3  A    between atoms: N_6  and  C_7
REMARK    4  A    between atoms: C_7  and  C_8
REMARK    5  A    between atoms: C_8  and  O_9
REMARK    6  A    between atoms: C_8  and  C_10
REMARK    7  A    between atoms: C_10  and  N_11
REMARK    8  A    between atoms: N_11  and  S_12
REMARK    9  A    between atoms: S_12  and  C_15
REMARK                            x       y       z     vdW  Elec       q    Type
REMARK                         _______ _______ _______ _____ _____    ______ ____
ROOT
ATOM      1  N   UNL     1       3.432   6.180  19.789  0.00  0.00    +0.000 NA
ATOM      2  H   UNL     1       4.390   6.498  19.957  0.00  0.00    +0.000 HD
ENDROOT
BRANCH   1   3
ATOM      3  S   UNL     1       2.714   6.931  18.468  0.00  0.00    +0.000 S 
ATOM      4  O   UNL     1       3.773   7.591  17.737  0.00  0.00    +0.000 OA
ATOM      5  O   UNL     1       1.828   5.978  17.837  0.00  0.00    +0.000 OA
BRANCH   3   6
ATOM      6  C   UNL     1       1.737   8.196  19.236  0.00  0.00    +0.000 A 
ATOM      7  C   UNL     1       1.336   9.315  18.505  0.00  0.00    +0.000 A 
ATOM      8  C   UNL     1       0.592  10.314  19.134  0.00  0.00    +0.000 A 
ATOM      9  C   UNL     1       0.246  10.203  20.493  0.00  0.00    +0.000 A 
ATOM     10  C   UNL     1      -0.494  11.207  21.144  0.00  0.00    +0.000 A 
ATOM     11  C   UNL     1      -0.823  11.086  22.493  0.00  0.00    +0.000 A 
ATOM     12  C   UNL     1      -0.418   9.966  23.213  0.00  0.00    +0.000 A 
ATOM     13  C   UNL     1       0.318   8.961  22.583  0.00  0.00    +0.000 A 
ATOM     14  C   UNL     1       0.657   9.065  21.227  0.00  0.00    +0.000 A 
ATOM     15  C   UNL     1       1.405   8.066  20.587  0.00  0.00    +0.000 A 
ENDBRANCH   3   6
ENDBRANCH   1   3
BRANCH   1  16
ATOM     16  C   UNL     1       3.206   4.735  19.950  0.00  0.00    +0.000 C 
BRANCH  16  17
ATOM     17  C   UNL     1       4.295   3.941  19.205  0.00  0.00    +0.000 C 
BRANCH  17  18
ATOM     18  O   UNL     1       4.622   2.779  19.986  0.00  0.00    +0.000 OA
ATOM     19  H   UNL     1       3.940   2.683  20.675  0.00  0.00    +0.000 HD
ENDBRANCH  17  18
BRANCH  17  20
ATOM     20  C   UNL     1       5.518   4.870  18.992  0.00  0.00    +0.000 C 
BRANCH  20  26
ATOM     21  C   UNL     1       5.516   3.938  14.168  0.00  0.00    +0.000 C 
ATOM     22  C   UNL     1       6.100   4.068  15.564  0.00  0.00    +0.000 C 
ATOM     23  C   UNL     1       7.161   5.147  15.693  0.00  0.00    +0.000 C 
ATOM     24  C   UNL     1       7.217   5.391  17.206  0.00  0.00    +0.000 C 
ATOM     25  C   UNL     1       8.203   4.415  17.861  0.00  0.00    +0.000 C 
ATOM     26  N   UNL     1       5.804   5.285  17.616  0.00  0.00    +0.000 NA
ATOM     27  C   UNL     1       5.080   4.468  16.625  0.00  0.00    +0.000 C 
ENDBRANCH  20  26
ENDBRANCH  17  20
ENDBRANCH  16  17
ENDBRANCH   1  16
TORSDOF 7
ENDMDL
