MODEL 1
REMARK VINA RESULT:      -7.7      0.000      0.000
REMARK  Name = 
REMARK  8 active torsions:
REMARK  status: ('A' for Active; 'I' for Inactive)
REMARK    1  A    between atoms: C_1  and  C_2
REMARK    2  A    between atoms: C_2  and  S_3
REMARK    3  A    between atoms: N_4  and  C_5
REMARK    4  A    between atoms: C_5  and  C_6
REMARK    5  A    between atoms: N_8  and  C_9
REMARK    6  A    between atoms: C_16  and  C_17
REMARK    7  A    between atoms: C_19  and  C_21
REMARK    8  A    between atoms: C_21  and  O_22
REMARK                            x       y       z     vdW  Elec       q    Type
REMARK                         _______ _______ _______ _____ _____    ______ ____
ROOT
ATOM      1  C   UNL     1       3.306   6.560  18.308  0.00  0.00    +0.000 A 
ATOM      2  C   UNL     1       2.801   6.300  19.598  0.00  0.00    +0.000 A 
ATOM      3  C   UNL     1       2.017   7.230  20.290  0.00  0.00    +0.000 A 
ATOM      4  C   UNL     1       1.696   8.415  19.663  0.00  0.00    +0.000 A 
ATOM      5  C   UNL     1       2.169   8.683  18.378  0.00  0.00    +0.000 A 
ATOM      6  C   UNL     1       3.000   7.790  17.704  0.00  0.00    +0.000 A 
ATOM      7  C   UNL     1       1.705  10.031  17.916  0.00  0.00    +0.000 C 
ATOM      8  C   UNL     1       0.622  10.366  18.971  0.00  0.00    +0.000 C 
ATOM      9  C   UNL     1      -0.783  10.117  18.412  0.00  0.00    +0.000 C 
ATOM     10  N   UNL     1       0.892   9.476  20.128  0.00  0.00    +0.000 N 
ATOM     11  C   UNL     1       0.430   9.606  21.427  0.00  0.00    +0.000 C 
ATOM     12  O   UNL     1       0.705   8.845  22.357  0.00  0.00    +0.000 OA
ENDROOT
BRANCH   1  15
ATOM     13  C   UNL     1       5.944   4.429  16.880  0.00  0.00    +0.000 C 
ATOM     14  C   UNL     1       5.461   5.825  17.229  0.00  0.00    +0.000 C 
ATOM     15  N   UNL     1       4.113   5.597  17.652  0.00  0.00    +0.000 N 
ATOM     16  C   UNL     1       3.694   4.348  17.218  0.00  0.00    +0.000 C 
ATOM     17  O   UNL     1       2.576   3.862  17.261  0.00  0.00    +0.000 OA
ATOM     18  O   UNL     1       4.740   3.687  16.638  0.00  0.00    +0.000 OA
BRANCH  13  19
ATOM     19  C   UNL     1       6.831   4.398  15.632  0.00  0.00    +0.000 C 
BRANCH  19  22
ATOM     20  C   UNL     1       5.587   3.261  12.253  0.00  0.00    +0.000 C 
ATOM     21  C   UNL     1       6.402   3.940  13.325  0.00  0.00    +0.000 C 
ATOM     22  N   UNL     1       6.118   3.701  14.557  0.00  0.00    +0.000 NA
BRANCH  21  23
ATOM     23  S   UNL     1       7.675   5.012  12.775  0.00  0.00    +0.000 S 
ATOM     24  H   UNL     1       7.001   6.168  12.842  0.00  0.00    +0.000 HD
ENDBRANCH  21  23
ENDBRANCH  19  22
ENDBRANCH  13  19
ENDBRANCH   1  15
BRANCH  11  25
ATOM     25  C   UNL     1      -0.484  10.802  21.732  0.00  0.00    +0.000 C 
BRANCH  25  26
ATOM     26  O   UNL     1      -0.493  11.118  23.120  0.00  0.00    +0.000 OA
ATOM     27  H   UNL     1      -0.149  12.032  23.184  0.00  0.00    +0.000 HD
ENDBRANCH  25  26
ENDBRANCH  11  25
TORSDOF 6
ENDMDL
MODEL 2
REMARK VINA RESULT:      -7.3      0.898      1.028
REMARK  Name = 
REMARK  8 active torsions:
REMARK  status: ('A' for Active; 'I' for Inactive)
REMARK    1  A    between atoms: C_1  and  C_2
REMARK    2  A    between atoms: C_2  and  S_3
REMARK    3  A    between atoms: N_4  and  C_5
REMARK    4  A    between atoms: C_5  and  C_6
REMARK    5  A    between atoms: N_8  and  C_9
REMARK    6  A    between atoms: C_16  and  C_17
REMARK    7  A    between atoms: C_19  and  C_21
REMARK    8  A    between atoms: C_21  and  O_22
REMARK                            x       y       z     vdW  Elec       q    Type
REMARK                         _______ _______ _______ _____ _____    ______ ____
ROOT
ATOM      1  C   UNL     1       3.078   6.436  18.483  0.00  0.00    +0.000 A 
ATOM      2  C   UNL     1       2.554   6.264  19.779  0.00  0.00    +0.000 A 
ATOM      3  C   UNL     1       1.830   7.272  20.427  0.00  0.00    +0.000 A 
ATOM      4  C   UNL     1       1.587   8.446  19.749  0.00  0.00    +0.000 A 
ATOM      5  C   UNL     1       2.079   8.629  18.457  0.00  0.00    +0.000 A 
ATOM      6  C   UNL     1       2.853   7.657  17.825  0.00  0.00    +0.000 A 
ATOM      7  C   UNL     1       1.703   9.983  17.936  0.00  0.00    +0.000 C 
ATOM      8  C   UNL     1       0.642  10.431  18.970  0.00  0.00    +0.000 C 
ATOM      9  C   UNL     1      -0.775  10.249  18.414  0.00  0.00    +0.000 C 
ATOM     10  N   UNL     1       0.851   9.576  20.165  0.00  0.00    +0.000 N 
ATOM     11  C   UNL     1       0.395   9.790  21.455  0.00  0.00    +0.000 C 
ATOM     12  O   UNL     1       0.619   9.053  22.418  0.00  0.00    +0.000 OA
ENDROOT
BRANCH   1  15
ATOM     13  C   UNL     1       5.474   4.257  16.735  0.00  0.00    +0.000 C 
ATOM     14  C   UNL     1       4.749   5.590  16.798  0.00  0.00    +0.000 C 
ATOM     15  N   UNL     1       3.823   5.398  17.872  0.00  0.00    +0.000 N 
ATOM     16  C   UNL     1       3.688   4.042  18.132  0.00  0.00    +0.000 C 
ATOM     17  O   UNL     1       2.894   3.483  18.870  0.00  0.00    +0.000 OA
ATOM     18  O   UNL     1       4.574   3.335  17.367  0.00  0.00    +0.000 OA
BRANCH  13  19
ATOM     19  C   UNL     1       5.760   3.800  15.302  0.00  0.00    +0.000 C 
BRANCH  19  22
ATOM     20  C   UNL     1       8.105   5.514  12.890  0.00  0.00    +0.000 C 
ATOM     21  C   UNL     1       7.040   4.606  13.450  0.00  0.00    +0.000 C 
ATOM     22  N   UNL     1       6.733   4.713  14.695  0.00  0.00    +0.000 NA
BRANCH  21  23
ATOM     23  S   UNL     1       6.317   3.468  12.330  0.00  0.00    +0.000 S 
ATOM     24  H   UNL     1       5.262   4.203  11.958  0.00  0.00    +0.000 HD
ENDBRANCH  21  23
ENDBRANCH  19  22
ENDBRANCH  13  19
ENDBRANCH   1  15
BRANCH  11  25
ATOM     25  C   UNL     1      -0.441  11.053  21.704  0.00  0.00    +0.000 C 
BRANCH  25  26
ATOM     26  O   UNL     1      -0.420  11.437  23.075  0.00  0.00    +0.000 OA
ATOM     27  H   UNL     1      -1.287  11.162  23.438  0.00  0.00    +0.000 HD
ENDBRANCH  25  26
ENDBRANCH  11  25
TORSDOF 6
ENDMDL
MODEL 3
REMARK VINA RESULT:      -7.3      3.825      9.260
REMARK  Name = 
REMARK  8 active torsions:
REMARK  status: ('A' for Active; 'I' for Inactive)
REMARK    1  A    between atoms: C_1  and  C_2
REMARK    2  A    between atoms: C_2  and  S_3
REMARK    3  A    between atoms: N_4  and  C_5
REMARK    4  A    between atoms: C_5  and  C_6
REMARK    5  A    between atoms: N_8  and  C_9
REMARK    6  A    between atoms: C_16  and  C_17
REMARK    7  A    between atoms: C_19  and  C_21
REMARK    8  A    between atoms: C_21  and  O_22
REMARK                            x       y       z     vdW  Elec       q    Type
REMARK                         _______ _______ _______ _____ _____    ______ ____
ROOT
ATOM      1  C   UNL     1       1.851   8.384  19.224  0.00  0.00    +0.000 A 
ATOM      2  C   UNL     1       2.433   8.685  17.976  0.00  0.00    +0.000 A 
ATOM      3  C   UNL     1       3.301   7.799  17.328  0.00  0.00    +0.000 A 
ATOM      4  C   UNL     1       3.551   6.577  17.914  0.00  0.00    +0.000 A 
ATOM      5  C   UNL     1       2.969   6.251  19.139  0.00  0.00    +0.000 A 
ATOM      6  C   UNL     1       2.151   7.149  19.823  0.00  0.00    +0.000 A 
ATOM      7  C   UNL     1       3.401   4.885  19.581  0.00  0.00    +0.000 C 
ATOM      8  C   UNL     1       4.043   4.328  18.287  0.00  0.00    +0.000 C 
ATOM      9  C   UNL     1       3.086   3.372  17.568  0.00  0.00    +0.000 C 
ATOM     10  N   UNL     1       4.342   5.509  17.439  0.00  0.00    +0.000 N 
ATOM     11  C   UNL     1       5.198   5.583  16.354  0.00  0.00    +0.000 C 
ATOM     12  O   UNL     1       5.425   6.602  15.697  0.00  0.00    +0.000 OA
ENDROOT
BRANCH   1  15
ATOM     13  C   UNL     1       0.124  10.825  21.367  0.00  0.00    +0.000 C 
ATOM     14  C   UNL     1       0.957   9.561  21.264  0.00  0.00    +0.000 C 
ATOM     15  N   UNL     1       0.994   9.319  19.854  0.00  0.00    +0.000 N 
ATOM     16  C   UNL     1      -0.010  10.047  19.232  0.00  0.00    +0.000 C 
ATOM     17  O   UNL     1      -0.382   9.994  18.072  0.00  0.00    +0.000 OA
ATOM     18  O   UNL     1      -0.627  10.856  20.145  0.00  0.00    +0.000 OA
BRANCH  13  19
ATOM     19  C   UNL     1      -0.833  10.814  22.562  0.00  0.00    +0.000 C 
BRANCH  19  22
ATOM     20  C   UNL     1      -1.510  14.332  23.755  0.00  0.00    +0.000 C 
ATOM     21  C   UNL     1      -1.675  12.989  23.091  0.00  0.00    +0.000 C 
ATOM     22  N   UNL     1      -0.754  12.106  23.251  0.00  0.00    +0.000 NA
BRANCH  21  23
ATOM     23  S   UNL     1      -3.133  12.761  22.144  0.00  0.00    +0.000 S 
ATOM     24  H   UNL     1      -3.922  12.277  23.112  0.00  0.00    +0.000 HD
ENDBRANCH  21  23
ENDBRANCH  19  22
ENDBRANCH  13  19
ENDBRANCH   1  15
BRANCH  11  25
ATOM     25  C   UNL     1       5.934   4.298  15.951  0.00  0.00    +0.000 C 
BRANCH  25  26
ATOM     26  O   UNL     1       7.117   4.104  16.720  0.00  0.00    +0.000 OA
ATOM     27  H   UNL     1       6.920   4.478  17.603  0.00  0.00    +0.000 HD
ENDBRANCH  25  26
ENDBRANCH  11  25
TORSDOF 6
ENDMDL
MODEL 4
REMARK VINA RESULT:      -7.3      3.396      8.239
REMARK  Name = 
REMARK  8 active torsions:
REMARK  status: ('A' for Active; 'I' for Inactive)
REMARK    1  A    between atoms: C_1  and  C_2
REMARK    2  A    between atoms: C_2  and  S_3
REMARK    3  A    between atoms: N_4  and  C_5
REMARK    4  A    between atoms: C_5  and  C_6
REMARK    5  A    between atoms: N_8  and  C_9
REMARK    6  A    between atoms: C_16  and  C_17
REMARK    7  A    between atoms: C_19  and  C_21
REMARK    8  A    between atoms: C_21  and  O_22
REMARK                            x       y       z     vdW  Elec       q    Type
REMARK                         _______ _______ _______ _____ _____    ______ ____
ROOT
ATOM      1  C   UNL     1       1.592   7.962  20.161  0.00  0.00    +0.000 A 
ATOM      2  C   UNL     1       1.311   6.840  20.965  0.00  0.00    +0.000 A 
ATOM      3  C   UNL     1       1.808   5.567  20.663  0.00  0.00    +0.000 A 
ATOM      4  C   UNL     1       2.634   5.426  19.569  0.00  0.00    +0.000 A 
ATOM      5  C   UNL     1       2.941   6.528  18.772  0.00  0.00    +0.000 A 
ATOM      6  C   UNL     1       2.404   7.789  19.028  0.00  0.00    +0.000 A 
ATOM      7  C   UNL     1       3.837   6.127  17.640  0.00  0.00    +0.000 C 
ATOM      8  C   UNL     1       4.281   4.711  18.080  0.00  0.00    +0.000 C 
ATOM      9  C   UNL     1       5.691   4.740  18.679  0.00  0.00    +0.000 C 
ATOM     10  N   UNL     1       3.289   4.271  19.094  0.00  0.00    +0.000 N 
ATOM     11  C   UNL     1       3.047   2.984  19.544  0.00  0.00    +0.000 C 
ATOM     12  O   UNL     1       2.191   2.673  20.376  0.00  0.00    +0.000 OA
ENDROOT
BRANCH   1  15
ATOM     13  C   UNL     1      -0.188  11.172  20.424  0.00  0.00    +0.000 C 
ATOM     14  C   UNL     1       0.509  10.151  19.543  0.00  0.00    +0.000 C 
ATOM     15  N   UNL     1       1.051   9.229  20.493  0.00  0.00    +0.000 N 
ATOM     16  C   UNL     1       1.071   9.815  21.750  0.00  0.00    +0.000 C 
ATOM     17  O   UNL     1       1.583   9.400  22.776  0.00  0.00    +0.000 OA
ATOM     18  O   UNL     1       0.451  11.033  21.702  0.00  0.00    +0.000 OA
BRANCH  13  19
ATOM     19  C   UNL     1      -0.024  12.608  19.919  0.00  0.00    +0.000 C 
BRANCH  19  22
ATOM     20  C   UNL     1       3.323  14.088  20.847  0.00  0.00    +0.000 C 
ATOM     21  C   UNL     1       2.188  13.506  20.043  0.00  0.00    +0.000 C 
ATOM     22  N   UNL     1       1.080  13.247  20.642  0.00  0.00    +0.000 NA
BRANCH  21  23
ATOM     23  S   UNL     1       2.500  13.230  18.339  0.00  0.00    +0.000 S 
ATOM     24  H   UNL     1       2.061  11.968  18.262  0.00  0.00    +0.000 HD
ENDBRANCH  21  23
ENDBRANCH  19  22
ENDBRANCH  13  19
ENDBRANCH   1  15
BRANCH  11  25
ATOM     25  C   UNL     1       3.901   1.857  18.946  0.00  0.00    +0.000 C 
BRANCH  25  26
ATOM     26  O   UNL     1       4.999   1.525  19.789  0.00  0.00    +0.000 OA
ATOM     27  H   UNL     1       4.683   0.792  20.356  0.00  0.00    +0.000 HD
ENDBRANCH  25  26
ENDBRANCH  11  25
TORSDOF 6
ENDMDL
MODEL 5
REMARK VINA RESULT:      -7.1      1.723      2.155
REMARK  Name = 
REMARK  8 active torsions:
REMARK  status: ('A' for Active; 'I' for Inactive)
REMARK    1  A    between atoms: C_1  and  C_2
REMARK    2  A    between atoms: C_2  and  S_3
REMARK    3  A    between atoms: N_4  and  C_5
REMARK    4  A    between atoms: C_5  and  C_6
REMARK    5  A    between atoms: N_8  and  C_9
REMARK    6  A    between atoms: C_16  and  C_17
REMARK    7  A    between atoms: C_19  and  C_21
REMARK    8  A    between atoms: C_21  and  O_22
REMARK                            x       y       z     vdW  Elec       q    Type
REMARK                         _______ _______ _______ _____ _____    ______ ____
ROOT
ATOM      1  C   UNL     1       2.208   7.052  19.592  0.00  0.00    +0.000 A 
ATOM      2  C   UNL     1       1.697   7.095  20.904  0.00  0.00    +0.000 A 
ATOM      3  C   UNL     1       1.046   8.225  21.411  0.00  0.00    +0.000 A 
ATOM      4  C   UNL     1       0.864   9.308  20.578  0.00  0.00    +0.000 A 
ATOM      5  C   UNL     1       1.344   9.278  19.269  0.00  0.00    +0.000 A 
ATOM      6  C   UNL     1       2.046   8.181  18.772  0.00  0.00    +0.000 A 
ATOM      7  C   UNL     1       1.042  10.568  18.567  0.00  0.00    +0.000 C 
ATOM      8  C   UNL     1       0.027  11.221  19.537  0.00  0.00    +0.000 C 
ATOM      9  C   UNL     1      -1.407  11.052  19.024  0.00  0.00    +0.000 C 
ATOM     10  N   UNL     1       0.205  10.528  20.838  0.00  0.00    +0.000 N 
ATOM     11  C   UNL     1      -0.215  10.947  22.089  0.00  0.00    +0.000 C 
ATOM     12  O   UNL     1      -0.020  10.338  23.144  0.00  0.00    +0.000 OA
ENDROOT
BRANCH   1  15
ATOM     13  C   UNL     1       4.360   4.136  18.954  0.00  0.00    +0.000 C 
ATOM     14  C   UNL     1       4.243   5.578  19.413  0.00  0.00    +0.000 C 
ATOM     15  N   UNL     1       2.877   5.894  19.126  0.00  0.00    +0.000 N 
ATOM     16  C   UNL     1       2.362   4.961  18.238  0.00  0.00    +0.000 C 
ATOM     17  O   UNL     1       1.290   4.973  17.657  0.00  0.00    +0.000 OA
ATOM     18  O   UNL     1       3.282   3.972  18.022  0.00  0.00    +0.000 OA
BRANCH  13  19
ATOM     19  C   UNL     1       5.692   3.835  18.262  0.00  0.00    +0.000 C 
BRANCH  19  22
ATOM     20  C   UNL     1       5.815   5.208  14.747  0.00  0.00    +0.000 C 
ATOM     21  C   UNL     1       6.075   5.019  16.220  0.00  0.00    +0.000 C 
ATOM     22  N   UNL     1       5.532   4.017  16.816  0.00  0.00    +0.000 NA
BRANCH  21  23
ATOM     23  S   UNL     1       7.108   6.208  16.989  0.00  0.00    +0.000 S 
ATOM     24  H   UNL     1       8.183   6.072  16.202  0.00  0.00    +0.000 HD
ENDBRANCH  21  23
ENDBRANCH  19  22
ENDBRANCH  13  19
ENDBRANCH   1  15
BRANCH  11  25
ATOM     25  C   UNL     1      -0.968  12.283  22.167  0.00  0.00    +0.000 C 
BRANCH  25  26
ATOM     26  O   UNL     1      -0.352  13.183  23.082  0.00  0.00    +0.000 OA
ATOM     27  H   UNL     1      -1.017  13.880  23.252  0.00  0.00    +0.000 HD
ENDBRANCH  25  26
ENDBRANCH  11  25
TORSDOF 6
ENDMDL
MODEL 6
REMARK VINA RESULT:      -7.1      4.327      8.932
REMARK  Name = 
REMARK  8 active torsions:
REMARK  status: ('A' for Active; 'I' for Inactive)
REMARK    1  A    between atoms: C_1  and  C_2
REMARK    2  A    between atoms: C_2  and  S_3
REMARK    3  A    between atoms: N_4  and  C_5
REMARK    4  A    between atoms: C_5  and  C_6
REMARK    5  A    between atoms: N_8  and  C_9
REMARK    6  A    between atoms: C_16  and  C_17
REMARK    7  A    between atoms: C_19  and  C_21
REMARK    8  A    between atoms: C_21  and  O_22
REMARK                            x       y       z     vdW  Elec       q    Type
REMARK                         _______ _______ _______ _____ _____    ______ ____
ROOT
ATOM      1  C   UNL     1       1.621   8.063  19.865  0.00  0.00    +0.000 A 
ATOM      2  C   UNL     1       1.375   7.025  20.786  0.00  0.00    +0.000 A 
ATOM      3  C   UNL     1       1.910   5.742  20.620  0.00  0.00    +0.000 A 
ATOM      4  C   UNL     1       2.740   5.510  19.545  0.00  0.00    +0.000 A 
ATOM      5  C   UNL     1       3.013   6.529  18.633  0.00  0.00    +0.000 A 
ATOM      6  C   UNL     1       2.438   7.793  18.754  0.00  0.00    +0.000 A 
ATOM      7  C   UNL     1       3.921   6.036  17.547  0.00  0.00    +0.000 C 
ATOM      8  C   UNL     1       4.408   4.689  18.136  0.00  0.00    +0.000 C 
ATOM      9  C   UNL     1       5.816   4.825  18.723  0.00  0.00    +0.000 C 
ATOM     10  N   UNL     1       3.430   4.331  19.194  0.00  0.00    +0.000 N 
ATOM     11  C   UNL     1       3.227   3.093  19.780  0.00  0.00    +0.000 C 
ATOM     12  O   UNL     1       2.381   2.847  20.643  0.00  0.00    +0.000 OA
ENDROOT
BRANCH   1  15
ATOM     13  C   UNL     1       0.545  11.412  20.944  0.00  0.00    +0.000 C 
ATOM     14  C   UNL     1       0.944   9.999  21.328  0.00  0.00    +0.000 C 
ATOM     15  N   UNL     1       1.043   9.341  20.061  0.00  0.00    +0.000 N 
ATOM     16  C   UNL     1       0.387  10.091  19.096  0.00  0.00    +0.000 C 
ATOM     17  O   UNL     1       0.136   9.793  17.940  0.00  0.00    +0.000 OA
ATOM     18  O   UNL     1      -0.032  11.275  19.637  0.00  0.00    +0.000 OA
BRANCH  13  19
ATOM     19  C   UNL     1      -0.482  12.024  21.901  0.00  0.00    +0.000 C 
BRANCH  19  22
ATOM     20  C   UNL     1      -3.992  12.949  20.861  0.00  0.00    +0.000 C 
ATOM     21  C   UNL     1      -2.799  12.584  21.707  0.00  0.00    +0.000 C 
ATOM     22  N   UNL     1      -1.655  12.453  21.132  0.00  0.00    +0.000 NA
BRANCH  21  23
ATOM     23  S   UNL     1      -3.095  12.368  23.421  0.00  0.00    +0.000 S 
ATOM     24  H   UNL     1      -3.442  11.074  23.398  0.00  0.00    +0.000 HD
ENDBRANCH  21  23
ENDBRANCH  19  22
ENDBRANCH  13  19
ENDBRANCH   1  15
BRANCH  11  25
ATOM     25  C   UNL     1       4.115   1.935  19.304  0.00  0.00    +0.000 C 
BRANCH  25  26
ATOM     26  O   UNL     1       5.176   1.674  20.217  0.00  0.00    +0.000 OA
ATOM     27  H   UNL     1       5.064   0.741  20.490  0.00  0.00    +0.000 HD
ENDBRANCH  25  26
ENDBRANCH  11  25
TORSDOF 6
ENDMDL
MODEL 7
REMARK VINA RESULT:      -7.1      3.802      9.062
REMARK  Name = 
REMARK  8 active torsions:
REMARK  status: ('A' for Active; 'I' for Inactive)
REMARK    1  A    between atoms: C_1  and  C_2
REMARK    2  A    between atoms: C_2  and  S_3
REMARK    3  A    between atoms: N_4  and  C_5
REMARK    4  A    between atoms: C_5  and  C_6
REMARK    5  A    between atoms: N_8  and  C_9
REMARK    6  A    between atoms: C_16  and  C_17
REMARK    7  A    between atoms: C_19  and  C_21
REMARK    8  A    between atoms: C_21  and  O_22
REMARK                            x       y       z     vdW  Elec       q    Type
REMARK                         _______ _______ _______ _____ _____    ______ ____
ROOT
ATOM      1  C   UNL     1       1.981   8.233  19.068  0.00  0.00    +0.000 A 
ATOM      2  C   UNL     1       2.656   8.542  17.870  0.00  0.00    +0.000 A 
ATOM      3  C   UNL     1       3.608   7.682  17.311  0.00  0.00    +0.000 A 
ATOM      4  C   UNL     1       3.853   6.478  17.934  0.00  0.00    +0.000 A 
ATOM      5  C   UNL     1       3.180   6.143  19.110  0.00  0.00    +0.000 A 
ATOM      6  C   UNL     1       2.274   7.017  19.708  0.00  0.00    +0.000 A 
ATOM      7  C   UNL     1       3.623   4.800  19.606  0.00  0.00    +0.000 C 
ATOM      8  C   UNL     1       4.394   4.253  18.380  0.00  0.00    +0.000 C 
ATOM      9  C   UNL     1       3.538   3.253  17.595  0.00  0.00    +0.000 C 
ATOM     10  N   UNL     1       4.720   5.436  17.544  0.00  0.00    +0.000 N 
ATOM     11  C   UNL     1       5.663   5.530  16.535  0.00  0.00    +0.000 C 
ATOM     12  O   UNL     1       5.907   6.550  15.885  0.00  0.00    +0.000 OA
ENDROOT
BRANCH   1  15
ATOM     13  C   UNL     1      -0.770  10.554  19.831  0.00  0.00    +0.000 C 
ATOM     14  C   UNL     1       0.262  10.059  18.834  0.00  0.00    +0.000 C 
ATOM     15  N   UNL     1       1.038   9.141  19.609  0.00  0.00    +0.000 N 
ATOM     16  C   UNL     1       0.809   9.364  20.959  0.00  0.00    +0.000 C 
ATOM     17  O   UNL     1       1.387   8.882  21.920  0.00  0.00    +0.000 OA
ATOM     18  O   UNL     1      -0.176  10.299  21.112  0.00  0.00    +0.000 OA
BRANCH  13  19
ATOM     19  C   UNL     1      -1.071  12.048  19.689  0.00  0.00    +0.000 C 
BRANCH  19  22
ATOM     20  C   UNL     1      -4.767  12.719  20.070  0.00  0.00    +0.000 C 
ATOM     21  C   UNL     1      -3.290  12.630  20.362  0.00  0.00    +0.000 C 
ATOM     22  N   UNL     1      -2.503  12.226  19.428  0.00  0.00    +0.000 NA
BRANCH  21  23
ATOM     23  S   UNL     1      -2.785  13.090  21.976  0.00  0.00    +0.000 S 
ATOM     24  H   UNL     1      -3.327  12.067  22.650  0.00  0.00    +0.000 HD
ENDBRANCH  21  23
ENDBRANCH  19  22
ENDBRANCH  13  19
ENDBRANCH   1  15
BRANCH  11  25
ATOM     25  C   UNL     1       6.478   4.269  16.214  0.00  0.00    +0.000 C 
BRANCH  25  26
ATOM     26  O   UNL     1       7.849   4.424  16.566  0.00  0.00    +0.000 OA
ATOM     27  H   UNL     1       8.293   4.748  15.756  0.00  0.00    +0.000 HD
ENDBRANCH  25  26
ENDBRANCH  11  25
TORSDOF 6
ENDMDL
MODEL 8
REMARK VINA RESULT:      -7.1      3.613      8.441
REMARK  Name = 
REMARK  8 active torsions:
REMARK  status: ('A' for Active; 'I' for Inactive)
REMARK    1  A    between atoms: C_1  and  C_2
REMARK    2  A    between atoms: C_2  and  S_3
REMARK    3  A    between atoms: N_4  and  C_5
REMARK    4  A    between atoms: C_5  and  C_6
REMARK    5  A    between atoms: N_8  and  C_9
REMARK    6  A    between atoms: C_16  and  C_17
REMARK    7  A    between atoms: C_19  and  C_21
REMARK    8  A    between atoms: C_21  and  O_22
REMARK                            x       y       z     vdW  Elec       q    Type
REMARK                         _______ _______ _______ _____ _____    ______ ____
ROOT
ATOM      1  C   UNL     1       1.800   8.386  18.883  0.00  0.00    +0.000 A 
ATOM      2  C   UNL     1       2.608   8.612  17.752  0.00  0.00    +0.000 A 
ATOM      3  C   UNL     1       3.636   7.735  17.386  0.00  0.00    +0.000 A 
ATOM      4  C   UNL     1       3.825   6.595  18.136  0.00  0.00    +0.000 A 
ATOM      5  C   UNL     1       3.022   6.341  19.248  0.00  0.00    +0.000 A 
ATOM      6  C   UNL     1       2.035   7.237  19.656  0.00  0.00    +0.000 A 
ATOM      7  C   UNL     1       3.425   5.057  19.907  0.00  0.00    +0.000 C 
ATOM      8  C   UNL     1       4.348   4.431  18.834  0.00  0.00    +0.000 C 
ATOM      9  C   UNL     1       3.610   3.346  18.042  0.00  0.00    +0.000 C 
ATOM     10  N   UNL     1       4.751   5.548  17.942  0.00  0.00    +0.000 N 
ATOM     11  C   UNL     1       5.807   5.583  17.048  0.00  0.00    +0.000 C 
ATOM     12  O   UNL     1       6.110   6.551  16.346  0.00  0.00    +0.000 OA
ENDROOT
BRANCH   1  15
ATOM     13  C   UNL     1      -1.207  10.474  19.255  0.00  0.00    +0.000 C 
ATOM     14  C   UNL     1      -0.231   9.770  18.330  0.00  0.00    +0.000 C 
ATOM     15  N   UNL     1       0.783   9.310  19.228  0.00  0.00    +0.000 N 
ATOM     16  C   UNL     1       0.682   9.992  20.432  0.00  0.00    +0.000 C 
ATOM     17  O   UNL     1       1.446   9.979  21.382  0.00  0.00    +0.000 OA
ATOM     18  O   UNL     1      -0.428  10.791  20.417  0.00  0.00    +0.000 OA
BRANCH  13  19
ATOM     19  C   UNL     1      -1.782  11.758  18.652  0.00  0.00    +0.000 C 
BRANCH  19  22
ATOM     20  C   UNL     1      -3.389  10.933  15.336  0.00  0.00    +0.000 C 
ATOM     21  C   UNL     1      -3.202  11.220  16.804  0.00  0.00    +0.000 C 
ATOM     22  N   UNL     1      -2.030  11.546  17.222  0.00  0.00    +0.000 NA
BRANCH  21  23
ATOM     23  S   UNL     1      -4.627  11.075  17.816  0.00  0.00    +0.000 S 
ATOM     24  H   UNL     1      -4.394   9.851  18.307  0.00  0.00    +0.000 HD
ENDBRANCH  21  23
ENDBRANCH  19  22
ENDBRANCH  13  19
ENDBRANCH   1  15
BRANCH  11  25
ATOM     25  C   UNL     1       6.677   4.323  16.936  0.00  0.00    +0.000 C 
BRANCH  25  26
ATOM     26  O   UNL     1       7.675   4.280  17.951  0.00  0.00    +0.000 OA
ATOM     27  H   UNL     1       7.960   5.208  18.078  0.00  0.00    +0.000 HD
ENDBRANCH  25  26
ENDBRANCH  11  25
TORSDOF 6
ENDMDL
MODEL 9
REMARK VINA RESULT:      -7.0      4.043      8.189
REMARK  Name = 
REMARK  8 active torsions:
REMARK  status: ('A' for Active; 'I' for Inactive)
REMARK    1  A    between atoms: C_1  and  C_2
REMARK    2  A    between atoms: C_2  and  S_3
REMARK    3  A    between atoms: N_4  and  C_5
REMARK    4  A    between atoms: C_5  and  C_6
REMARK    5  A    between atoms: N_8  and  C_9
REMARK    6  A    between atoms: C_16  and  C_17
REMARK    7  A    between atoms: C_19  and  C_21
REMARK    8  A    between atoms: C_21  and  O_22
REMARK                            x       y       z     vdW  Elec       q    Type
REMARK                         _______ _______ _______ _____ _____    ______ ____
ROOT
ATOM      1  C   UNL     1       1.630   8.701  19.095  0.00  0.00    +0.000 A 
ATOM      2  C   UNL     1       1.432   7.824  20.180  0.00  0.00    +0.000 A 
ATOM      3  C   UNL     1       2.053   6.572  20.246  0.00  0.00    +0.000 A 
ATOM      4  C   UNL     1       2.920   6.214  19.237  0.00  0.00    +0.000 A 
ATOM      5  C   UNL     1       3.147   7.076  18.164  0.00  0.00    +0.000 A 
ATOM      6  C   UNL     1       2.488   8.300  18.057  0.00  0.00    +0.000 A 
ATOM      7  C   UNL     1       4.109   6.465  17.191  0.00  0.00    +0.000 C 
ATOM      8  C   UNL     1       4.669   5.277  18.010  0.00  0.00    +0.000 C 
ATOM      9  C   UNL     1       6.052   5.608  18.580  0.00  0.00    +0.000 C 
ATOM     10  N   UNL     1       3.693   5.042  19.104  0.00  0.00    +0.000 N 
ATOM     11  C   UNL     1       3.558   3.913  19.896  0.00  0.00    +0.000 C 
ATOM     12  O   UNL     1       2.711   3.764  20.779  0.00  0.00    +0.000 OA
ENDROOT
BRANCH   1  15
ATOM     13  C   UNL     1      -0.519  11.661  19.496  0.00  0.00    +0.000 C 
ATOM     14  C   UNL     1      -0.406  10.149  19.414  0.00  0.00    +0.000 C 
ATOM     15  N   UNL     1       0.966   9.951  19.059  0.00  0.00    +0.000 N 
ATOM     16  C   UNL     1       1.494  11.137  18.570  0.00  0.00    +0.000 C 
ATOM     17  O   UNL     1       2.576  11.328  18.041  0.00  0.00    +0.000 OA
ATOM     18  O   UNL     1       0.575  12.141  18.702  0.00  0.00    +0.000 OA
BRANCH  13  19
ATOM     19  C   UNL     1      -1.840  12.193  18.932  0.00  0.00    +0.000 C 
BRANCH  19  22
ATOM     20  C   UNL     1      -3.127  10.857  15.644  0.00  0.00    +0.000 C 
ATOM     21  C   UNL     1      -3.075  11.339  17.071  0.00  0.00    +0.000 C 
ATOM     22  N   UNL     1      -1.959  11.785  17.528  0.00  0.00    +0.000 NA
BRANCH  21  23
ATOM     23  S   UNL     1      -4.569  11.239  17.984  0.00  0.00    +0.000 S 
ATOM     24  H   UNL     1      -5.367  11.884  17.125  0.00  0.00    +0.000 HD
ENDBRANCH  21  23
ENDBRANCH  19  22
ENDBRANCH  13  19
ENDBRANCH   1  15
BRANCH  11  25
ATOM     25  C   UNL     1       4.531   2.754  19.638  0.00  0.00    +0.000 C 
BRANCH  25  26
ATOM     26  O   UNL     1       4.060   1.890  18.609  0.00  0.00    +0.000 OA
ATOM     27  H   UNL     1       4.485   2.207  17.785  0.00  0.00    +0.000 HD
ENDBRANCH  25  26
ENDBRANCH  11  25
TORSDOF 6
ENDMDL
