MODEL 1
REMARK VINA RESULT:      -8.3      0.000      0.000
REMARK  Name = 
REMARK  6 active torsions:
REMARK  status: ('A' for Active; 'I' for Inactive)
REMARK    1  A    between atoms: C_2  and  C_3
REMARK    2  A    between atoms: C_3  and  O_4
REMARK    3  A    between atoms: O_4  and  C_5
REMARK    4  A    between atoms: C_15  and  S_16
REMARK    5  A    between atoms: S_16  and  C_17
REMARK    6  A    between atoms: C_17  and  C_18
REMARK                            x       y       z     vdW  Elec       q    Type
REMARK                         _______ _______ _______ _____ _____    ______ ____
ROOT
ATOM      1  O   UNL     1       7.666   9.623  17.522  0.00  0.00    +0.000 OA
ATOM      2  C   UNL     1       8.412   9.318  18.451  0.00  0.00    +0.000 C 
ATOM      3  N   UNL     1       8.565   8.049  18.979  0.00  0.00    +0.000 N 
ATOM      4  C   UNL     1       8.062   6.868  18.464  0.00  0.00    +0.000 A 
ATOM      5  N   UNL     1       8.120   5.731  19.125  0.00  0.00    +0.000 NA
ATOM      6  N   UNL     1       7.574   4.672  18.411  0.00  0.00    +0.000 NA
ATOM      7  C   UNL     1       7.154   5.043  17.221  0.00  0.00    +0.000 A 
ATOM      8  S   UNL     1       7.413   6.714  16.890  0.00  0.00    +0.000 S 
ATOM      9  H   UNL     1       9.000   7.944  19.888  0.00  0.00    +0.000 HD
ENDROOT
BRANCH   2  10
ATOM     10  C   UNL     1       9.322  10.379  19.114  0.00  0.00    +0.000 C 
BRANCH  10  11
ATOM     11  O   UNL     1       9.251  10.409  20.527  0.00  0.00    +0.000 OA
BRANCH  11  12
ATOM     12  C   UNL     1       9.326  11.673  21.093  0.00  0.00    +0.000 A 
ATOM     13  C   UNL     1       8.488  11.923  22.184  0.00  0.00    +0.000 A 
ATOM     14  C   UNL     1       8.506  13.168  22.827  0.00  0.00    +0.000 A 
ATOM     15  C   UNL     1       9.375  14.166  22.393  0.00  0.00    +0.000 A 
ATOM     16  C   UNL     1      10.225  13.918  21.320  0.00  0.00    +0.000 A 
ATOM     17  C   UNL     1      10.203  12.678  20.672  0.00  0.00    +0.000 A 
ENDBRANCH  11  12
ENDBRANCH  10  11
ENDBRANCH   2  10
BRANCH   7  18
ATOM     18  S   UNL     1       6.433   3.923  16.063  0.00  0.00    +0.000 S 
BRANCH  18  19
ATOM     19  C   UNL     1       4.693   4.457  16.086  0.00  0.00    +0.000 C 
BRANCH  19  20
ATOM     20  C   UNL     1       4.170   4.669  17.501  0.00  0.00    +0.000 A 
ATOM     21  C   UNL     1       3.365   5.719  17.777  0.00  0.00    +0.000 A 
ATOM     22  C   UNL     1       2.865   5.907  19.158  0.00  0.00    +0.000 A 
ATOM     23  O   UNL     1       2.452   6.995  19.537  0.00  0.00    +0.000 OA
ATOM     24  C   UNL     1       2.836   4.709  20.016  0.00  0.00    +0.000 A 
ATOM     25  C   UNL     1       2.010   4.665  21.146  0.00  0.00    +0.000 A 
ATOM     26  C   UNL     1       1.821   3.452  21.802  0.00  0.00    +0.000 A 
ATOM     27  C   UNL     1       2.494   2.312  21.358  0.00  0.00    +0.000 A 
ATOM     28  C   UNL     1       3.397   2.388  20.287  0.00  0.00    +0.000 A 
ATOM     29  C   UNL     1       3.561   3.587  19.592  0.00  0.00    +0.000 A 
ATOM     30  N   UNL     1       4.399   3.657  18.447  0.00  0.00    +0.000 N 
ATOM     31  H   UNL     1       5.386   3.610  18.714  0.00  0.00    +0.000 HD
ENDBRANCH  19  20
ENDBRANCH  18  19
ENDBRANCH   7  18
TORSDOF 6
ENDMDL
MODEL 2
REMARK VINA RESULT:      -8.2      3.976      7.374
REMARK  Name = 
REMARK  6 active torsions:
REMARK  status: ('A' for Active; 'I' for Inactive)
REMARK    1  A    between atoms: C_2  and  C_3
REMARK    2  A    between atoms: C_3  and  O_4
REMARK    3  A    between atoms: O_4  and  C_5
REMARK    4  A    between atoms: C_15  and  S_16
REMARK    5  A    between atoms: S_16  and  C_17
REMARK    6  A    between atoms: C_17  and  C_18
REMARK                            x       y       z     vdW  Elec       q    Type
REMARK                         _______ _______ _______ _____ _____    ______ ____
ROOT
ATOM      1  O   UNL     1       2.337   8.013  19.504  0.00  0.00    +0.000 OA
ATOM      2  C   UNL     1       1.576   7.837  20.455  0.00  0.00    +0.000 C 
ATOM      3  N   UNL     1       1.220   6.611  20.986  0.00  0.00    +0.000 N 
ATOM      4  C   UNL     1       1.776   5.380  20.682  0.00  0.00    +0.000 A 
ATOM      5  N   UNL     1       1.260   4.250  21.117  0.00  0.00    +0.000 NA
ATOM      6  N   UNL     1       1.990   3.141  20.708  0.00  0.00    +0.000 NA
ATOM      7  C   UNL     1       3.052   3.479  20.008  0.00  0.00    +0.000 A 
ATOM      8  S   UNL     1       3.235   5.180  19.814  0.00  0.00    +0.000 S 
ATOM      9  H   UNL     1       0.409   6.553  21.589  0.00  0.00    +0.000 HD
ENDROOT
BRANCH   2  10
ATOM     10  C   UNL     1       0.953   9.040  21.202  0.00  0.00    +0.000 C 
BRANCH  10  11
ATOM     11  O   UNL     1       1.035  10.268  20.503  0.00  0.00    +0.000 OA
BRANCH  11  12
ATOM     12  C   UNL     1      -0.125  10.647  19.843  0.00  0.00    +0.000 A 
ATOM     13  C   UNL     1      -0.926  11.599  20.481  0.00  0.00    +0.000 A 
ATOM     14  C   UNL     1      -2.109  12.052  19.881  0.00  0.00    +0.000 A 
ATOM     15  C   UNL     1      -2.489  11.567  18.632  0.00  0.00    +0.000 A 
ATOM     16  C   UNL     1      -1.687  10.635  17.984  0.00  0.00    +0.000 A 
ATOM     17  C   UNL     1      -0.509  10.176  18.584  0.00  0.00    +0.000 A 
ENDBRANCH  11  12
ENDBRANCH  10  11
ENDBRANCH   2  10
BRANCH   7  18
ATOM     18  S   UNL     1       4.196   2.298  19.368  0.00  0.00    +0.000 S 
BRANCH  18  19
ATOM     19  C   UNL     1       4.147   2.683  17.589  0.00  0.00    +0.000 C 
BRANCH  19  20
ATOM     20  C   UNL     1       5.037   3.865  17.227  0.00  0.00    +0.000 A 
ATOM     21  C   UNL     1       4.572   4.841  16.416  0.00  0.00    +0.000 A 
ATOM     22  C   UNL     1       5.451   5.984  16.077  0.00  0.00    +0.000 A 
ATOM     23  O   UNL     1       5.229   6.681  15.096  0.00  0.00    +0.000 OA
ATOM     24  C   UNL     1       6.554   6.265  17.012  0.00  0.00    +0.000 A 
ATOM     25  C   UNL     1       7.158   7.528  17.038  0.00  0.00    +0.000 A 
ATOM     26  C   UNL     1       8.028   7.843  18.078  0.00  0.00    +0.000 A 
ATOM     27  C   UNL     1       8.325   6.884  19.049  0.00  0.00    +0.000 A 
ATOM     28  C   UNL     1       7.793   5.589  18.958  0.00  0.00    +0.000 A 
ATOM     29  C   UNL     1       6.884   5.274  17.947  0.00  0.00    +0.000 A 
ATOM     30  N   UNL     1       6.264   3.997  17.897  0.00  0.00    +0.000 N 
ATOM     31  H   UNL     1       6.931   3.279  17.601  0.00  0.00    +0.000 HD
ENDBRANCH  19  20
ENDBRANCH  18  19
ENDBRANCH   7  18
TORSDOF 6
ENDMDL
MODEL 3
REMARK VINA RESULT:      -8.1      0.741      1.079
REMARK  Name = 
REMARK  6 active torsions:
REMARK  status: ('A' for Active; 'I' for Inactive)
REMARK    1  A    between atoms: C_2  and  C_3
REMARK    2  A    between atoms: C_3  and  O_4
REMARK    3  A    between atoms: O_4  and  C_5
REMARK    4  A    between atoms: C_15  and  S_16
REMARK    5  A    between atoms: S_16  and  C_17
REMARK    6  A    between atoms: C_17  and  C_18
REMARK                            x       y       z     vdW  Elec       q    Type
REMARK                         _______ _______ _______ _____ _____    ______ ____
ROOT
ATOM      1  O   UNL     1       7.980   9.915  17.737  0.00  0.00    +0.000 OA
ATOM      2  C   UNL     1       8.688   9.536  18.670  0.00  0.00    +0.000 C 
ATOM      3  N   UNL     1       8.755   8.244  19.157  0.00  0.00    +0.000 N 
ATOM      4  C   UNL     1       8.195   7.112  18.591  0.00  0.00    +0.000 A 
ATOM      5  N   UNL     1       8.173   5.952  19.214  0.00  0.00    +0.000 NA
ATOM      6  N   UNL     1       7.582   4.951  18.453  0.00  0.00    +0.000 NA
ATOM      7  C   UNL     1       7.211   5.386  17.268  0.00  0.00    +0.000 A 
ATOM      8  S   UNL     1       7.573   7.048  17.000  0.00  0.00    +0.000 S 
ATOM      9  H   UNL     1       9.163   8.083  20.070  0.00  0.00    +0.000 HD
ENDROOT
BRANCH   2  10
ATOM     10  C   UNL     1       9.642  10.519  19.387  0.00  0.00    +0.000 C 
BRANCH  10  11
ATOM     11  O   UNL     1       9.213  11.868  19.372  0.00  0.00    +0.000 OA
BRANCH  11  12
ATOM     12  C   UNL     1       9.073  12.455  20.621  0.00  0.00    +0.000 A 
ATOM     13  C   UNL     1       9.158  13.849  20.671  0.00  0.00    +0.000 A 
ATOM     14  C   UNL     1       9.015  14.528  21.888  0.00  0.00    +0.000 A 
ATOM     15  C   UNL     1       8.769  13.817  23.060  0.00  0.00    +0.000 A 
ATOM     16  C   UNL     1       8.664  12.432  23.015  0.00  0.00    +0.000 A 
ATOM     17  C   UNL     1       8.814  11.751  21.801  0.00  0.00    +0.000 A 
ENDBRANCH  11  12
ENDBRANCH  10  11
ENDBRANCH   2  10
BRANCH   7  18
ATOM     18  S   UNL     1       6.452   4.348  16.058  0.00  0.00    +0.000 S 
BRANCH  18  19
ATOM     19  C   UNL     1       4.773   5.047  15.993  0.00  0.00    +0.000 C 
BRANCH  19  20
ATOM     20  C   UNL     1       4.097   5.062  17.359  0.00  0.00    +0.000 A 
ATOM     21  C   UNL     1       3.394   6.146  17.756  0.00  0.00    +0.000 A 
ATOM     22  C   UNL     1       2.743   6.141  19.087  0.00  0.00    +0.000 A 
ATOM     23  O   UNL     1       2.418   7.186  19.633  0.00  0.00    +0.000 OA
ATOM     24  C   UNL     1       2.458   4.820  19.675  0.00  0.00    +0.000 A 
ATOM     25  C   UNL     1       1.492   4.684  20.679  0.00  0.00    +0.000 A 
ATOM     26  C   UNL     1       1.075   3.409  21.050  0.00  0.00    +0.000 A 
ATOM     27  C   UNL     1       1.659   2.288  20.457  0.00  0.00    +0.000 A 
ATOM     28  C   UNL     1       2.697   2.434  19.525  0.00  0.00    +0.000 A 
ATOM     29  C   UNL     1       3.093   3.705  19.110  0.00  0.00    +0.000 A 
ATOM     30  N   UNL     1       4.077   3.868  18.098  0.00  0.00    +0.000 N 
ATOM     31  H   UNL     1       5.007   3.631  18.451  0.00  0.00    +0.000 HD
ENDBRANCH  19  20
ENDBRANCH  18  19
ENDBRANCH   7  18
TORSDOF 6
ENDMDL
MODEL 4
REMARK VINA RESULT:      -8.1      4.383      7.239
REMARK  Name = 
REMARK  6 active torsions:
REMARK  status: ('A' for Active; 'I' for Inactive)
REMARK    1  A    between atoms: C_2  and  C_3
REMARK    2  A    between atoms: C_3  and  O_4
REMARK    3  A    between atoms: O_4  and  C_5
REMARK    4  A    between atoms: C_15  and  S_16
REMARK    5  A    between atoms: S_16  and  C_17
REMARK    6  A    between atoms: C_17  and  C_18
REMARK                            x       y       z     vdW  Elec       q    Type
REMARK                         _______ _______ _______ _____ _____    ______ ____
ROOT
ATOM      1  O   UNL     1       1.310   8.628  19.607  0.00  0.00    +0.000 OA
ATOM      2  C   UNL     1       1.502   8.327  20.784  0.00  0.00    +0.000 C 
ATOM      3  N   UNL     1       1.653   7.042  21.273  0.00  0.00    +0.000 N 
ATOM      4  C   UNL     1       1.799   5.882  20.532  0.00  0.00    +0.000 A 
ATOM      5  N   UNL     1       1.771   4.687  21.084  0.00  0.00    +0.000 NA
ATOM      6  N   UNL     1       1.958   3.670  20.157  0.00  0.00    +0.000 NA
ATOM      7  C   UNL     1       2.154   4.137  18.943  0.00  0.00    +0.000 A 
ATOM      8  S   UNL     1       2.138   5.857  18.856  0.00  0.00    +0.000 S 
ATOM      9  H   UNL     1       1.553   6.880  22.267  0.00  0.00    +0.000 HD
ENDROOT
BRANCH   2  10
ATOM     10  C   UNL     1       1.638   9.422  21.868  0.00  0.00    +0.000 C 
BRANCH  10  11
ATOM     11  O   UNL     1       0.515   9.543  22.721  0.00  0.00    +0.000 OA
BRANCH  11  12
ATOM     12  C   UNL     1      -0.291  10.645  22.479  0.00  0.00    +0.000 A 
ATOM     13  C   UNL     1       0.080  11.472  21.415  0.00  0.00    +0.000 A 
ATOM     14  C   UNL     1      -0.683  12.601  21.089  0.00  0.00    +0.000 A 
ATOM     15  C   UNL     1      -1.834  12.900  21.816  0.00  0.00    +0.000 A 
ATOM     16  C   UNL     1      -2.220  12.071  22.863  0.00  0.00    +0.000 A 
ATOM     17  C   UNL     1      -1.455  10.947  23.194  0.00  0.00    +0.000 A 
ENDBRANCH  11  12
ENDBRANCH  10  11
ENDBRANCH   2  10
BRANCH   7  18
ATOM     18  S   UNL     1       2.447   3.095  17.548  0.00  0.00    +0.000 S 
BRANCH  18  19
ATOM     19  C   UNL     1       4.220   2.731  17.742  0.00  0.00    +0.000 C 
BRANCH  19  20
ATOM     20  C   UNL     1       5.102   3.905  17.334  0.00  0.00    +0.000 A 
ATOM     21  C   UNL     1       4.632   4.842  16.482  0.00  0.00    +0.000 A 
ATOM     22  C   UNL     1       5.504   5.977  16.098  0.00  0.00    +0.000 A 
ATOM     23  O   UNL     1       5.281   6.631  15.088  0.00  0.00    +0.000 OA
ATOM     24  C   UNL     1       6.600   6.307  17.026  0.00  0.00    +0.000 A 
ATOM     25  C   UNL     1       7.193   7.575  17.002  0.00  0.00    +0.000 A 
ATOM     26  C   UNL     1       8.055   7.941  18.032  0.00  0.00    +0.000 A 
ATOM     27  C   UNL     1       8.355   7.026  19.043  0.00  0.00    +0.000 A 
ATOM     28  C   UNL     1       7.834   5.724  19.004  0.00  0.00    +0.000 A 
ATOM     29  C   UNL     1       6.934   5.359  18.003  0.00  0.00    +0.000 A 
ATOM     30  N   UNL     1       6.325   4.075  18.003  0.00  0.00    +0.000 N 
ATOM     31  H   UNL     1       6.998   3.351  17.741  0.00  0.00    +0.000 HD
ENDBRANCH  19  20
ENDBRANCH  18  19
ENDBRANCH   7  18
TORSDOF 6
ENDMDL
MODEL 5
REMARK VINA RESULT:      -8.0      4.226      7.272
REMARK  Name = 
REMARK  6 active torsions:
REMARK  status: ('A' for Active; 'I' for Inactive)
REMARK    1  A    between atoms: C_2  and  C_3
REMARK    2  A    between atoms: C_3  and  O_4
REMARK    3  A    between atoms: O_4  and  C_5
REMARK    4  A    between atoms: C_15  and  S_16
REMARK    5  A    between atoms: S_16  and  C_17
REMARK    6  A    between atoms: C_17  and  C_18
REMARK                            x       y       z     vdW  Elec       q    Type
REMARK                         _______ _______ _______ _____ _____    ______ ____
ROOT
ATOM      1  O   UNL     1       2.158   7.886  19.573  0.00  0.00    +0.000 OA
ATOM      2  C   UNL     1       1.547   7.673  20.619  0.00  0.00    +0.000 C 
ATOM      3  N   UNL     1       1.308   6.430  21.174  0.00  0.00    +0.000 N 
ATOM      4  C   UNL     1       1.851   5.221  20.774  0.00  0.00    +0.000 A 
ATOM      5  N   UNL     1       1.437   4.069  21.258  0.00  0.00    +0.000 NA
ATOM      6  N   UNL     1       2.135   2.990  20.731  0.00  0.00    +0.000 NA
ATOM      7  C   UNL     1       3.074   3.370  19.893  0.00  0.00    +0.000 A 
ATOM      8  S   UNL     1       3.177   5.079  19.704  0.00  0.00    +0.000 S 
ATOM      9  H   UNL     1       0.592   6.338  21.886  0.00  0.00    +0.000 HD
ENDROOT
BRANCH   2  10
ATOM     10  C   UNL     1       1.000   8.846  21.467  0.00  0.00    +0.000 C 
BRANCH  10  11
ATOM     11  O   UNL     1       0.936  10.083  20.782  0.00  0.00    +0.000 OA
BRANCH  11  12
ATOM     12  C   UNL     1      -0.148  10.882  21.112  0.00  0.00    +0.000 A 
ATOM     13  C   UNL     1      -0.855  11.450  20.049  0.00  0.00    +0.000 A 
ATOM     14  C   UNL     1      -1.973  12.261  20.288  0.00  0.00    +0.000 A 
ATOM     15  C   UNL     1      -2.400  12.494  21.593  0.00  0.00    +0.000 A 
ATOM     16  C   UNL     1      -1.713  11.917  22.655  0.00  0.00    +0.000 A 
ATOM     17  C   UNL     1      -0.592  11.113  22.418  0.00  0.00    +0.000 A 
ENDBRANCH  11  12
ENDBRANCH  10  11
ENDBRANCH   2  10
BRANCH   7  18
ATOM     18  S   UNL     1       4.151   2.235  19.076  0.00  0.00    +0.000 S 
BRANCH  18  19
ATOM     19  C   UNL     1       4.021   2.800  17.351  0.00  0.00    +0.000 C 
BRANCH  19  20
ATOM     20  C   UNL     1       4.951   3.969  17.051  0.00  0.00    +0.000 A 
ATOM     21  C   UNL     1       4.527   4.993  16.278  0.00  0.00    +0.000 A 
ATOM     22  C   UNL     1       5.446   6.121  16.000  0.00  0.00    +0.000 A 
ATOM     23  O   UNL     1       5.258   6.867  15.048  0.00  0.00    +0.000 OA
ATOM     24  C   UNL     1       6.544   6.328  16.960  0.00  0.00    +0.000 A 
ATOM     25  C   UNL     1       7.186   7.569  17.048  0.00  0.00    +0.000 A 
ATOM     26  C   UNL     1       8.051   7.812  18.111  0.00  0.00    +0.000 A 
ATOM     27  C   UNL     1       8.305   6.802  19.043  0.00  0.00    +0.000 A 
ATOM     28  C   UNL     1       7.735   5.530  18.889  0.00  0.00    +0.000 A 
ATOM     29  C   UNL     1       6.831   5.287  17.854  0.00  0.00    +0.000 A 
ATOM     30  N   UNL     1       6.173   4.033  17.741  0.00  0.00    +0.000 N 
ATOM     31  H   UNL     1       6.821   3.308  17.422  0.00  0.00    +0.000 HD
ENDBRANCH  19  20
ENDBRANCH  18  19
ENDBRANCH   7  18
TORSDOF 6
ENDMDL
MODEL 6
REMARK VINA RESULT:      -8.0      5.341      8.277
REMARK  Name = 
REMARK  6 active torsions:
REMARK  status: ('A' for Active; 'I' for Inactive)
REMARK    1  A    between atoms: C_2  and  C_3
REMARK    2  A    between atoms: C_3  and  O_4
REMARK    3  A    between atoms: O_4  and  C_5
REMARK    4  A    between atoms: C_15  and  S_16
REMARK    5  A    between atoms: S_16  and  C_17
REMARK    6  A    between atoms: C_17  and  C_18
REMARK                            x       y       z     vdW  Elec       q    Type
REMARK                         _______ _______ _______ _____ _____    ______ ____
ROOT
ATOM      1  O   UNL     1       2.225   8.917  17.371  0.00  0.00    +0.000 OA
ATOM      2  C   UNL     1       1.637   9.134  18.429  0.00  0.00    +0.000 C 
ATOM      3  N   UNL     1       1.514   8.245  19.481  0.00  0.00    +0.000 N 
ATOM      4  C   UNL     1       2.166   7.032  19.625  0.00  0.00    +0.000 A 
ATOM      5  N   UNL     1       1.861   6.179  20.580  0.00  0.00    +0.000 NA
ATOM      6  N   UNL     1       2.654   5.039  20.548  0.00  0.00    +0.000 NA
ATOM      7  C   UNL     1       3.553   5.090  19.589  0.00  0.00    +0.000 A 
ATOM      8  S   UNL     1       3.498   6.546  18.670  0.00  0.00    +0.000 S 
ATOM      9  H   UNL     1       0.812   8.416  20.190  0.00  0.00    +0.000 HD
ENDROOT
BRANCH   2  10
ATOM     10  C   UNL     1       0.986  10.511  18.703  0.00  0.00    +0.000 C 
BRANCH  10  11
ATOM     11  O   UNL     1      -0.171  10.459  19.515  0.00  0.00    +0.000 OA
BRANCH  11  12
ATOM     12  C   UNL     1      -1.365  10.702  18.853  0.00  0.00    +0.000 A 
ATOM     13  C   UNL     1      -1.656   9.878  17.762  0.00  0.00    +0.000 A 
ATOM     14  C   UNL     1      -2.847  10.042  17.042  0.00  0.00    +0.000 A 
ATOM     15  C   UNL     1      -3.763  11.021  17.420  0.00  0.00    +0.000 A 
ATOM     16  C   UNL     1      -3.489  11.831  18.516  0.00  0.00    +0.000 A 
ATOM     17  C   UNL     1      -2.297  11.673  19.232  0.00  0.00    +0.000 A 
ENDBRANCH  11  12
ENDBRANCH  10  11
ENDBRANCH   2  10
BRANCH   7  18
ATOM     18  S   UNL     1       4.729   3.805  19.305  0.00  0.00    +0.000 S 
BRANCH  18  19
ATOM     19  C   UNL     1       4.283   3.281  17.619  0.00  0.00    +0.000 C 
BRANCH  19  20
ATOM     20  C   UNL     1       5.072   4.030  16.552  0.00  0.00    +0.000 A 
ATOM     21  C   UNL     1       6.173   4.736  16.891  0.00  0.00    +0.000 A 
ATOM     22  C   UNL     1       6.927   5.456  15.839  0.00  0.00    +0.000 A 
ATOM     23  O   UNL     1       7.684   6.374  16.122  0.00  0.00    +0.000 OA
ATOM     24  C   UNL     1       6.762   4.966  14.459  0.00  0.00    +0.000 A 
ATOM     25  C   UNL     1       7.717   5.264  13.481  0.00  0.00    +0.000 A 
ATOM     26  C   UNL     1       7.665   4.603  12.258  0.00  0.00    +0.000 A 
ATOM     27  C   UNL     1       6.637   3.692  12.004  0.00  0.00    +0.000 A 
ATOM     28  C   UNL     1       5.627   3.476  12.954  0.00  0.00    +0.000 A 
ATOM     29  C   UNL     1       5.692   4.097  14.201  0.00  0.00    +0.000 A 
ATOM     30  N   UNL     1       4.729   3.815  15.207  0.00  0.00    +0.000 N 
ATOM     31  H   UNL     1       3.827   4.240  14.978  0.00  0.00    +0.000 HD
ENDBRANCH  19  20
ENDBRANCH  18  19
ENDBRANCH   7  18
TORSDOF 6
ENDMDL
MODEL 7
REMARK VINA RESULT:      -8.0      7.110      9.684
REMARK  Name = 
REMARK  6 active torsions:
REMARK  status: ('A' for Active; 'I' for Inactive)
REMARK    1  A    between atoms: C_2  and  C_3
REMARK    2  A    between atoms: C_3  and  O_4
REMARK    3  A    between atoms: O_4  and  C_5
REMARK    4  A    between atoms: C_15  and  S_16
REMARK    5  A    between atoms: S_16  and  C_17
REMARK    6  A    between atoms: C_17  and  C_18
REMARK                            x       y       z     vdW  Elec       q    Type
REMARK                         _______ _______ _______ _____ _____    ______ ____
ROOT
ATOM      1  O   UNL     1       2.743   7.994  18.097  0.00  0.00    +0.000 OA
ATOM      2  C   UNL     1       2.578   7.131  18.958  0.00  0.00    +0.000 C 
ATOM      3  N   UNL     1       2.056   7.341  20.221  0.00  0.00    +0.000 N 
ATOM      4  C   UNL     1       1.460   8.498  20.692  0.00  0.00    +0.000 A 
ATOM      5  N   UNL     1       1.141   8.659  21.959  0.00  0.00    +0.000 NA
ATOM      6  N   UNL     1       0.536   9.885  22.203  0.00  0.00    +0.000 NA
ATOM      7  C   UNL     1       0.389  10.592  21.103  0.00  0.00    +0.000 A 
ATOM      8  S   UNL     1       0.969   9.795  19.691  0.00  0.00    +0.000 S 
ATOM      9  H   UNL     1       2.192   6.635  20.933  0.00  0.00    +0.000 HD
ENDROOT
BRANCH   2  10
ATOM     10  C   UNL     1       2.922   5.650  18.669  0.00  0.00    +0.000 C 
BRANCH  10  11
ATOM     11  O   UNL     1       4.234   5.272  19.038  0.00  0.00    +0.000 OA
BRANCH  11  12
ATOM     12  C   UNL     1       5.136   5.174  17.989  0.00  0.00    +0.000 A 
ATOM     13  C   UNL     1       4.883   4.185  17.035  0.00  0.00    +0.000 A 
ATOM     14  C   UNL     1       5.733   4.023  15.933  0.00  0.00    +0.000 A 
ATOM     15  C   UNL     1       6.833   4.862  15.770  0.00  0.00    +0.000 A 
ATOM     16  C   UNL     1       7.080   5.861  16.705  0.00  0.00    +0.000 A 
ATOM     17  C   UNL     1       6.235   6.019  17.810  0.00  0.00    +0.000 A 
ENDBRANCH  11  12
ENDBRANCH  10  11
ENDBRANCH   2  10
BRANCH   7  18
ATOM     18  S   UNL     1      -0.370  12.185  21.078  0.00  0.00    +0.000 S 
BRANCH  18  19
ATOM     19  C   UNL     1      -0.561  12.460  19.289  0.00  0.00    +0.000 C 
BRANCH  19  20
ATOM     20  C   UNL     1      -1.993  12.241  18.818  0.00  0.00    +0.000 A 
ATOM     21  C   UNL     1      -2.251  11.388  17.802  0.00  0.00    +0.000 A 
ATOM     22  C   UNL     1      -3.651  11.187  17.360  0.00  0.00    +0.000 A 
ATOM     23  O   UNL     1      -3.903  10.731  16.253  0.00  0.00    +0.000 OA
ATOM     24  C   UNL     1      -4.703  11.504  18.342  0.00  0.00    +0.000 A 
ATOM     25  C   UNL     1      -5.986  10.962  18.206  0.00  0.00    +0.000 A 
ATOM     26  C   UNL     1      -6.888  11.082  19.260  0.00  0.00    +0.000 A 
ATOM     27  C   UNL     1      -6.520  11.781  20.411  0.00  0.00    +0.000 A 
ATOM     28  C   UNL     1      -5.267  12.406  20.496  0.00  0.00    +0.000 A 
ATOM     29  C   UNL     1      -4.337  12.255  19.467  0.00  0.00    +0.000 A 
ATOM     30  N   UNL     1      -3.031  12.802  19.580  0.00  0.00    +0.000 N 
ATOM     31  H   UNL     1      -3.053  13.821  19.489  0.00  0.00    +0.000 HD
ENDBRANCH  19  20
ENDBRANCH  18  19
ENDBRANCH   7  18
TORSDOF 6
ENDMDL
MODEL 8
REMARK VINA RESULT:      -7.9      7.415     10.505
REMARK  Name = 
REMARK  6 active torsions:
REMARK  status: ('A' for Active; 'I' for Inactive)
REMARK    1  A    between atoms: C_2  and  C_3
REMARK    2  A    between atoms: C_3  and  O_4
REMARK    3  A    between atoms: O_4  and  C_5
REMARK    4  A    between atoms: C_15  and  S_16
REMARK    5  A    between atoms: S_16  and  C_17
REMARK    6  A    between atoms: C_17  and  C_18
REMARK                            x       y       z     vdW  Elec       q    Type
REMARK                         _______ _______ _______ _____ _____    ______ ____
ROOT
ATOM      1  O   UNL     1       2.421   8.859  17.787  0.00  0.00    +0.000 OA
ATOM      2  C   UNL     1       2.493   7.887  18.538  0.00  0.00    +0.000 C 
ATOM      3  N   UNL     1       2.113   7.866  19.868  0.00  0.00    +0.000 N 
ATOM      4  C   UNL     1       1.425   8.853  20.551  0.00  0.00    +0.000 A 
ATOM      5  N   UNL     1       1.253   8.815  21.856  0.00  0.00    +0.000 NA
ATOM      6  N   UNL     1       0.517   9.895  22.327  0.00  0.00    +0.000 NA
ATOM      7  C   UNL     1       0.130  10.691  21.353  0.00  0.00    +0.000 A 
ATOM      8  S   UNL     1       0.630  10.163  19.792  0.00  0.00    +0.000 S 
ATOM      9  H   UNL     1       2.440   7.112  20.460  0.00  0.00    +0.000 HD
ENDROOT
BRANCH   2  10
ATOM     10  C   UNL     1       3.003   6.522  18.018  0.00  0.00    +0.000 C 
BRANCH  10  11
ATOM     11  O   UNL     1       3.312   5.588  19.034  0.00  0.00    +0.000 OA
BRANCH  11  12
ATOM     12  C   UNL     1       2.618   4.389  18.962  0.00  0.00    +0.000 A 
ATOM     13  C   UNL     1       1.595   4.200  19.897  0.00  0.00    +0.000 A 
ATOM     14  C   UNL     1       0.832   3.025  19.890  0.00  0.00    +0.000 A 
ATOM     15  C   UNL     1       1.076   2.039  18.936  0.00  0.00    +0.000 A 
ATOM     16  C   UNL     1       2.079   2.229  17.992  0.00  0.00    +0.000 A 
ATOM     17  C   UNL     1       2.847   3.399  18.002  0.00  0.00    +0.000 A 
ENDBRANCH  11  12
ENDBRANCH  10  11
ENDBRANCH   2  10
BRANCH   7  18
ATOM     18  S   UNL     1      -0.844  12.138  21.625  0.00  0.00    +0.000 S 
BRANCH  18  19
ATOM     19  C   UNL     1      -1.009  12.779  19.929  0.00  0.00    +0.000 C 
BRANCH  19  20
ATOM     20  C   UNL     1      -2.385  12.504  19.336  0.00  0.00    +0.000 A 
ATOM     21  C   UNL     1      -2.513  11.680  18.272  0.00  0.00    +0.000 A 
ATOM     22  C   UNL     1      -3.860  11.423  17.711  0.00  0.00    +0.000 A 
ATOM     23  O   UNL     1      -3.998  11.000  16.571  0.00  0.00    +0.000 OA
ATOM     24  C   UNL     1      -5.002  11.644  18.615  0.00  0.00    +0.000 A 
ATOM     25  C   UNL     1      -6.239  11.041  18.356  0.00  0.00    +0.000 A 
ATOM     26  C   UNL     1      -7.227  11.070  19.336  0.00  0.00    +0.000 A 
ATOM     27  C   UNL     1      -6.991  11.741  20.539  0.00  0.00    +0.000 A 
ATOM     28  C   UNL     1      -5.786  12.428  20.747  0.00  0.00    +0.000 A 
ATOM     29  C   UNL     1      -4.770  12.368  19.793  0.00  0.00    +0.000 A 
ATOM     30  N   UNL     1      -3.510  12.978  20.030  0.00  0.00    +0.000 N 
ATOM     31  H   UNL     1      -3.581  13.998  19.975  0.00  0.00    +0.000 HD
ENDBRANCH  19  20
ENDBRANCH  18  19
ENDBRANCH   7  18
TORSDOF 6
ENDMDL
MODEL 9
REMARK VINA RESULT:      -7.9      7.552     11.349
REMARK  Name = 
REMARK  6 active torsions:
REMARK  status: ('A' for Active; 'I' for Inactive)
REMARK    1  A    between atoms: C_2  and  C_3
REMARK    2  A    between atoms: C_3  and  O_4
REMARK    3  A    between atoms: O_4  and  C_5
REMARK    4  A    between atoms: C_15  and  S_16
REMARK    5  A    between atoms: S_16  and  C_17
REMARK    6  A    between atoms: C_17  and  C_18
REMARK                            x       y       z     vdW  Elec       q    Type
REMARK                         _______ _______ _______ _____ _____    ______ ____
ROOT
ATOM      1  O   UNL     1       1.725   8.482  19.079  0.00  0.00    +0.000 OA
ATOM      2  C   UNL     1       1.843   7.819  20.109  0.00  0.00    +0.000 C 
ATOM      3  N   UNL     1       1.471   8.227  21.377  0.00  0.00    +0.000 N 
ATOM      4  C   UNL     1       0.744   9.358  21.708  0.00  0.00    +0.000 A 
ATOM      5  N   UNL     1       0.581   9.749  22.954  0.00  0.00    +0.000 NA
ATOM      6  N   UNL     1      -0.199  10.895  23.053  0.00  0.00    +0.000 NA
ATOM      7  C   UNL     1      -0.625  11.306  21.878  0.00  0.00    +0.000 A 
ATOM      8  S   UNL     1      -0.110  10.308  20.572  0.00  0.00    +0.000 S 
ATOM      9  H   UNL     1       1.833   7.727  22.180  0.00  0.00    +0.000 HD
ENDROOT
BRANCH   2  10
ATOM     10  C   UNL     1       2.409   6.380  20.062  0.00  0.00    +0.000 C 
BRANCH  10  11
ATOM     11  O   UNL     1       2.419   5.798  18.773  0.00  0.00    +0.000 OA
BRANCH  11  12
ATOM     12  C   UNL     1       2.760   4.454  18.738  0.00  0.00    +0.000 A 
ATOM     13  C   UNL     1       2.138   3.675  17.758  0.00  0.00    +0.000 A 
ATOM     14  C   UNL     1       2.431   2.309  17.640  0.00  0.00    +0.000 A 
ATOM     15  C   UNL     1       3.362   1.719  18.491  0.00  0.00    +0.000 A 
ATOM     16  C   UNL     1       3.999   2.492  19.455  0.00  0.00    +0.000 A 
ATOM     17  C   UNL     1       3.702   3.853  19.579  0.00  0.00    +0.000 A 
ENDBRANCH  11  12
ENDBRANCH  10  11
ENDBRANCH   2  10
BRANCH   7  18
ATOM     18  S   UNL     1      -1.659  12.721  21.672  0.00  0.00    +0.000 S 
BRANCH  18  19
ATOM     19  C   UNL     1      -1.480  13.036  19.888  0.00  0.00    +0.000 C 
BRANCH  19  20
ATOM     20  C   UNL     1      -0.508  14.172  19.594  0.00  0.00    +0.000 A 
ATOM     21  C   UNL     1       0.808  13.914  19.432  0.00  0.00    +0.000 A 
ATOM     22  C   UNL     1       1.737  15.032  19.146  0.00  0.00    +0.000 A 
ATOM     23  O   UNL     1       2.939  14.920  19.346  0.00  0.00    +0.000 OA
ATOM     24  C   UNL     1       1.145  16.244  18.553  0.00  0.00    +0.000 A 
ATOM     25  C   UNL     1       1.946  17.158  17.859  0.00  0.00    +0.000 A 
ATOM     26  C   UNL     1       1.337  18.164  17.113  0.00  0.00    +0.000 A 
ATOM     27  C   UNL     1      -0.055  18.278  17.108  0.00  0.00    +0.000 A 
ATOM     28  C   UNL     1      -0.844  17.418  17.888  0.00  0.00    +0.000 A 
ATOM     29  C   UNL     1      -0.250  16.378  18.603  0.00  0.00    +0.000 A 
ATOM     30  N   UNL     1      -1.042  15.442  19.321  0.00  0.00    +0.000 N 
ATOM     31  H   UNL     1      -1.440  15.869  20.161  0.00  0.00    +0.000 HD
ENDBRANCH  19  20
ENDBRANCH  18  19
ENDBRANCH   7  18
TORSDOF 6
ENDMDL
