MODEL 1
REMARK VINA RESULT:      -6.9      0.000      0.000
REMARK  Name = 
REMARK  3 active torsions:
REMARK  status: ('A' for Active; 'I' for Inactive)
REMARK    1  A    between atoms: C_1  and  C_2
REMARK    2  A    between atoms: C_4  and  C_5
REMARK    3  A    between atoms: C_11  and  N_12
REMARK                            x       y       z     vdW  Elec       q    Type
REMARK                         _______ _______ _______ _____ _____    ______ ____
ROOT
ATOM      1  C   UNL     1       6.435   4.406  17.628  0.00  0.00    +0.000 C 
ATOM      2  O   UNL     1       7.391   4.597  18.378  0.00  0.00    +0.000 OA
ATOM      3  N   UNL     1       5.158   4.119  18.144  0.00  0.00    +0.000 N 
ATOM      4  C   UNL     1       5.006   3.977  19.590  0.00  0.00    +0.000 C 
ATOM      5  C   UNL     1       3.874   3.010  19.939  0.00  0.00    +0.000 C 
ATOM      6  C   UNL     1       2.570   3.379  19.230  0.00  0.00    +0.000 C 
ATOM      7  C   UNL     1       2.790   3.497  17.717  0.00  0.00    +0.000 C 
ATOM      8  C   UNL     1       3.929   4.489  17.431  0.00  0.00    +0.000 C 
ENDROOT
BRANCH   1  12
ATOM      9  C   UNL     1       6.466   3.824  12.599  0.00  0.00    +0.000 C 
ATOM     10  C   UNL     1       6.610   4.284  13.998  0.00  0.00    +0.000 A 
ATOM     11  C   UNL     1       6.044   3.739  15.171  0.00  0.00    +0.000 A 
ATOM     12  C   UNL     1       6.573   4.492  16.193  0.00  0.00    +0.000 A 
ATOM     13  O   UNL     1       7.317   5.498  15.650  0.00  0.00    +0.000 OA
ATOM     14  N   UNL     1       7.372   5.348  14.276  0.00  0.00    +0.000 NA
ENDBRANCH   1  12
BRANCH   7  15
ATOM     15  N   UNL     1       1.555   3.912  17.046  0.00  0.00    +0.000 NA
ATOM     16  H   UNL     1       0.804   4.027  17.724  0.00  0.00    +0.000 HD
ATOM     17  H   UNL     1       1.253   3.182  16.402  0.00  0.00    +0.000 HD
ENDBRANCH   7  15
TORSDOF 2
ENDMDL
MODEL 2
REMARK VINA RESULT:      -6.8      2.443      3.514
REMARK  Name = 
REMARK  3 active torsions:
REMARK  status: ('A' for Active; 'I' for Inactive)
REMARK    1  A    between atoms: C_1  and  C_2
REMARK    2  A    between atoms: C_4  and  C_5
REMARK    3  A    between atoms: C_11  and  N_12
REMARK                            x       y       z     vdW  Elec       q    Type
REMARK                         _______ _______ _______ _____ _____    ______ ____
ROOT
ATOM      1  C   UNL     1       5.116   4.306  17.191  0.00  0.00    +0.000 C 
ATOM      2  O   UNL     1       5.328   3.555  16.240  0.00  0.00    +0.000 OA
ATOM      3  N   UNL     1       3.923   4.218  17.931  0.00  0.00    +0.000 N 
ATOM      4  C   UNL     1       2.904   3.264  17.499  0.00  0.00    +0.000 C 
ATOM      5  C   UNL     1       1.499   3.745  17.864  0.00  0.00    +0.000 C 
ATOM      6  C   UNL     1       1.390   4.115  19.344  0.00  0.00    +0.000 C 
ATOM      7  C   UNL     1       2.472   5.129  19.732  0.00  0.00    +0.000 C 
ATOM      8  C   UNL     1       3.859   4.584  19.352  0.00  0.00    +0.000 C 
ENDROOT
BRANCH   1  12
ATOM      9  C   UNL     1       8.128   8.310  17.917  0.00  0.00    +0.000 C 
ATOM     10  C   UNL     1       7.424   7.009  17.959  0.00  0.00    +0.000 A 
ATOM     11  C   UNL     1       6.248   6.618  17.282  0.00  0.00    +0.000 A 
ATOM     12  C   UNL     1       6.088   5.290  17.605  0.00  0.00    +0.000 A 
ATOM     13  O   UNL     1       7.047   4.947  18.513  0.00  0.00    +0.000 OA
ATOM     14  N   UNL     1       7.907   6.012  18.708  0.00  0.00    +0.000 NA
ENDBRANCH   1  12
BRANCH   7  15
ATOM     15  N   UNL     1       2.407   5.434  21.164  0.00  0.00    +0.000 NA
ATOM     16  H   UNL     1       1.448   5.642  21.438  0.00  0.00    +0.000 HD
ATOM     17  H   UNL     1       2.951   6.273  21.360  0.00  0.00    +0.000 HD
ENDBRANCH   7  15
TORSDOF 2
ENDMDL
MODEL 3
REMARK VINA RESULT:      -6.6      2.278      2.855
REMARK  Name = 
REMARK  3 active torsions:
REMARK  status: ('A' for Active; 'I' for Inactive)
REMARK    1  A    between atoms: C_1  and  C_2
REMARK    2  A    between atoms: C_4  and  C_5
REMARK    3  A    between atoms: C_11  and  N_12
REMARK                            x       y       z     vdW  Elec       q    Type
REMARK                         _______ _______ _______ _____ _____    ______ ____
ROOT
ATOM      1  C   UNL     1       4.765   3.481  19.270  0.00  0.00    +0.000 C 
ATOM      2  O   UNL     1       5.010   2.419  19.840  0.00  0.00    +0.000 OA
ATOM      3  N   UNL     1       3.688   4.289  19.677  0.00  0.00    +0.000 N 
ATOM      4  C   UNL     1       2.817   3.803  20.744  0.00  0.00    +0.000 C 
ATOM      5  C   UNL     1       1.393   4.339  20.589  0.00  0.00    +0.000 C 
ATOM      6  C   UNL     1       1.370   5.861  20.437  0.00  0.00    +0.000 C 
ATOM      7  C   UNL     1       2.289   6.307  19.294  0.00  0.00    +0.000 C 
ATOM      8  C   UNL     1       3.704   5.748  19.513  0.00  0.00    +0.000 C 
ENDROOT
BRANCH   1  12
ATOM      9  C   UNL     1       6.898   4.806  14.874  0.00  0.00    +0.000 C 
ATOM     10  C   UNL     1       6.553   4.552  16.289  0.00  0.00    +0.000 A 
ATOM     11  C   UNL     1       5.328   4.110  16.836  0.00  0.00    +0.000 A 
ATOM     12  C   UNL     1       5.584   3.957  18.179  0.00  0.00    +0.000 A 
ATOM     13  O   UNL     1       6.851   4.393  18.431  0.00  0.00    +0.000 OA
ATOM     14  N   UNL     1       7.473   4.732  17.244  0.00  0.00    +0.000 NA
ENDBRANCH   1  12
BRANCH   7  15
ATOM     15  N   UNL     1       2.315   7.768  19.191  0.00  0.00    +0.000 NA
ATOM     16  H   UNL     1       1.382   8.151  19.337  0.00  0.00    +0.000 HD
ATOM     17  H   UNL     1       2.594   8.041  18.249  0.00  0.00    +0.000 HD
ENDBRANCH   7  15
TORSDOF 2
ENDMDL
MODEL 4
REMARK VINA RESULT:      -6.5      2.032      2.329
REMARK  Name = 
REMARK  3 active torsions:
REMARK  status: ('A' for Active; 'I' for Inactive)
REMARK    1  A    between atoms: C_1  and  C_2
REMARK    2  A    between atoms: C_4  and  C_5
REMARK    3  A    between atoms: C_11  and  N_12
REMARK                            x       y       z     vdW  Elec       q    Type
REMARK                         _______ _______ _______ _____ _____    ______ ____
ROOT
ATOM      1  C   UNL     1       4.159   6.130  17.633  0.00  0.00    +0.000 C 
ATOM      2  O   UNL     1       3.891   7.324  17.760  0.00  0.00    +0.000 OA
ATOM      3  N   UNL     1       3.430   5.148  18.327  0.00  0.00    +0.000 N 
ATOM      4  C   UNL     1       2.394   5.580  19.263  0.00  0.00    +0.000 C 
ATOM      5  C   UNL     1       2.222   4.578  20.406  0.00  0.00    +0.000 C 
ATOM      6  C   UNL     1       2.010   3.154  19.888  0.00  0.00    +0.000 C 
ATOM      7  C   UNL     1       3.134   2.753  18.926  0.00  0.00    +0.000 C 
ATOM      8  C   UNL     1       3.250   3.790  17.797  0.00  0.00    +0.000 C 
ENDROOT
BRANCH   1  12
ATOM      9  C   UNL     1       7.164   4.671  13.829  0.00  0.00    +0.000 C 
ATOM     10  C   UNL     1       6.558   5.040  15.127  0.00  0.00    +0.000 A 
ATOM     11  C   UNL     1       5.312   5.654  15.379  0.00  0.00    +0.000 A 
ATOM     12  C   UNL     1       5.211   5.683  16.751  0.00  0.00    +0.000 A 
ATOM     13  O   UNL     1       6.380   5.219  17.281  0.00  0.00    +0.000 OA
ATOM     14  N   UNL     1       7.211   4.782  16.266  0.00  0.00    +0.000 NA
ENDBRANCH   1  12
BRANCH   7  15
ATOM     15  N   UNL     1       2.896   1.414  18.381  0.00  0.00    +0.000 NA
ATOM     16  H   UNL     1       3.640   0.779  18.665  0.00  0.00    +0.000 HD
ATOM     17  H   UNL     1       2.920   1.449  17.363  0.00  0.00    +0.000 HD
ENDBRANCH   7  15
TORSDOF 2
ENDMDL
MODEL 5
REMARK VINA RESULT:      -6.4      1.711      1.799
REMARK  Name = 
REMARK  3 active torsions:
REMARK  status: ('A' for Active; 'I' for Inactive)
REMARK    1  A    between atoms: C_1  and  C_2
REMARK    2  A    between atoms: C_4  and  C_5
REMARK    3  A    between atoms: C_11  and  N_12
REMARK                            x       y       z     vdW  Elec       q    Type
REMARK                         _______ _______ _______ _____ _____    ______ ____
ROOT
ATOM      1  C   UNL     1       7.061   4.647  17.155  0.00  0.00    +0.000 C 
ATOM      2  O   UNL     1       8.007   4.169  17.779  0.00  0.00    +0.000 OA
ATOM      3  N   UNL     1       5.958   5.204  17.827  0.00  0.00    +0.000 N 
ATOM      4  C   UNL     1       5.924   5.135  19.286  0.00  0.00    +0.000 C 
ATOM      5  C   UNL     1       4.488   5.078  19.808  0.00  0.00    +0.000 C 
ATOM      6  C   UNL     1       3.629   6.208  19.238  0.00  0.00    +0.000 C 
ATOM      7  C   UNL     1       3.693   6.219  17.706  0.00  0.00    +0.000 C 
ATOM      8  C   UNL     1       5.157   6.289  17.245  0.00  0.00    +0.000 C 
ENDROOT
BRANCH   1  12
ATOM      9  C   UNL     1       6.558   3.894  12.174  0.00  0.00    +0.000 C 
ATOM     10  C   UNL     1       6.856   4.397  13.533  0.00  0.00    +0.000 A 
ATOM     11  C   UNL     1       6.403   3.907  14.777  0.00  0.00    +0.000 A 
ATOM     12  C   UNL     1       7.051   4.681  15.711  0.00  0.00    +0.000 A 
ATOM     13  O   UNL     1       7.756   5.650  15.057  0.00  0.00    +0.000 OA
ATOM     14  N   UNL     1       7.665   5.451  13.692  0.00  0.00    +0.000 NA
ENDBRANCH   1  12
BRANCH   7  15
ATOM     15  N   UNL     1       2.921   7.341  17.164  0.00  0.00    +0.000 NA
ATOM     16  H   UNL     1       3.148   7.485  16.182  0.00  0.00    +0.000 HD
ATOM     17  H   UNL     1       3.179   8.200  17.649  0.00  0.00    +0.000 HD
ENDBRANCH   7  15
TORSDOF 2
ENDMDL
MODEL 6
REMARK VINA RESULT:      -6.4      2.899      3.856
REMARK  Name = 
REMARK  3 active torsions:
REMARK  status: ('A' for Active; 'I' for Inactive)
REMARK    1  A    between atoms: C_1  and  C_2
REMARK    2  A    between atoms: C_4  and  C_5
REMARK    3  A    between atoms: C_11  and  N_12
REMARK                            x       y       z     vdW  Elec       q    Type
REMARK                         _______ _______ _______ _____ _____    ______ ____
ROOT
ATOM      1  C   UNL     1       6.798   5.238  17.344  0.00  0.00    +0.000 C 
ATOM      2  O   UNL     1       7.481   4.364  16.813  0.00  0.00    +0.000 OA
ATOM      3  N   UNL     1       5.482   4.973  17.763  0.00  0.00    +0.000 N 
ATOM      4  C   UNL     1       4.914   3.655  17.485  0.00  0.00    +0.000 C 
ATOM      5  C   UNL     1       3.397   3.728  17.308  0.00  0.00    +0.000 C 
ATOM      6  C   UNL     1       2.720   4.441  18.480  0.00  0.00    +0.000 C 
ATOM      7  C   UNL     1       3.346   5.821  18.711  0.00  0.00    +0.000 C 
ATOM      8  C   UNL     1       4.866   5.681  18.893  0.00  0.00    +0.000 C 
ENDROOT
BRANCH   1  12
ATOM      9  C   UNL     1       8.962   9.490  19.037  0.00  0.00    +0.000 C 
ATOM     10  C   UNL     1       8.249   8.439  18.278  0.00  0.00    +0.000 A 
ATOM     11  C   UNL     1       8.184   7.052  18.538  0.00  0.00    +0.000 A 
ATOM     12  C   UNL     1       7.322   6.562  17.583  0.00  0.00    +0.000 A 
ATOM     13  O   UNL     1       6.989   7.580  16.737  0.00  0.00    +0.000 OA
ATOM     14  N   UNL     1       7.539   8.764  17.192  0.00  0.00    +0.000 NA
ENDBRANCH   1  12
BRANCH   7  15
ATOM     15  N   UNL     1       2.740   6.477  19.872  0.00  0.00    +0.000 NA
ATOM     16  H   UNL     1       3.373   6.440  20.670  0.00  0.00    +0.000 HD
ATOM     17  H   UNL     1       1.898   5.973  20.149  0.00  0.00    +0.000 HD
ENDBRANCH   7  15
TORSDOF 2
ENDMDL
MODEL 7
REMARK VINA RESULT:      -6.4      3.223      5.945
REMARK  Name = 
REMARK  3 active torsions:
REMARK  status: ('A' for Active; 'I' for Inactive)
REMARK    1  A    between atoms: C_1  and  C_2
REMARK    2  A    between atoms: C_4  and  C_5
REMARK    3  A    between atoms: C_11  and  N_12
REMARK                            x       y       z     vdW  Elec       q    Type
REMARK                         _______ _______ _______ _____ _____    ______ ____
ROOT
ATOM      1  C   UNL     1       3.522   5.537  18.178  0.00  0.00    +0.000 C 
ATOM      2  O   UNL     1       2.733   6.126  17.441  0.00  0.00    +0.000 OA
ATOM      3  N   UNL     1       4.881   5.896  18.218  0.00  0.00    +0.000 N 
ATOM      4  C   UNL     1       5.354   6.936  17.307  0.00  0.00    +0.000 C 
ATOM      5  C   UNL     1       6.821   6.724  16.931  0.00  0.00    +0.000 C 
ATOM      6  C   UNL     1       7.707   6.557  18.167  0.00  0.00    +0.000 C 
ATOM      7  C   UNL     1       7.170   5.443  19.073  0.00  0.00    +0.000 C 
ATOM      8  C   UNL     1       5.699   5.718  19.424  0.00  0.00    +0.000 C 
ENDROOT
BRANCH   1  12
ATOM      9  C   UNL     1       1.628   2.541  21.793  0.00  0.00    +0.000 C 
ATOM     10  C   UNL     1       2.278   3.126  20.600  0.00  0.00    +0.000 A 
ATOM     11  C   UNL     1       2.245   4.460  20.139  0.00  0.00    +0.000 A 
ATOM     12  C   UNL     1       3.086   4.472  19.051  0.00  0.00    +0.000 A 
ATOM     13  O   UNL     1       3.501   3.195  18.811  0.00  0.00    +0.000 OA
ATOM     14  N   UNL     1       3.026   2.356  19.802  0.00  0.00    +0.000 NA
ENDBRANCH   1  12
BRANCH   7  15
ATOM     15  N   UNL     1       7.983   5.327  20.287  0.00  0.00    +0.000 NA
ATOM     16  H   UNL     1       7.443   5.609  21.103  0.00  0.00    +0.000 HD
ATOM     17  H   UNL     1       8.776   5.965  20.230  0.00  0.00    +0.000 HD
ENDBRANCH   7  15
TORSDOF 2
ENDMDL
MODEL 8
REMARK VINA RESULT:      -6.3      2.596      3.363
REMARK  Name = 
REMARK  3 active torsions:
REMARK  status: ('A' for Active; 'I' for Inactive)
REMARK    1  A    between atoms: C_1  and  C_2
REMARK    2  A    between atoms: C_4  and  C_5
REMARK    3  A    between atoms: C_11  and  N_12
REMARK                            x       y       z     vdW  Elec       q    Type
REMARK                         _______ _______ _______ _____ _____    ______ ____
ROOT
ATOM      1  C   UNL     1       4.329   3.780  17.709  0.00  0.00    +0.000 C 
ATOM      2  O   UNL     1       4.571   2.687  17.200  0.00  0.00    +0.000 OA
ATOM      3  N   UNL     1       3.273   3.934  18.625  0.00  0.00    +0.000 N 
ATOM      4  C   UNL     1       2.418   2.782  18.902  0.00  0.00    +0.000 C 
ATOM      5  C   UNL     1       0.999   3.217  19.271  0.00  0.00    +0.000 C 
ATOM      6  C   UNL     1       0.995   4.256  20.394  0.00  0.00    +0.000 C 
ATOM      7  C   UNL     1       1.895   5.445  20.038  0.00  0.00    +0.000 C 
ATOM      8  C   UNL     1       3.307   4.945  19.690  0.00  0.00    +0.000 C 
ENDROOT
BRANCH   1  12
ATOM      9  C   UNL     1       7.614   7.628  17.508  0.00  0.00    +0.000 C 
ATOM     10  C   UNL     1       6.541   6.636  17.280  0.00  0.00    +0.000 A 
ATOM     11  C   UNL     1       6.298   5.423  17.962  0.00  0.00    +0.000 A 
ATOM     12  C   UNL     1       5.131   4.944  17.411  0.00  0.00    +0.000 A 
ATOM     13  O   UNL     1       4.769   5.765  16.384  0.00  0.00    +0.000 OA
ATOM     14  N   UNL     1       5.629   6.845  16.323  0.00  0.00    +0.000 NA
ENDBRANCH   1  12
BRANCH   7  15
ATOM     15  N   UNL     1       1.940   6.408  21.141  0.00  0.00    +0.000 NA
ATOM     16  H   UNL     1       1.396   6.067  21.932  0.00  0.00    +0.000 HD
ATOM     17  H   UNL     1       1.508   7.284  20.849  0.00  0.00    +0.000 HD
ENDBRANCH   7  15
TORSDOF 2
ENDMDL
MODEL 9
REMARK VINA RESULT:      -6.3      2.305      2.472
REMARK  Name = 
REMARK  3 active torsions:
REMARK  status: ('A' for Active; 'I' for Inactive)
REMARK    1  A    between atoms: C_1  and  C_2
REMARK    2  A    between atoms: C_4  and  C_5
REMARK    3  A    between atoms: C_11  and  N_12
REMARK                            x       y       z     vdW  Elec       q    Type
REMARK                         _______ _______ _______ _____ _____    ______ ____
ROOT
ATOM      1  C   UNL     1       5.106   4.306  18.419  0.00  0.00    +0.000 C 
ATOM      2  O   UNL     1       5.454   3.464  19.245  0.00  0.00    +0.000 OA
ATOM      3  N   UNL     1       4.149   5.285  18.743  0.00  0.00    +0.000 N 
ATOM      4  C   UNL     1       3.519   5.235  20.060  0.00  0.00    +0.000 C 
ATOM      5  C   UNL     1       2.101   5.805  20.022  0.00  0.00    +0.000 C 
ATOM      6  C   UNL     1       2.063   7.197  19.388  0.00  0.00    +0.000 C 
ATOM      7  C   UNL     1       2.723   7.182  18.004  0.00  0.00    +0.000 C 
ATOM      8  C   UNL     1       4.146   6.610  18.111  0.00  0.00    +0.000 C 
ENDROOT
BRANCH   1  12
ATOM      9  C   UNL     1       6.300   3.932  13.513  0.00  0.00    +0.000 C 
ATOM     10  C   UNL     1       6.243   4.206  14.966  0.00  0.00    +0.000 A 
ATOM     11  C   UNL     1       5.166   4.017  15.860  0.00  0.00    +0.000 A 
ATOM     12  C   UNL     1       5.679   4.343  17.094  0.00  0.00    +0.000 A 
ATOM     13  O   UNL     1       6.950   4.810  16.925  0.00  0.00    +0.000 OA
ATOM     14  N   UNL     1       7.318   4.690  15.597  0.00  0.00    +0.000 NA
ENDBRANCH   1  12
BRANCH   7  15
ATOM     15  N   UNL     1       2.743   8.528  17.426  0.00  0.00    +0.000 NA
ATOM     16  H   UNL     1       3.672   8.746  17.069  0.00  0.00    +0.000 HD
ATOM     17  H   UNL     1       2.544   9.215  18.152  0.00  0.00    +0.000 HD
ENDBRANCH   7  15
TORSDOF 2
ENDMDL
