MODEL 1
REMARK VINA RESULT:      -6.8      0.000      0.000
REMARK  Name = 
REMARK  10 active torsions:
REMARK  status: ('A' for Active; 'I' for Inactive)
REMARK    1  A    between atoms: C_1  and  C_2
REMARK    2  A    between atoms: C_2  and  O_3
REMARK    3  A    between atoms: O_3  and  C_4
REMARK    4  A    between atoms: C_4  and  C_6
REMARK    5  A    between atoms: C_8  and  C_9
REMARK    6  A    between atoms: C_9  and  O_11
REMARK    7  A    between atoms: O_11  and  C_12
REMARK    8  A    between atoms: C_12  and  C_13
REMARK    9  A    between atoms: C_14  and  O_15
REMARK   10  A    between atoms: C_17  and  C_18
REMARK                            x       y       z     vdW  Elec       q    Type
REMARK                         _______ _______ _______ _____ _____    ______ ____
ROOT
ATOM      1  C   UNL     1       3.358   5.019  17.580  0.00  0.00    +0.000 A 
ATOM      2  C   UNL     1       4.463   4.323  17.079  0.00  0.00    +0.000 A 
ATOM      3  C   UNL     1       5.648   5.007  16.800  0.00  0.00    +0.000 A 
ATOM      4  C   UNL     1       5.679   6.376  17.028  0.00  0.00    +0.000 A 
ATOM      5  N   UNL     1       4.621   7.069  17.498  0.00  0.00    +0.000 NA
ATOM      6  C   UNL     1       3.469   6.397  17.770  0.00  0.00    +0.000 A 
ATOM      7  C   UNL     1       2.346   7.233  18.312  0.00  0.00    +0.000 C 
ENDROOT
BRANCH   1   8
ATOM      8  C   UNL     1       2.135   4.284  17.963  0.00  0.00    +0.000 C 
ATOM      9  O   UNL     1       1.093   4.272  17.331  0.00  0.00    +0.000 OA
BRANCH   8  10
ATOM     10  O   UNL     1       2.329   3.773  19.205  0.00  0.00    +0.000 OA
BRANCH  10  12
ATOM     11  C   UNL     1       1.425   3.033  21.279  0.00  0.00    +0.000 C 
ATOM     12  C   UNL     1       1.279   4.028  20.144  0.00  0.00    +0.000 C 
ENDBRANCH  10  12
ENDBRANCH   8  10
ENDBRANCH   1   8
BRANCH   3  13
ATOM     13  C   UNL     1       6.818   4.324  16.220  0.00  0.00    +0.000 C 
ATOM     14  O   UNL     1       7.946   4.454  16.669  0.00  0.00    +0.000 OA
BRANCH  13  15
ATOM     15  O   UNL     1       6.459   3.663  15.096  0.00  0.00    +0.000 OA
BRANCH  15  16
ATOM     16  C   UNL     1       6.529   4.409  13.874  0.00  0.00    +0.000 C 
ATOM     17  C   UNL     1       5.970   3.536  12.769  0.00  0.00    +0.000 C 
ENDBRANCH  15  16
ENDBRANCH  13  15
ENDBRANCH   3  13
BRANCH   4  18
ATOM     18  O   UNL     1       6.776   7.155  16.796  0.00  0.00    +0.000 OA
ATOM     19  H   UNL     1       6.639   7.648  15.962  0.00  0.00    +0.000 HD
ENDBRANCH   4  18
TORSDOF 7
ENDMDL
MODEL 2
REMARK VINA RESULT:      -6.7      1.524      1.678
REMARK  Name = 
REMARK  10 active torsions:
REMARK  status: ('A' for Active; 'I' for Inactive)
REMARK    1  A    between atoms: C_1  and  C_2
REMARK    2  A    between atoms: C_2  and  O_3
REMARK    3  A    between atoms: O_3  and  C_4
REMARK    4  A    between atoms: C_4  and  C_6
REMARK    5  A    between atoms: C_8  and  C_9
REMARK    6  A    between atoms: C_9  and  O_11
REMARK    7  A    between atoms: O_11  and  C_12
REMARK    8  A    between atoms: C_12  and  C_13
REMARK    9  A    between atoms: C_14  and  O_15
REMARK   10  A    between atoms: C_17  and  C_18
REMARK                            x       y       z     vdW  Elec       q    Type
REMARK                         _______ _______ _______ _____ _____    ______ ____
ROOT
ATOM      1  C   UNL     1       3.970   4.434  17.075  0.00  0.00    +0.000 A 
ATOM      2  C   UNL     1       4.797   4.155  15.982  0.00  0.00    +0.000 A 
ATOM      3  C   UNL     1       5.926   4.942  15.745  0.00  0.00    +0.000 A 
ATOM      4  C   UNL     1       6.182   5.993  16.615  0.00  0.00    +0.000 A 
ATOM      5  N   UNL     1       5.389   6.289  17.668  0.00  0.00    +0.000 NA
ATOM      6  C   UNL     1       4.292   5.517  17.895  0.00  0.00    +0.000 A 
ATOM      7  C   UNL     1       3.475   5.894  19.097  0.00  0.00    +0.000 C 
ENDROOT
BRANCH   1   8
ATOM      8  C   UNL     1       2.828   3.548  17.382  0.00  0.00    +0.000 C 
ATOM      9  O   UNL     1       1.653   3.864  17.312  0.00  0.00    +0.000 OA
BRANCH   8  10
ATOM     10  O   UNL     1       3.324   2.398  17.903  0.00  0.00    +0.000 OA
BRANCH  10  12
ATOM     11  C   UNL     1       4.354   2.236  20.043  0.00  0.00    +0.000 C 
ATOM     12  C   UNL     1       3.039   2.181  19.289  0.00  0.00    +0.000 C 
ENDBRANCH  10  12
ENDBRANCH   8  10
ENDBRANCH   1   8
BRANCH   3  13
ATOM     13  C   UNL     1       6.795   4.718  14.576  0.00  0.00    +0.000 C 
ATOM     14  O   UNL     1       7.641   5.524  14.220  0.00  0.00    +0.000 OA
BRANCH  13  15
ATOM     15  O   UNL     1       6.426   3.585  13.936  0.00  0.00    +0.000 OA
BRANCH  15  16
ATOM     16  C   UNL     1       6.442   3.635  12.503  0.00  0.00    +0.000 C 
ATOM     17  C   UNL     1       5.026   3.391  12.019  0.00  0.00    +0.000 C 
ENDBRANCH  15  16
ENDBRANCH  13  15
ENDBRANCH   3  13
BRANCH   4  18
ATOM     18  O   UNL     1       7.251   6.833  16.492  0.00  0.00    +0.000 OA
ATOM     19  H   UNL     1       7.430   6.975  15.540  0.00  0.00    +0.000 HD
ENDBRANCH   4  18
TORSDOF 7
ENDMDL
MODEL 3
REMARK VINA RESULT:      -6.6      1.844      2.218
REMARK  Name = 
REMARK  10 active torsions:
REMARK  status: ('A' for Active; 'I' for Inactive)
REMARK    1  A    between atoms: C_1  and  C_2
REMARK    2  A    between atoms: C_2  and  O_3
REMARK    3  A    between atoms: O_3  and  C_4
REMARK    4  A    between atoms: C_4  and  C_6
REMARK    5  A    between atoms: C_8  and  C_9
REMARK    6  A    between atoms: C_9  and  O_11
REMARK    7  A    between atoms: O_11  and  C_12
REMARK    8  A    between atoms: C_12  and  C_13
REMARK    9  A    between atoms: C_14  and  O_15
REMARK   10  A    between atoms: C_17  and  C_18
REMARK                            x       y       z     vdW  Elec       q    Type
REMARK                         _______ _______ _______ _____ _____    ______ ____
ROOT
ATOM      1  C   UNL     1       4.063   4.535  17.435  0.00  0.00    +0.000 A 
ATOM      2  C   UNL     1       4.634   4.572  16.159  0.00  0.00    +0.000 A 
ATOM      3  C   UNL     1       6.018   4.460  16.012  0.00  0.00    +0.000 A 
ATOM      4  C   UNL     1       6.785   4.321  17.161  0.00  0.00    +0.000 A 
ATOM      5  N   UNL     1       6.256   4.296  18.403  0.00  0.00    +0.000 NA
ATOM      6  C   UNL     1       4.906   4.403  18.538  0.00  0.00    +0.000 A 
ATOM      7  C   UNL     1       4.393   4.343  19.948  0.00  0.00    +0.000 C 
ENDROOT
BRANCH   1   8
ATOM      8  C   UNL     1       2.593   4.560  17.586  0.00  0.00    +0.000 C 
ATOM      9  O   UNL     1       1.959   5.429  18.160  0.00  0.00    +0.000 OA
BRANCH   8  10
ATOM     10  O   UNL     1       2.108   3.380  17.125  0.00  0.00    +0.000 OA
BRANCH  10  12
ATOM     11  C   UNL     1       0.820   2.388  18.864  0.00  0.00    +0.000 C 
ATOM     12  C   UNL     1       2.110   2.305  18.070  0.00  0.00    +0.000 C 
ENDBRANCH  10  12
ENDBRANCH   8  10
ENDBRANCH   1   8
BRANCH   3  13
ATOM     13  C   UNL     1       6.667   4.549  14.692  0.00  0.00    +0.000 C 
ATOM     14  O   UNL     1       7.647   5.248  14.485  0.00  0.00    +0.000 OA
BRANCH  13  15
ATOM     15  O   UNL     1       5.953   3.854  13.777  0.00  0.00    +0.000 OA
BRANCH  15  16
ATOM     16  C   UNL     1       6.574   3.667  12.499  0.00  0.00    +0.000 C 
ATOM     17  C   UNL     1       5.758   2.642  11.737  0.00  0.00    +0.000 C 
ENDBRANCH  15  16
ENDBRANCH  13  15
ENDBRANCH   3  13
BRANCH   4  18
ATOM     18  O   UNL     1       8.145   4.202  17.151  0.00  0.00    +0.000 OA
ATOM     19  H   UNL     1       8.497   4.691  16.379  0.00  0.00    +0.000 HD
ENDBRANCH   4  18
TORSDOF 7
ENDMDL
MODEL 4
REMARK VINA RESULT:      -6.5      1.560      1.951
REMARK  Name = 
REMARK  10 active torsions:
REMARK  status: ('A' for Active; 'I' for Inactive)
REMARK    1  A    between atoms: C_1  and  C_2
REMARK    2  A    between atoms: C_2  and  O_3
REMARK    3  A    between atoms: O_3  and  C_4
REMARK    4  A    between atoms: C_4  and  C_6
REMARK    5  A    between atoms: C_8  and  C_9
REMARK    6  A    between atoms: C_9  and  O_11
REMARK    7  A    between atoms: O_11  and  C_12
REMARK    8  A    between atoms: C_12  and  C_13
REMARK    9  A    between atoms: C_14  and  O_15
REMARK   10  A    between atoms: C_17  and  C_18
REMARK                            x       y       z     vdW  Elec       q    Type
REMARK                         _______ _______ _______ _____ _____    ______ ____
ROOT
ATOM      1  C   UNL     1       4.448   4.013  17.411  0.00  0.00    +0.000 A 
ATOM      2  C   UNL     1       5.007   3.935  16.131  0.00  0.00    +0.000 A 
ATOM      3  C   UNL     1       6.032   4.810  15.765  0.00  0.00    +0.000 A 
ATOM      4  C   UNL     1       6.456   5.744  16.701  0.00  0.00    +0.000 A 
ATOM      5  N   UNL     1       5.922   5.845  17.936  0.00  0.00    +0.000 NA
ATOM      6  C   UNL     1       4.925   4.988  18.288  0.00  0.00    +0.000 A 
ATOM      7  C   UNL     1       4.399   5.148  19.685  0.00  0.00    +0.000 C 
ENDROOT
BRANCH   1   8
ATOM      8  C   UNL     1       3.430   3.029  17.833  0.00  0.00    +0.000 C 
ATOM      9  O   UNL     1       3.626   1.836  17.989  0.00  0.00    +0.000 OA
BRANCH   8  10
ATOM     10  O   UNL     1       2.228   3.657  17.851  0.00  0.00    +0.000 OA
BRANCH  10  12
ATOM     11  C   UNL     1       0.924   3.713  19.842  0.00  0.00    +0.000 C 
ATOM     12  C   UNL     1       1.186   2.966  18.548  0.00  0.00    +0.000 C 
ENDBRANCH  10  12
ENDBRANCH   8  10
ENDBRANCH   1   8
BRANCH   3  13
ATOM     13  C   UNL     1       6.612   4.800  14.410  0.00  0.00    +0.000 C 
ATOM     14  O   UNL     1       7.701   5.291  14.156  0.00  0.00    +0.000 OA
BRANCH  13  15
ATOM     15  O   UNL     1       5.722   4.288  13.529  0.00  0.00    +0.000 OA
BRANCH  15  16
ATOM     16  C   UNL     1       6.261   3.443  12.505  0.00  0.00    +0.000 C 
ATOM     17  C   UNL     1       5.101   2.920  11.682  0.00  0.00    +0.000 C 
ENDBRANCH  15  16
ENDBRANCH  13  15
ENDBRANCH   3  13
BRANCH   4  18
ATOM     18  O   UNL     1       7.448   6.652  16.465  0.00  0.00    +0.000 OA
ATOM     19  H   UNL     1       7.591   7.178  17.278  0.00  0.00    +0.000 HD
ENDBRANCH   4  18
TORSDOF 7
ENDMDL
MODEL 5
REMARK VINA RESULT:      -6.4      2.219      3.434
REMARK  Name = 
REMARK  10 active torsions:
REMARK  status: ('A' for Active; 'I' for Inactive)
REMARK    1  A    between atoms: C_1  and  C_2
REMARK    2  A    between atoms: C_2  and  O_3
REMARK    3  A    between atoms: O_3  and  C_4
REMARK    4  A    between atoms: C_4  and  C_6
REMARK    5  A    between atoms: C_8  and  C_9
REMARK    6  A    between atoms: C_9  and  O_11
REMARK    7  A    between atoms: O_11  and  C_12
REMARK    8  A    between atoms: C_12  and  C_13
REMARK    9  A    between atoms: C_14  and  O_15
REMARK   10  A    between atoms: C_17  and  C_18
REMARK                            x       y       z     vdW  Elec       q    Type
REMARK                         _______ _______ _______ _____ _____    ______ ____
ROOT
ATOM      1  C   UNL     1       5.491   4.547  16.369  0.00  0.00    +0.000 A 
ATOM      2  C   UNL     1       5.308   3.929  15.128  0.00  0.00    +0.000 A 
ATOM      3  C   UNL     1       6.188   4.203  14.078  0.00  0.00    +0.000 A 
ATOM      4  C   UNL     1       7.221   5.100  14.312  0.00  0.00    +0.000 A 
ATOM      5  N   UNL     1       7.408   5.718  15.497  0.00  0.00    +0.000 NA
ATOM      6  C   UNL     1       6.549   5.445  16.517  0.00  0.00    +0.000 A 
ATOM      7  C   UNL     1       6.836   6.153  17.809  0.00  0.00    +0.000 C 
ENDROOT
BRANCH   1   8
ATOM      8  C   UNL     1       4.619   4.189  17.507  0.00  0.00    +0.000 C 
ATOM      9  O   UNL     1       4.966   3.550  18.485  0.00  0.00    +0.000 OA
BRANCH   8  10
ATOM     10  O   UNL     1       3.351   4.552  17.189  0.00  0.00    +0.000 OA
BRANCH  10  12
ATOM     11  C   UNL     1       1.421   3.896  18.418  0.00  0.00    +0.000 C 
ATOM     12  C   UNL     1       2.526   4.928  18.297  0.00  0.00    +0.000 C 
ENDBRANCH  10  12
ENDBRANCH   8  10
ENDBRANCH   1   8
BRANCH   3  13
ATOM     13  C   UNL     1       6.002   3.617  12.739  0.00  0.00    +0.000 C 
ATOM     14  O   UNL     1       6.930   3.180  12.077  0.00  0.00    +0.000 OA
BRANCH  13  15
ATOM     15  O   UNL     1       4.714   3.753  12.349  0.00  0.00    +0.000 OA
BRANCH  15  16
ATOM     16  C   UNL     1       4.300   2.943  11.241  0.00  0.00    +0.000 C 
ATOM     17  C   UNL     1       3.341   3.766  10.403  0.00  0.00    +0.000 C 
ENDBRANCH  15  16
ENDBRANCH  13  15
ENDBRANCH   3  13
BRANCH   4  18
ATOM     18  O   UNL     1       8.144   5.450  13.369  0.00  0.00    +0.000 OA
ATOM     19  H   UNL     1       8.934   5.810  13.822  0.00  0.00    +0.000 HD
ENDBRANCH   4  18
TORSDOF 7
ENDMDL
MODEL 6
REMARK VINA RESULT:      -6.4      1.989      5.679
REMARK  Name = 
REMARK  10 active torsions:
REMARK  status: ('A' for Active; 'I' for Inactive)
REMARK    1  A    between atoms: C_1  and  C_2
REMARK    2  A    between atoms: C_2  and  O_3
REMARK    3  A    between atoms: O_3  and  C_4
REMARK    4  A    between atoms: C_4  and  C_6
REMARK    5  A    between atoms: C_8  and  C_9
REMARK    6  A    between atoms: C_9  and  O_11
REMARK    7  A    between atoms: O_11  and  C_12
REMARK    8  A    between atoms: C_12  and  C_13
REMARK    9  A    between atoms: C_14  and  O_15
REMARK   10  A    between atoms: C_17  and  C_18
REMARK                            x       y       z     vdW  Elec       q    Type
REMARK                         _______ _______ _______ _____ _____    ______ ____
ROOT
ATOM      1  C   UNL     1       5.685   4.799  16.887  0.00  0.00    +0.000 A 
ATOM      2  C   UNL     1       4.631   3.880  16.875  0.00  0.00    +0.000 A 
ATOM      3  C   UNL     1       4.243   3.251  18.061  0.00  0.00    +0.000 A 
ATOM      4  C   UNL     1       4.938   3.564  19.221  0.00  0.00    +0.000 A 
ATOM      5  N   UNL     1       5.966   4.438  19.253  0.00  0.00    +0.000 NA
ATOM      6  C   UNL     1       6.338   5.049  18.095  0.00  0.00    +0.000 A 
ATOM      7  C   UNL     1       7.473   6.023  18.215  0.00  0.00    +0.000 C 
ENDROOT
BRANCH   1   8
ATOM      8  C   UNL     1       6.036   5.534  15.654  0.00  0.00    +0.000 C 
ATOM      9  O   UNL     1       5.440   6.504  15.219  0.00  0.00    +0.000 OA
BRANCH   8  10
ATOM     10  O   UNL     1       7.021   4.844  15.026  0.00  0.00    +0.000 OA
BRANCH  10  12
ATOM     11  C   UNL     1       6.068   3.667  13.188  0.00  0.00    +0.000 C 
ATOM     12  C   UNL     1       6.945   4.836  13.596  0.00  0.00    +0.000 C 
ENDBRANCH  10  12
ENDBRANCH   8  10
ENDBRANCH   1   8
BRANCH   3  13
ATOM     13  C   UNL     1       3.175   2.236  18.086  0.00  0.00    +0.000 C 
ATOM     14  O   UNL     1       3.395   1.052  18.282  0.00  0.00    +0.000 OA
BRANCH  13  15
ATOM     15  O   UNL     1       1.992   2.802  17.751  0.00  0.00    +0.000 OA
BRANCH  15  16
ATOM     16  C   UNL     1       0.895   2.545  18.638  0.00  0.00    +0.000 C 
ATOM     17  C   UNL     1       1.004   3.517  19.796  0.00  0.00    +0.000 C 
ENDBRANCH  15  16
ENDBRANCH  13  15
ENDBRANCH   3  13
BRANCH   4  18
ATOM     18  O   UNL     1       4.655   3.019  20.440  0.00  0.00    +0.000 OA
ATOM     19  H   UNL     1       4.385   3.735  21.049  0.00  0.00    +0.000 HD
ENDBRANCH   4  18
TORSDOF 7
ENDMDL
MODEL 7
REMARK VINA RESULT:      -6.4      2.147      3.228
REMARK  Name = 
REMARK  10 active torsions:
REMARK  status: ('A' for Active; 'I' for Inactive)
REMARK    1  A    between atoms: C_1  and  C_2
REMARK    2  A    between atoms: C_2  and  O_3
REMARK    3  A    between atoms: O_3  and  C_4
REMARK    4  A    between atoms: C_4  and  C_6
REMARK    5  A    between atoms: C_8  and  C_9
REMARK    6  A    between atoms: C_9  and  O_11
REMARK    7  A    between atoms: O_11  and  C_12
REMARK    8  A    between atoms: C_12  and  C_13
REMARK    9  A    between atoms: C_14  and  O_15
REMARK   10  A    between atoms: C_17  and  C_18
REMARK                            x       y       z     vdW  Elec       q    Type
REMARK                         _______ _______ _______ _____ _____    ______ ____
ROOT
ATOM      1  C   UNL     1       3.766   5.067  18.980  0.00  0.00    +0.000 A 
ATOM      2  C   UNL     1       5.078   5.499  19.201  0.00  0.00    +0.000 A 
ATOM      3  C   UNL     1       6.087   5.149  18.301  0.00  0.00    +0.000 A 
ATOM      4  C   UNL     1       5.741   4.366  17.208  0.00  0.00    +0.000 A 
ATOM      5  N   UNL     1       4.485   3.927  16.982  0.00  0.00    +0.000 NA
ATOM      6  C   UNL     1       3.506   4.273  17.862  0.00  0.00    +0.000 A 
ATOM      7  C   UNL     1       2.132   3.768  17.531  0.00  0.00    +0.000 C 
ENDROOT
BRANCH   1   8
ATOM      8  C   UNL     1       2.681   5.513  19.879  0.00  0.00    +0.000 C 
ATOM      9  O   UNL     1       2.104   6.584  19.809  0.00  0.00    +0.000 OA
BRANCH   8  10
ATOM     10  O   UNL     1       2.566   4.599  20.874  0.00  0.00    +0.000 OA
BRANCH  10  12
ATOM     11  C   UNL     1       1.568   2.574  21.631  0.00  0.00    +0.000 C 
ATOM     12  C   UNL     1       1.324   3.886  20.910  0.00  0.00    +0.000 C 
ENDBRANCH  10  12
ENDBRANCH   8  10
ENDBRANCH   1   8
BRANCH   3  13
ATOM     13  C   UNL     1       7.492   5.536  18.523  0.00  0.00    +0.000 C 
ATOM     14  O   UNL     1       8.096   5.262  19.547  0.00  0.00    +0.000 OA
BRANCH  13  15
ATOM     15  O   UNL     1       7.926   6.307  17.500  0.00  0.00    +0.000 OA
BRANCH  15  16
ATOM     16  C   UNL     1       7.302   7.591  17.367  0.00  0.00    +0.000 C 
ATOM     17  C   UNL     1       8.218   8.616  18.006  0.00  0.00    +0.000 C 
ENDBRANCH  15  16
ENDBRANCH  13  15
ENDBRANCH   3  13
BRANCH   4  18
ATOM     18  O   UNL     1       6.634   3.959  16.259  0.00  0.00    +0.000 OA
ATOM     19  H   UNL     1       7.536   4.009  16.635  0.00  0.00    +0.000 HD
ENDBRANCH   4  18
TORSDOF 7
ENDMDL
MODEL 8
REMARK VINA RESULT:      -6.4      0.846      5.749
REMARK  Name = 
REMARK  10 active torsions:
REMARK  status: ('A' for Active; 'I' for Inactive)
REMARK    1  A    between atoms: C_1  and  C_2
REMARK    2  A    between atoms: C_2  and  O_3
REMARK    3  A    between atoms: O_3  and  C_4
REMARK    4  A    between atoms: C_4  and  C_6
REMARK    5  A    between atoms: C_8  and  C_9
REMARK    6  A    between atoms: C_9  and  O_11
REMARK    7  A    between atoms: O_11  and  C_12
REMARK    8  A    between atoms: C_12  and  C_13
REMARK    9  A    between atoms: C_14  and  O_15
REMARK   10  A    between atoms: C_17  and  C_18
REMARK                            x       y       z     vdW  Elec       q    Type
REMARK                         _______ _______ _______ _____ _____    ______ ____
ROOT
ATOM      1  C   UNL     1       5.591   4.925  17.079  0.00  0.00    +0.000 A 
ATOM      2  C   UNL     1       4.424   4.175  17.262  0.00  0.00    +0.000 A 
ATOM      3  C   UNL     1       3.251   4.805  17.685  0.00  0.00    +0.000 A 
ATOM      4  C   UNL     1       3.295   6.173  17.918  0.00  0.00    +0.000 A 
ATOM      5  N   UNL     1       4.413   6.913  17.760  0.00  0.00    +0.000 NA
ATOM      6  C   UNL     1       5.552   6.294  17.346  0.00  0.00    +0.000 A 
ATOM      7  C   UNL     1       6.745   7.187  17.171  0.00  0.00    +0.000 C 
ENDROOT
BRANCH   1   8
ATOM      8  C   UNL     1       6.807   4.278  16.543  0.00  0.00    +0.000 C 
ATOM      9  O   UNL     1       7.927   4.392  17.008  0.00  0.00    +0.000 OA
BRANCH   8  10
ATOM     10  O   UNL     1       6.477   3.684  15.369  0.00  0.00    +0.000 OA
BRANCH  10  12
ATOM     11  C   UNL     1       6.081   3.720  13.021  0.00  0.00    +0.000 C 
ATOM     12  C   UNL     1       6.592   4.515  14.209  0.00  0.00    +0.000 C 
ENDBRANCH  10  12
ENDBRANCH   8  10
ENDBRANCH   1   8
BRANCH   3  13
ATOM     13  C   UNL     1       2.015   4.047  17.944  0.00  0.00    +0.000 C 
ATOM     14  O   UNL     1       1.021   4.149  17.242  0.00  0.00    +0.000 OA
BRANCH  13  15
ATOM     15  O   UNL     1       2.131   3.351  19.099  0.00  0.00    +0.000 OA
BRANCH  15  16
ATOM     16  C   UNL     1       1.134   3.611  20.095  0.00  0.00    +0.000 C 
ATOM     17  C   UNL     1       1.642   3.052  21.409  0.00  0.00    +0.000 C 
ENDBRANCH  15  16
ENDBRANCH  13  15
ENDBRANCH   3  13
BRANCH   4  18
ATOM     18  O   UNL     1       2.218   6.903  18.332  0.00  0.00    +0.000 OA
ATOM     19  H   UNL     1       1.604   6.310  18.811  0.00  0.00    +0.000 HD
ENDBRANCH   4  18
TORSDOF 7
ENDMDL
MODEL 9
REMARK VINA RESULT:      -6.4      1.795      5.788
REMARK  Name = 
REMARK  10 active torsions:
REMARK  status: ('A' for Active; 'I' for Inactive)
REMARK    1  A    between atoms: C_1  and  C_2
REMARK    2  A    between atoms: C_2  and  O_3
REMARK    3  A    between atoms: O_3  and  C_4
REMARK    4  A    between atoms: C_4  and  C_6
REMARK    5  A    between atoms: C_8  and  C_9
REMARK    6  A    between atoms: C_9  and  O_11
REMARK    7  A    between atoms: O_11  and  C_12
REMARK    8  A    between atoms: C_12  and  C_13
REMARK    9  A    between atoms: C_14  and  O_15
REMARK   10  A    between atoms: C_17  and  C_18
REMARK                            x       y       z     vdW  Elec       q    Type
REMARK                         _______ _______ _______ _____ _____    ______ ____
ROOT
ATOM      1  C   UNL     1       5.431   5.261  17.264  0.00  0.00    +0.000 A 
ATOM      2  C   UNL     1       4.143   4.729  17.147  0.00  0.00    +0.000 A 
ATOM      3  C   UNL     1       3.689   3.793  18.080  0.00  0.00    +0.000 A 
ATOM      4  C   UNL     1       4.555   3.417  19.098  0.00  0.00    +0.000 A 
ATOM      5  N   UNL     1       5.806   3.907  19.222  0.00  0.00    +0.000 NA
ATOM      6  C   UNL     1       6.241   4.821  18.311  0.00  0.00    +0.000 A 
ATOM      7  C   UNL     1       7.634   5.337  18.530  0.00  0.00    +0.000 C 
ENDROOT
BRANCH   1   8
ATOM      8  C   UNL     1       5.879   6.320  16.335  0.00  0.00    +0.000 C 
ATOM      9  O   UNL     1       6.158   7.463  16.652  0.00  0.00    +0.000 OA
BRANCH   8  10
ATOM     10  O   UNL     1       5.763   5.839  15.072  0.00  0.00    +0.000 OA
BRANCH  10  12
ATOM     11  C   UNL     1       6.165   3.846  13.832  0.00  0.00    +0.000 C 
ATOM     12  C   UNL     1       6.804   4.946  14.659  0.00  0.00    +0.000 C 
ENDBRANCH  10  12
ENDBRANCH   8  10
ENDBRANCH   1   8
BRANCH   3  13
ATOM     13  C   UNL     1       2.361   3.166  17.964  0.00  0.00    +0.000 C 
ATOM     14  O   UNL     1       2.187   2.085  17.424  0.00  0.00    +0.000 OA
BRANCH  13  15
ATOM     15  O   UNL     1       1.409   4.009  18.428  0.00  0.00    +0.000 OA
BRANCH  15  16
ATOM     16  C   UNL     1       0.914   3.739  19.746  0.00  0.00    +0.000 C 
ATOM     17  C   UNL     1       1.397   4.852  20.655  0.00  0.00    +0.000 C 
ENDBRANCH  15  16
ENDBRANCH  13  15
ENDBRANCH   3  13
BRANCH   4  18
ATOM     18  O   UNL     1       4.231   2.513  20.068  0.00  0.00    +0.000 OA
ATOM     19  H   UNL     1       3.322   2.701  20.381  0.00  0.00    +0.000 HD
ENDBRANCH   4  18
TORSDOF 7
ENDMDL
