MODEL 1
REMARK VINA RESULT:      -7.7      0.000      0.000
REMARK  Name = 
REMARK  10 active torsions:
REMARK  status: ('A' for Active; 'I' for Inactive)
REMARK    1  A    between atoms: C_1  and  O_2
REMARK    2  A    between atoms: O_2  and  C_3
REMARK    3  A    between atoms: C_5  and  C_6
REMARK    4  A    between atoms: C_6  and  N_7
REMARK    5  A    between atoms: C_8  and  C_10
REMARK    6  A    between atoms: C_13  and  N_14
REMARK    7  A    between atoms: C_20  and  O_21
REMARK    8  A    between atoms: O_21  and  C_22
REMARK    9  A    between atoms: C_22  and  C_24
REMARK   10  A    between atoms: C_27  and  N_28
REMARK                            x       y       z     vdW  Elec       q    Type
REMARK                         _______ _______ _______ _____ _____    ______ ____
ROOT
ATOM      1  C   UNL     1       5.750   5.000  18.839  0.00  0.00    +0.000 A 
ATOM      2  C   UNL     1       4.712   5.476  19.657  0.00  0.00    +0.000 A 
ATOM      3  C   UNL     1       3.446   5.786  19.135  0.00  0.00    +0.000 A 
ATOM      4  C   UNL     1       3.230   5.646  17.762  0.00  0.00    +0.000 A 
ATOM      5  C   UNL     1       4.238   5.143  16.941  0.00  0.00    +0.000 A 
ATOM      6  C   UNL     1       5.478   4.776  17.481  0.00  0.00    +0.000 A 
ENDROOT
BRANCH   1   8
ATOM      7  C   UNL     1       7.878   5.880  19.387  0.00  0.00    +0.000 C 
ATOM      8  O   UNL     1       7.014   4.741  19.307  0.00  0.00    +0.000 OA
ENDBRANCH   1   8
BRANCH   3   9
ATOM      9  C   UNL     1       2.350   6.259  20.053  0.00  0.00    +0.000 C 
BRANCH   9  10
ATOM     10  N   UNL     1       1.819   7.542  19.668  0.00  0.00    +0.000 N 
ATOM     11  C   UNL     1       1.290   8.438  20.570  0.00  0.00    +0.000 C 
ATOM     12  O   UNL     1       1.312   8.253  21.784  0.00  0.00    +0.000 OA
ATOM     13  H   UNL     1       1.784   7.785  18.685  0.00  0.00    +0.000 HD
BRANCH  11  14
ATOM     14  C   UNL     1       0.689   9.607  19.955  0.00  0.00    +0.000 A 
ATOM     15  C   UNL     1       1.016  10.304  18.802  0.00  0.00    +0.000 A 
ATOM     16  C   UNL     1       0.110  11.390  18.698  0.00  0.00    +0.000 A 
ATOM     17  C   UNL     1      -0.708  11.287  19.796  0.00  0.00    +0.000 A 
ATOM     18  O   UNL     1      -0.382  10.215  20.568  0.00  0.00    +0.000 OA
BRANCH  17  19
ATOM     19  N   UNL     1      -1.798  12.091  20.253  0.00  0.00    +0.000 N 
ATOM     20  O   UNL     1      -1.848  12.309  21.471  0.00  0.00    +0.000 OA
ATOM     21  O   UNL     1      -2.601  12.504  19.407  0.00  0.00    +0.000 OA
ENDBRANCH  17  19
ENDBRANCH  11  14
ENDBRANCH   9  10
ENDBRANCH   3   9
BRANCH   6  22
ATOM     22  O   UNL     1       6.493   4.306  16.615  0.00  0.00    +0.000 OA
BRANCH  22  23
ATOM     23  C   UNL     1       6.994   5.209  15.662  0.00  0.00    +0.000 C 
ATOM     24  O   UNL     1       7.538   6.273  15.927  0.00  0.00    +0.000 OA
BRANCH  23  25
ATOM     25  C   UNL     1       6.857   4.640  14.323  0.00  0.00    +0.000 A 
ATOM     26  C   UNL     1       7.556   4.921  13.159  0.00  0.00    +0.000 A 
ATOM     27  C   UNL     1       7.057   4.202  12.029  0.00  0.00    +0.000 A 
ATOM     28  C   UNL     1       5.995   3.390  12.371  0.00  0.00    +0.000 A 
ATOM     29  S   UNL     1       5.619   3.478  14.025  0.00  0.00    +0.000 S 
BRANCH  28  30
ATOM     30  N   UNL     1       5.239   2.548  11.478  0.00  0.00    +0.000 N 
ATOM     31  O   UNL     1       5.761   1.464  11.175  0.00  0.00    +0.000 OA
ATOM     32  O   UNL     1       4.141   2.951  11.073  0.00  0.00    +0.000 OA
ENDBRANCH  28  30
ENDBRANCH  23  25
ENDBRANCH  22  23
ENDBRANCH   6  22
TORSDOF 9
ENDMDL
MODEL 2
REMARK VINA RESULT:      -7.6      2.823      3.697
REMARK  Name = 
REMARK  10 active torsions:
REMARK  status: ('A' for Active; 'I' for Inactive)
REMARK    1  A    between atoms: C_1  and  O_2
REMARK    2  A    between atoms: O_2  and  C_3
REMARK    3  A    between atoms: C_5  and  C_6
REMARK    4  A    between atoms: C_6  and  N_7
REMARK    5  A    between atoms: C_8  and  C_10
REMARK    6  A    between atoms: C_13  and  N_14
REMARK    7  A    between atoms: C_20  and  O_21
REMARK    8  A    between atoms: O_21  and  C_22
REMARK    9  A    between atoms: C_22  and  C_24
REMARK   10  A    between atoms: C_27  and  N_28
REMARK                            x       y       z     vdW  Elec       q    Type
REMARK                         _______ _______ _______ _____ _____    ______ ____
ROOT
ATOM      1  C   UNL     1       2.545   4.541  19.914  0.00  0.00    +0.000 A 
ATOM      2  C   UNL     1       1.832   5.497  20.656  0.00  0.00    +0.000 A 
ATOM      3  C   UNL     1       1.773   6.843  20.262  0.00  0.00    +0.000 A 
ATOM      4  C   UNL     1       2.469   7.242  19.119  0.00  0.00    +0.000 A 
ATOM      5  C   UNL     1       3.155   6.301  18.351  0.00  0.00    +0.000 A 
ATOM      6  C   UNL     1       3.156   4.949  18.717  0.00  0.00    +0.000 A 
ENDROOT
BRANCH   1   8
ATOM      7  C   UNL     1       1.724   2.794  21.283  0.00  0.00    +0.000 C 
ATOM      8  O   UNL     1       2.669   3.231  20.301  0.00  0.00    +0.000 OA
ENDBRANCH   1   8
BRANCH   3   9
ATOM      9  C   UNL     1       0.966   7.827  21.067  0.00  0.00    +0.000 C 
BRANCH   9  10
ATOM     10  N   UNL     1       1.298   9.196  20.764  0.00  0.00    +0.000 N 
ATOM     11  C   UNL     1       0.483  10.257  21.091  0.00  0.00    +0.000 C 
ATOM     12  O   UNL     1      -0.547  10.129  21.748  0.00  0.00    +0.000 OA
ATOM     13  H   UNL     1       2.145   9.393  20.244  0.00  0.00    +0.000 HD
BRANCH  11  14
ATOM     14  C   UNL     1       0.942  11.533  20.574  0.00  0.00    +0.000 A 
ATOM     15  C   UNL     1       0.697  12.172  19.368  0.00  0.00    +0.000 A 
ATOM     16  C   UNL     1       1.433  13.385  19.380  0.00  0.00    +0.000 A 
ATOM     17  C   UNL     1       2.082  13.403  20.590  0.00  0.00    +0.000 A 
ATOM     18  O   UNL     1       1.797  12.299  21.331  0.00  0.00    +0.000 OA
BRANCH  17  19
ATOM     19  N   UNL     1       2.979  14.349  21.177  0.00  0.00    +0.000 N 
ATOM     20  O   UNL     1       3.906  14.746  20.458  0.00  0.00    +0.000 OA
ATOM     21  O   UNL     1       2.766  14.695  22.346  0.00  0.00    +0.000 OA
ENDBRANCH  17  19
ENDBRANCH  11  14
ENDBRANCH   9  10
ENDBRANCH   3   9
BRANCH   6  22
ATOM     22  O   UNL     1       3.892   4.026  17.939  0.00  0.00    +0.000 OA
BRANCH  22  23
ATOM     23  C   UNL     1       5.274   4.251  17.813  0.00  0.00    +0.000 C 
ATOM     24  O   UNL     1       6.058   4.315  18.751  0.00  0.00    +0.000 OA
BRANCH  23  25
ATOM     25  C   UNL     1       5.640   4.294  16.400  0.00  0.00    +0.000 A 
ATOM     26  C   UNL     1       5.122   3.591  15.322  0.00  0.00    +0.000 A 
ATOM     27  C   UNL     1       5.819   3.859  14.103  0.00  0.00    +0.000 A 
ATOM     28  C   UNL     1       6.845   4.763  14.291  0.00  0.00    +0.000 A 
ATOM     29  S   UNL     1       6.953   5.295  15.901  0.00  0.00    +0.000 S 
BRANCH  28  30
ATOM     30  N   UNL     1       7.763   5.238  13.286  0.00  0.00    +0.000 N 
ATOM     31  O   UNL     1       7.521   4.896  12.118  0.00  0.00    +0.000 OA
ATOM     32  O   UNL     1       8.718   5.939  13.642  0.00  0.00    +0.000 OA
ENDBRANCH  28  30
ENDBRANCH  23  25
ENDBRANCH  22  23
ENDBRANCH   6  22
TORSDOF 9
ENDMDL
MODEL 3
REMARK VINA RESULT:      -7.6      2.554      3.855
REMARK  Name = 
REMARK  10 active torsions:
REMARK  status: ('A' for Active; 'I' for Inactive)
REMARK    1  A    between atoms: C_1  and  O_2
REMARK    2  A    between atoms: O_2  and  C_3
REMARK    3  A    between atoms: C_5  and  C_6
REMARK    4  A    between atoms: C_6  and  N_7
REMARK    5  A    between atoms: C_8  and  C_10
REMARK    6  A    between atoms: C_13  and  N_14
REMARK    7  A    between atoms: C_20  and  O_21
REMARK    8  A    between atoms: O_21  and  C_22
REMARK    9  A    between atoms: C_22  and  C_24
REMARK   10  A    between atoms: C_27  and  N_28
REMARK                            x       y       z     vdW  Elec       q    Type
REMARK                         _______ _______ _______ _____ _____    ______ ____
ROOT
ATOM      1  C   UNL     1       1.875   4.894  20.117  0.00  0.00    +0.000 A 
ATOM      2  C   UNL     1       1.275   5.984  20.769  0.00  0.00    +0.000 A 
ATOM      3  C   UNL     1       1.570   7.309  20.413  0.00  0.00    +0.000 A 
ATOM      4  C   UNL     1       2.509   7.544  19.407  0.00  0.00    +0.000 A 
ATOM      5  C   UNL     1       3.090   6.475  18.726  0.00  0.00    +0.000 A 
ATOM      6  C   UNL     1       2.742   5.155  19.045  0.00  0.00    +0.000 A 
ENDROOT
BRANCH   1   8
ATOM      7  C   UNL     1       2.100   3.235  21.790  0.00  0.00    +0.000 C 
ATOM      8  O   UNL     1       1.652   3.589  20.477  0.00  0.00    +0.000 OA
ENDBRANCH   1   8
BRANCH   3   9
ATOM      9  C   UNL     1       0.876   8.448  21.114  0.00  0.00    +0.000 C 
BRANCH   9  10
ATOM     10  N   UNL     1       1.195   9.730  20.538  0.00  0.00    +0.000 N 
ATOM     11  C   UNL     1       0.354  10.394  19.672  0.00  0.00    +0.000 C 
ATOM     12  O   UNL     1      -0.771   9.989  19.394  0.00  0.00    +0.000 OA
ATOM     13  H   UNL     1       2.096  10.147  20.736  0.00  0.00    +0.000 HD
BRANCH  11  14
ATOM     14  C   UNL     1       0.928  11.601  19.107  0.00  0.00    +0.000 A 
ATOM     15  C   UNL     1       2.071  11.802  18.347  0.00  0.00    +0.000 A 
ATOM     16  C   UNL     1       2.168  13.195  18.097  0.00  0.00    +0.000 A 
ATOM     17  C   UNL     1       1.080  13.753  18.724  0.00  0.00    +0.000 A 
ATOM     18  O   UNL     1       0.313  12.810  19.335  0.00  0.00    +0.000 OA
BRANCH  17  19
ATOM     19  N   UNL     1       0.639  15.107  18.843  0.00  0.00    +0.000 N 
ATOM     20  O   UNL     1       1.507  15.981  18.713  0.00  0.00    +0.000 OA
ATOM     21  O   UNL     1      -0.562  15.303  19.066  0.00  0.00    +0.000 OA
ENDBRANCH  17  19
ENDBRANCH  11  14
ENDBRANCH   9  10
ENDBRANCH   3   9
BRANCH   6  22
ATOM     22  O   UNL     1       3.378   4.092  18.363  0.00  0.00    +0.000 OA
BRANCH  22  23
ATOM     23  C   UNL     1       4.664   3.729  18.796  0.00  0.00    +0.000 C 
ATOM     24  O   UNL     1       4.908   3.139  19.840  0.00  0.00    +0.000 OA
BRANCH  23  25
ATOM     25  C   UNL     1       5.646   4.072  17.770  0.00  0.00    +0.000 A 
ATOM     26  C   UNL     1       6.925   4.594  17.898  0.00  0.00    +0.000 A 
ATOM     27  C   UNL     1       7.536   4.870  16.635  0.00  0.00    +0.000 A 
ATOM     28  C   UNL     1       6.703   4.545  15.584  0.00  0.00    +0.000 A 
ATOM     29  S   UNL     1       5.222   3.900  16.107  0.00  0.00    +0.000 S 
BRANCH  28  30
ATOM     30  N   UNL     1       6.988   4.716  14.181  0.00  0.00    +0.000 N 
ATOM     31  O   UNL     1       7.786   5.620  13.890  0.00  0.00    +0.000 OA
ATOM     32  O   UNL     1       6.427   3.969  13.370  0.00  0.00    +0.000 OA
ENDBRANCH  28  30
ENDBRANCH  23  25
ENDBRANCH  22  23
ENDBRANCH   6  22
TORSDOF 9
ENDMDL
MODEL 4
REMARK VINA RESULT:      -7.5      3.579      5.935
REMARK  Name = 
REMARK  10 active torsions:
REMARK  status: ('A' for Active; 'I' for Inactive)
REMARK    1  A    between atoms: C_1  and  O_2
REMARK    2  A    between atoms: O_2  and  C_3
REMARK    3  A    between atoms: C_5  and  C_6
REMARK    4  A    between atoms: C_6  and  N_7
REMARK    5  A    between atoms: C_8  and  C_10
REMARK    6  A    between atoms: C_13  and  N_14
REMARK    7  A    between atoms: C_20  and  O_21
REMARK    8  A    between atoms: O_21  and  C_22
REMARK    9  A    between atoms: C_22  and  C_24
REMARK   10  A    between atoms: C_27  and  N_28
REMARK                            x       y       z     vdW  Elec       q    Type
REMARK                         _______ _______ _______ _____ _____    ______ ____
ROOT
ATOM      1  C   UNL     1       1.347   8.507  20.321  0.00  0.00    +0.000 A 
ATOM      2  C   UNL     1       0.513   9.566  19.925  0.00  0.00    +0.000 A 
ATOM      3  C   UNL     1       0.427   9.976  18.586  0.00  0.00    +0.000 A 
ATOM      4  C   UNL     1       1.218   9.333  17.632  0.00  0.00    +0.000 A 
ATOM      5  C   UNL     1       2.028   8.259  18.000  0.00  0.00    +0.000 A 
ATOM      6  C   UNL     1       2.059   7.815  19.329  0.00  0.00    +0.000 A 
ENDROOT
BRANCH   1   8
ATOM      7  C   UNL     1       1.178   9.118  22.601  0.00  0.00    +0.000 C 
ATOM      8  O   UNL     1       1.497   8.118  21.627  0.00  0.00    +0.000 OA
ENDBRANCH   1   8
BRANCH   3   9
ATOM      9  C   UNL     1      -0.509  11.092  18.200  0.00  0.00    +0.000 C 
BRANCH   9  10
ATOM     10  N   UNL     1       0.081  12.395  18.375  0.00  0.00    +0.000 N 
ATOM     11  C   UNL     1      -0.517  13.399  19.104  0.00  0.00    +0.000 C 
ATOM     12  O   UNL     1      -1.555  13.233  19.739  0.00  0.00    +0.000 OA
ATOM     13  H   UNL     1       0.952  12.608  17.903  0.00  0.00    +0.000 HD
BRANCH  11  14
ATOM     14  C   UNL     1       0.180  14.670  19.038  0.00  0.00    +0.000 A 
ATOM     15  C   UNL     1      -0.185  15.937  19.466  0.00  0.00    +0.000 A 
ATOM     16  C   UNL     1       0.868  16.818  19.112  0.00  0.00    +0.000 A 
ATOM     17  C   UNL     1       1.806  16.032  18.488  0.00  0.00    +0.000 A 
ATOM     18  O   UNL     1       1.415  14.730  18.436  0.00  0.00    +0.000 OA
BRANCH  17  19
ATOM     19  N   UNL     1       3.071  16.341  17.899  0.00  0.00    +0.000 N 
ATOM     20  O   UNL     1       3.148  17.421  17.298  0.00  0.00    +0.000 OA
ATOM     21  O   UNL     1       3.983  15.515  18.032  0.00  0.00    +0.000 OA
ENDBRANCH  17  19
ENDBRANCH  11  14
ENDBRANCH   9  10
ENDBRANCH   3   9
BRANCH   6  22
ATOM     22  O   UNL     1       2.919   6.748  19.677  0.00  0.00    +0.000 OA
BRANCH  22  23
ATOM     23  C   UNL     1       2.618   5.481  19.150  0.00  0.00    +0.000 C 
ATOM     24  O   UNL     1       1.587   4.860  19.373  0.00  0.00    +0.000 OA
BRANCH  23  25
ATOM     25  C   UNL     1       3.670   5.067  18.225  0.00  0.00    +0.000 A 
ATOM     26  C   UNL     1       3.684   4.043  17.290  0.00  0.00    +0.000 A 
ATOM     27  C   UNL     1       4.948   3.911  16.636  0.00  0.00    +0.000 A 
ATOM     28  C   UNL     1       5.857   4.844  17.091  0.00  0.00    +0.000 A 
ATOM     29  S   UNL     1       5.194   5.873  18.269  0.00  0.00    +0.000 S 
BRANCH  28  30
ATOM     30  N   UNL     1       7.229   4.982  16.668  0.00  0.00    +0.000 N 
ATOM     31  O   UNL     1       7.466   5.903  15.871  0.00  0.00    +0.000 OA
ATOM     32  O   UNL     1       8.066   4.186  17.111  0.00  0.00    +0.000 OA
ENDBRANCH  28  30
ENDBRANCH  23  25
ENDBRANCH  22  23
ENDBRANCH   6  22
TORSDOF 9
ENDMDL
MODEL 5
REMARK VINA RESULT:      -7.5      1.984      2.864
REMARK  Name = 
REMARK  10 active torsions:
REMARK  status: ('A' for Active; 'I' for Inactive)
REMARK    1  A    between atoms: C_1  and  O_2
REMARK    2  A    between atoms: O_2  and  C_3
REMARK    3  A    between atoms: C_5  and  C_6
REMARK    4  A    between atoms: C_6  and  N_7
REMARK    5  A    between atoms: C_8  and  C_10
REMARK    6  A    between atoms: C_13  and  N_14
REMARK    7  A    between atoms: C_20  and  O_21
REMARK    8  A    between atoms: O_21  and  C_22
REMARK    9  A    between atoms: C_22  and  C_24
REMARK   10  A    between atoms: C_27  and  N_28
REMARK                            x       y       z     vdW  Elec       q    Type
REMARK                         _______ _______ _______ _____ _____    ______ ____
ROOT
ATOM      1  C   UNL     1       2.947   5.294  18.476  0.00  0.00    +0.000 A 
ATOM      2  C   UNL     1       2.137   6.442  18.491  0.00  0.00    +0.000 A 
ATOM      3  C   UNL     1       2.600   7.677  18.011  0.00  0.00    +0.000 A 
ATOM      4  C   UNL     1       3.910   7.769  17.538  0.00  0.00    +0.000 A 
ATOM      5  C   UNL     1       4.718   6.633  17.485  0.00  0.00    +0.000 A 
ATOM      6  C   UNL     1       4.227   5.390  17.908  0.00  0.00    +0.000 A 
ENDROOT
BRANCH   1   8
ATOM      7  C   UNL     1       1.960   3.188  18.041  0.00  0.00    +0.000 C 
ATOM      8  O   UNL     1       2.547   4.087  18.989  0.00  0.00    +0.000 OA
ENDBRANCH   1   8
BRANCH   3   9
ATOM      9  C   UNL     1       1.685   8.873  18.011  0.00  0.00    +0.000 C 
BRANCH   9  10
ATOM     10  N   UNL     1       1.079   9.108  19.298  0.00  0.00    +0.000 N 
ATOM     11  C   UNL     1       0.213  10.151  19.541  0.00  0.00    +0.000 C 
ATOM     12  O   UNL     1      -0.182  10.909  18.659  0.00  0.00    +0.000 OA
ATOM     13  H   UNL     1       1.333   8.513  20.077  0.00  0.00    +0.000 HD
BRANCH  11  14
ATOM     14  C   UNL     1      -0.172  10.283  20.934  0.00  0.00    +0.000 A 
ATOM     15  C   UNL     1       0.111   9.495  22.040  0.00  0.00    +0.000 A 
ATOM     16  C   UNL     1      -0.554  10.076  23.149  0.00  0.00    +0.000 A 
ATOM     17  C   UNL     1      -1.203  11.178  22.647  0.00  0.00    +0.000 A 
ATOM     18  O   UNL     1      -0.982  11.327  21.313  0.00  0.00    +0.000 OA
BRANCH  17  19
ATOM     19  N   UNL     1      -2.045  12.153  23.266  0.00  0.00    +0.000 N 
ATOM     20  O   UNL     1      -1.556  13.281  23.423  0.00  0.00    +0.000 OA
ATOM     21  O   UNL     1      -3.185  11.803  23.595  0.00  0.00    +0.000 OA
ENDBRANCH  17  19
ENDBRANCH  11  14
ENDBRANCH   9  10
ENDBRANCH   3   9
BRANCH   6  22
ATOM     22  O   UNL     1       5.084   4.266  17.878  0.00  0.00    +0.000 OA
BRANCH  22  23
ATOM     23  C   UNL     1       6.434   4.495  17.562  0.00  0.00    +0.000 C 
ATOM     24  O   UNL     1       7.329   4.631  18.385  0.00  0.00    +0.000 OA
BRANCH  23  25
ATOM     25  C   UNL     1       6.618   4.445  16.114  0.00  0.00    +0.000 A 
ATOM     26  C   UNL     1       7.456   5.188  15.295  0.00  0.00    +0.000 A 
ATOM     27  C   UNL     1       7.274   4.893  13.908  0.00  0.00    +0.000 A 
ATOM     28  C   UNL     1       6.305   3.930  13.715  0.00  0.00    +0.000 A 
ATOM     29  S   UNL     1       5.641   3.376  15.177  0.00  0.00    +0.000 S 
BRANCH  28  30
ATOM     30  N   UNL     1       5.851   3.414  12.447  0.00  0.00    +0.000 N 
ATOM     31  O   UNL     1       6.718   2.901  11.723  0.00  0.00    +0.000 OA
ATOM     32  O   UNL     1       4.651   3.517  12.163  0.00  0.00    +0.000 OA
ENDBRANCH  28  30
ENDBRANCH  23  25
ENDBRANCH  22  23
ENDBRANCH   6  22
TORSDOF 9
ENDMDL
MODEL 6
REMARK VINA RESULT:      -7.5      4.003     10.270
REMARK  Name = 
REMARK  10 active torsions:
REMARK  status: ('A' for Active; 'I' for Inactive)
REMARK    1  A    between atoms: C_1  and  O_2
REMARK    2  A    between atoms: O_2  and  C_3
REMARK    3  A    between atoms: C_5  and  C_6
REMARK    4  A    between atoms: C_6  and  N_7
REMARK    5  A    between atoms: C_8  and  C_10
REMARK    6  A    between atoms: C_13  and  N_14
REMARK    7  A    between atoms: C_20  and  O_21
REMARK    8  A    between atoms: O_21  and  C_22
REMARK    9  A    between atoms: C_22  and  C_24
REMARK   10  A    between atoms: C_27  and  N_28
REMARK                            x       y       z     vdW  Elec       q    Type
REMARK                         _______ _______ _______ _____ _____    ______ ____
ROOT
ATOM      1  C   UNL     1       0.879   9.747  21.344  0.00  0.00    +0.000 A 
ATOM      2  C   UNL     1       1.253   8.395  21.270  0.00  0.00    +0.000 A 
ATOM      3  C   UNL     1       1.717   7.823  20.076  0.00  0.00    +0.000 A 
ATOM      4  C   UNL     1       1.775   8.615  18.927  0.00  0.00    +0.000 A 
ATOM      5  C   UNL     1       1.439   9.967  18.989  0.00  0.00    +0.000 A 
ATOM      6  C   UNL     1       1.037  10.545  20.201  0.00  0.00    +0.000 A 
ENDROOT
BRANCH   1   8
ATOM      7  C   UNL     1      -0.174   9.406  23.436  0.00  0.00    +0.000 C 
ATOM      8  O   UNL     1       0.369  10.323  22.480  0.00  0.00    +0.000 OA
ENDBRANCH   1   8
BRANCH   3   9
ATOM      9  C   UNL     1       2.143   6.379  20.050  0.00  0.00    +0.000 C 
BRANCH   9  10
ATOM     10  N   UNL     1       3.364   6.173  19.311  0.00  0.00    +0.000 N 
ATOM     11  C   UNL     1       4.087   5.003  19.366  0.00  0.00    +0.000 C 
ATOM     12  O   UNL     1       3.701   4.009  19.977  0.00  0.00    +0.000 OA
ATOM     13  H   UNL     1       3.740   6.937  18.762  0.00  0.00    +0.000 HD
BRANCH  11  14
ATOM     14  C   UNL     1       5.351   5.059  18.655  0.00  0.00    +0.000 A 
ATOM     15  C   UNL     1       6.620   5.427  19.074  0.00  0.00    +0.000 A 
ATOM     16  C   UNL     1       7.478   5.327  17.948  0.00  0.00    +0.000 A 
ATOM     17  C   UNL     1       6.674   4.908  16.916  0.00  0.00    +0.000 A 
ATOM     18  O   UNL     1       5.387   4.733  17.319  0.00  0.00    +0.000 OA
BRANCH  17  19
ATOM     19  N   UNL     1       6.951   4.641  15.539  0.00  0.00    +0.000 N 
ATOM     20  O   UNL     1       7.708   5.437  14.967  0.00  0.00    +0.000 OA
ATOM     21  O   UNL     1       6.419   3.648  15.028  0.00  0.00    +0.000 OA
ENDBRANCH  17  19
ENDBRANCH  11  14
ENDBRANCH   9  10
ENDBRANCH   3   9
BRANCH   6  22
ATOM     22  O   UNL     1       0.666  11.909  20.222  0.00  0.00    +0.000 OA
BRANCH  22  23
ATOM     23  C   UNL     1       0.307  12.497  18.997  0.00  0.00    +0.000 C 
ATOM     24  O   UNL     1      -0.725  12.258  18.385  0.00  0.00    +0.000 OA
BRANCH  23  25
ATOM     25  C   UNL     1       1.298  13.502  18.623  0.00  0.00    +0.000 A 
ATOM     26  C   UNL     1       2.579  13.346  18.111  0.00  0.00    +0.000 A 
ATOM     27  C   UNL     1       3.265  14.590  17.957  0.00  0.00    +0.000 A 
ATOM     28  C   UNL     1       2.484  15.656  18.351  0.00  0.00    +0.000 A 
ATOM     29  S   UNL     1       0.944  15.171  18.878  0.00  0.00    +0.000 S 
BRANCH  28  30
ATOM     30  N   UNL     1       2.868  17.046  18.351  0.00  0.00    +0.000 N 
ATOM     31  O   UNL     1       2.783  17.638  17.264  0.00  0.00    +0.000 OA
ATOM     32  O   UNL     1       3.255  17.551  19.412  0.00  0.00    +0.000 OA
ENDBRANCH  28  30
ENDBRANCH  23  25
ENDBRANCH  22  23
ENDBRANCH   6  22
TORSDOF 9
ENDMDL
MODEL 7
REMARK VINA RESULT:      -7.5      2.362      3.605
REMARK  Name = 
REMARK  10 active torsions:
REMARK  status: ('A' for Active; 'I' for Inactive)
REMARK    1  A    between atoms: C_1  and  O_2
REMARK    2  A    between atoms: O_2  and  C_3
REMARK    3  A    between atoms: C_5  and  C_6
REMARK    4  A    between atoms: C_6  and  N_7
REMARK    5  A    between atoms: C_8  and  C_10
REMARK    6  A    between atoms: C_13  and  N_14
REMARK    7  A    between atoms: C_20  and  O_21
REMARK    8  A    between atoms: O_21  and  C_22
REMARK    9  A    between atoms: C_22  and  C_24
REMARK   10  A    between atoms: C_27  and  N_28
REMARK                            x       y       z     vdW  Elec       q    Type
REMARK                         _______ _______ _______ _____ _____    ______ ____
ROOT
ATOM      1  C   UNL     1       2.113   4.798  20.057  0.00  0.00    +0.000 A 
ATOM      2  C   UNL     1       1.482   5.835  20.762  0.00  0.00    +0.000 A 
ATOM      3  C   UNL     1       1.622   7.179  20.381  0.00  0.00    +0.000 A 
ATOM      4  C   UNL     1       2.439   7.488  19.291  0.00  0.00    +0.000 A 
ATOM      5  C   UNL     1       3.047   6.470  18.558  0.00  0.00    +0.000 A 
ATOM      6  C   UNL     1       2.850   5.127  18.908  0.00  0.00    +0.000 A 
ENDROOT
BRANCH   1   8
ATOM      7  C   UNL     1       1.980   3.257  21.848  0.00  0.00    +0.000 C 
ATOM      8  O   UNL     1       2.042   3.482  20.436  0.00  0.00    +0.000 OA
ENDBRANCH   1   8
BRANCH   3   9
ATOM      9  C   UNL     1       0.897   8.256  21.144  0.00  0.00    +0.000 C 
BRANCH   9  10
ATOM     10  N   UNL     1       0.905   9.523  20.456  0.00  0.00    +0.000 N 
ATOM     11  C   UNL     1       0.656  10.722  21.087  0.00  0.00    +0.000 C 
ATOM     12  O   UNL     1       0.499  10.816  22.301  0.00  0.00    +0.000 OA
ATOM     13  H   UNL     1       1.050   9.537  19.453  0.00  0.00    +0.000 HD
BRANCH  11  14
ATOM     14  C   UNL     1       0.578  11.856  20.185  0.00  0.00    +0.000 A 
ATOM     15  C   UNL     1       1.221  12.115  18.984  0.00  0.00    +0.000 A 
ATOM     16  C   UNL     1       0.794  13.396  18.549  0.00  0.00    +0.000 A 
ATOM     17  C   UNL     1      -0.077  13.836  19.515  0.00  0.00    +0.000 A 
ATOM     18  O   UNL     1      -0.228  12.921  20.510  0.00  0.00    +0.000 OA
BRANCH  17  19
ATOM     19  N   UNL     1      -0.818  15.051  19.650  0.00  0.00    +0.000 N 
ATOM     20  O   UNL     1      -0.499  15.976  18.891  0.00  0.00    +0.000 OA
ATOM     21  O   UNL     1      -1.711  15.088  20.506  0.00  0.00    +0.000 OA
ENDBRANCH  17  19
ENDBRANCH  11  14
ENDBRANCH   9  10
ENDBRANCH   3   9
BRANCH   6  22
ATOM     22  O   UNL     1       3.512   4.119  18.169  0.00  0.00    +0.000 OA
BRANCH  22  23
ATOM     23  C   UNL     1       4.838   3.825  18.528  0.00  0.00    +0.000 C 
ATOM     24  O   UNL     1       5.166   3.162  19.503  0.00  0.00    +0.000 OA
BRANCH  23  25
ATOM     25  C   UNL     1       5.751   4.344  17.513  0.00  0.00    +0.000 A 
ATOM     26  C   UNL     1       6.744   5.308  17.614  0.00  0.00    +0.000 A 
ATOM     27  C   UNL     1       7.363   5.595  16.359  0.00  0.00    +0.000 A 
ATOM     28  C   UNL     1       6.826   4.835  15.340  0.00  0.00    +0.000 A 
ATOM     29  S   UNL     1       5.612   3.781  15.889  0.00  0.00    +0.000 S 
BRANCH  28  30
ATOM     30  N   UNL     1       7.196   4.884  13.947  0.00  0.00    +0.000 N 
ATOM     31  O   UNL     1       8.083   5.697  13.645  0.00  0.00    +0.000 OA
ATOM     32  O   UNL     1       6.615   4.133  13.155  0.00  0.00    +0.000 OA
ENDBRANCH  28  30
ENDBRANCH  23  25
ENDBRANCH  22  23
ENDBRANCH   6  22
TORSDOF 9
ENDMDL
MODEL 8
REMARK VINA RESULT:      -7.5      3.647     10.588
REMARK  Name = 
REMARK  10 active torsions:
REMARK  status: ('A' for Active; 'I' for Inactive)
REMARK    1  A    between atoms: C_1  and  O_2
REMARK    2  A    between atoms: O_2  and  C_3
REMARK    3  A    between atoms: C_5  and  C_6
REMARK    4  A    between atoms: C_6  and  N_7
REMARK    5  A    between atoms: C_8  and  C_10
REMARK    6  A    between atoms: C_13  and  N_14
REMARK    7  A    between atoms: C_20  and  O_21
REMARK    8  A    between atoms: O_21  and  C_22
REMARK    9  A    between atoms: C_22  and  C_24
REMARK   10  A    between atoms: C_27  and  N_28
REMARK                            x       y       z     vdW  Elec       q    Type
REMARK                         _______ _______ _______ _____ _____    ______ ____
ROOT
ATOM      1  C   UNL     1       0.858   9.917  21.517  0.00  0.00    +0.000 A 
ATOM      2  C   UNL     1       1.220   8.561  21.468  0.00  0.00    +0.000 A 
ATOM      3  C   UNL     1       1.636   7.951  20.274  0.00  0.00    +0.000 A 
ATOM      4  C   UNL     1       1.658   8.709  19.102  0.00  0.00    +0.000 A 
ATOM      5  C   UNL     1       1.333  10.065  19.137  0.00  0.00    +0.000 A 
ATOM      6  C   UNL     1       0.980  10.681  20.345  0.00  0.00    +0.000 A 
ENDROOT
BRANCH   1   8
ATOM      7  C   UNL     1      -0.649   9.828  23.339  0.00  0.00    +0.000 C 
ATOM      8  O   UNL     1       0.394  10.529  22.653  0.00  0.00    +0.000 OA
ENDBRANCH   1   8
BRANCH   3   9
ATOM      9  C   UNL     1       2.051   6.503  20.275  0.00  0.00    +0.000 C 
BRANCH   9  10
ATOM     10  N   UNL     1       3.272   6.276  19.544  0.00  0.00    +0.000 N 
ATOM     11  C   UNL     1       3.862   5.036  19.434  0.00  0.00    +0.000 C 
ATOM     12  O   UNL     1       3.347   4.012  19.873  0.00  0.00    +0.000 OA
ATOM     13  H   UNL     1       3.751   7.066  19.129  0.00  0.00    +0.000 HD
BRANCH  11  14
ATOM     14  C   UNL     1       5.152   5.056  18.771  0.00  0.00    +0.000 A 
ATOM     15  C   UNL     1       6.416   5.387  19.238  0.00  0.00    +0.000 A 
ATOM     16  C   UNL     1       7.312   5.263  18.145  0.00  0.00    +0.000 A 
ATOM     17  C   UNL     1       6.536   4.869  17.082  0.00  0.00    +0.000 A 
ATOM     18  O   UNL     1       5.230   4.731  17.437  0.00  0.00    +0.000 OA
BRANCH  17  19
ATOM     19  N   UNL     1       6.857   4.596  15.717  0.00  0.00    +0.000 N 
ATOM     20  O   UNL     1       6.276   3.633  15.197  0.00  0.00    +0.000 OA
ATOM     21  O   UNL     1       7.681   5.334  15.162  0.00  0.00    +0.000 OA
ENDBRANCH  17  19
ENDBRANCH  11  14
ENDBRANCH   9  10
ENDBRANCH   3   9
BRANCH   6  22
ATOM     22  O   UNL     1       0.619  12.048  20.341  0.00  0.00    +0.000 OA
BRANCH  22  23
ATOM     23  C   UNL     1       0.084  12.568  19.150  0.00  0.00    +0.000 C 
ATOM     24  O   UNL     1       0.743  13.086  18.257  0.00  0.00    +0.000 OA
BRANCH  23  25
ATOM     25  C   UNL     1      -1.352  12.305  19.097  0.00  0.00    +0.000 A 
ATOM     26  C   UNL     1      -2.106  11.660  18.127  0.00  0.00    +0.000 A 
ATOM     27  C   UNL     1      -3.506  11.686  18.412  0.00  0.00    +0.000 A 
ATOM     28  C   UNL     1      -3.775  12.345  19.593  0.00  0.00    +0.000 A 
ATOM     29  S   UNL     1      -2.364  12.906  20.357  0.00  0.00    +0.000 S 
BRANCH  28  30
ATOM     30  N   UNL     1      -5.076  12.578  20.169  0.00  0.00    +0.000 N 
ATOM     31  O   UNL     1      -5.928  13.072  19.414  0.00  0.00    +0.000 OA
ATOM     32  O   UNL     1      -5.258  12.281  21.356  0.00  0.00    +0.000 OA
ENDBRANCH  28  30
ENDBRANCH  23  25
ENDBRANCH  22  23
ENDBRANCH   6  22
TORSDOF 9
ENDMDL
MODEL 9
REMARK VINA RESULT:      -7.4      3.368      6.208
REMARK  Name = 
REMARK  10 active torsions:
REMARK  status: ('A' for Active; 'I' for Inactive)
REMARK    1  A    between atoms: C_1  and  O_2
REMARK    2  A    between atoms: O_2  and  C_3
REMARK    3  A    between atoms: C_5  and  C_6
REMARK    4  A    between atoms: C_6  and  N_7
REMARK    5  A    between atoms: C_8  and  C_10
REMARK    6  A    between atoms: C_13  and  N_14
REMARK    7  A    between atoms: C_20  and  O_21
REMARK    8  A    between atoms: O_21  and  C_22
REMARK    9  A    between atoms: C_22  and  C_24
REMARK   10  A    between atoms: C_27  and  N_28
REMARK                            x       y       z     vdW  Elec       q    Type
REMARK                         _______ _______ _______ _____ _____    ______ ____
ROOT
ATOM      1  C   UNL     1       0.757   9.011  20.355  0.00  0.00    +0.000 A 
ATOM      2  C   UNL     1       0.038  10.165  20.003  0.00  0.00    +0.000 A 
ATOM      3  C   UNL     1       0.193  10.776  18.749  0.00  0.00    +0.000 A 
ATOM      4  C   UNL     1       1.110  10.237  17.844  0.00  0.00    +0.000 A 
ATOM      5  C   UNL     1       1.809   9.074  18.163  0.00  0.00    +0.000 A 
ATOM      6  C   UNL     1       1.601   8.434  19.393  0.00  0.00    +0.000 A 
ENDROOT
BRANCH   1   8
ATOM      7  C   UNL     1       0.754   9.322  22.701  0.00  0.00    +0.000 C 
ATOM      8  O   UNL     1       0.672   8.422  21.591  0.00  0.00    +0.000 OA
ENDBRANCH   1   8
BRANCH   3   9
ATOM      9  C   UNL     1      -0.626  11.992  18.399  0.00  0.00    +0.000 C 
BRANCH   9  10
ATOM     10  N   UNL     1      -2.044  11.748  18.483  0.00  0.00    +0.000 N 
ATOM     11  C   UNL     1      -2.818  11.427  17.390  0.00  0.00    +0.000 C 
ATOM     12  O   UNL     1      -2.345  11.235  16.273  0.00  0.00    +0.000 OA
ATOM     13  H   UNL     1      -2.510  11.863  19.375  0.00  0.00    +0.000 HD
BRANCH  11  14
ATOM     14  C   UNL     1      -4.239  11.358  17.674  0.00  0.00    +0.000 A 
ATOM     15  C   UNL     1      -5.316  12.039  17.127  0.00  0.00    +0.000 A 
ATOM     16  C   UNL     1      -6.479  11.601  17.810  0.00  0.00    +0.000 A 
ATOM     17  C   UNL     1      -6.035  10.685  18.733  0.00  0.00    +0.000 A 
ATOM     18  O   UNL     1      -4.687  10.517  18.666  0.00  0.00    +0.000 OA
BRANCH  17  19
ATOM     19  N   UNL     1      -6.724   9.914  19.719  0.00  0.00    +0.000 N 
ATOM     20  O   UNL     1      -6.913   8.720  19.450  0.00  0.00    +0.000 OA
ATOM     21  O   UNL     1      -7.078  10.491  20.756  0.00  0.00    +0.000 OA
ENDBRANCH  17  19
ENDBRANCH  11  14
ENDBRANCH   9  10
ENDBRANCH   3   9
BRANCH   6  22
ATOM     22  O   UNL     1       2.353   7.277  19.702  0.00  0.00    +0.000 OA
BRANCH  22  23
ATOM     23  C   UNL     1       2.452   6.290  18.707  0.00  0.00    +0.000 C 
ATOM     24  O   UNL     1       1.527   5.923  17.994  0.00  0.00    +0.000 OA
BRANCH  23  25
ATOM     25  C   UNL     1       3.838   5.845  18.589  0.00  0.00    +0.000 A 
ATOM     26  C   UNL     1       4.713   5.382  19.561  0.00  0.00    +0.000 A 
ATOM     27  C   UNL     1       6.022   5.126  19.047  0.00  0.00    +0.000 A 
ATOM     28  C   UNL     1       6.101   5.397  17.696  0.00  0.00    +0.000 A 
ATOM     29  S   UNL     1       4.621   5.931  17.055  0.00  0.00    +0.000 S 
BRANCH  28  30
ATOM     30  N   UNL     1       7.273   5.274  16.864  0.00  0.00    +0.000 N 
ATOM     31  O   UNL     1       8.040   4.337  17.135  0.00  0.00    +0.000 OA
ATOM     32  O   UNL     1       7.440   6.096  15.955  0.00  0.00    +0.000 OA
ENDBRANCH  28  30
ENDBRANCH  23  25
ENDBRANCH  22  23
ENDBRANCH   6  22
TORSDOF 9
ENDMDL
