MODEL 1
REMARK VINA RESULT:      -7.3      0.000      0.000
REMARK  Name = 
REMARK  5 active torsions:
REMARK  status: ('A' for Active; 'I' for Inactive)
REMARK    1  A    between atoms: C_1  and  C_2
REMARK    2  A    between atoms: C_2  and  S_3
REMARK    3  A    between atoms: S_3  and  C_4
REMARK    4  A    between atoms: C_9  and  C_11
REMARK    5  A    between atoms: C_11  and  N_12
REMARK                            x       y       z     vdW  Elec       q    Type
REMARK                         _______ _______ _______ _____ _____    ______ ____
ROOT
ATOM      1  C   UNL     1       7.909   6.257  18.296  0.00  0.00    +0.000 C 
ENDROOT
BRANCH   1   2
ATOM      2  N   UNL     1       6.652   5.769  17.780  0.00  0.00    +0.000 N 
ATOM      3  C   UNL     1       6.440   5.477  16.471  0.00  0.00    +0.000 C 
ATOM      4  O   UNL     1       7.267   5.547  15.576  0.00  0.00    +0.000 OA
ATOM      5  N   UNL     1       5.138   5.068  16.315  0.00  0.00    +0.000 N 
ATOM      6  C   UNL     1       4.459   4.915  17.581  0.00  0.00    +0.000 C 
ATOM      7  C   UNL     1       3.137   5.682  17.676  0.00  0.00    +0.000 C 
ATOM      8  C   UNL     1       2.059   4.605  17.766  0.00  0.00    +0.000 C 
ATOM      9  C   UNL     1       2.749   3.456  18.481  0.00  0.00    +0.000 C 
ATOM     10  C   UNL     1       4.145   3.443  17.874  0.00  0.00    +0.000 C 
ATOM     11  C   UNL     1       5.542   5.467  18.526  0.00  0.00    +0.000 C 
ATOM     12  O   UNL     1       5.441   5.553  19.742  0.00  0.00    +0.000 OA
ATOM     13  H   UNL     1       4.811   4.713  15.424  0.00  0.00    +0.000 HD
ENDBRANCH   1   2
BRANCH   1  19
ATOM     14  C   UNL     1       9.220  12.128  18.753  0.00  0.00    +0.000 A 
ATOM     15  N   UNL     1       9.750  11.727  19.888  0.00  0.00    +0.000 NA
ATOM     16  N   UNL     1       9.640  10.354  20.049  0.00  0.00    +0.000 NA
ATOM     17  C   UNL     1       9.003   9.785  19.046  0.00  0.00    +0.000 A 
ATOM     18  N   UNL     1       8.760   8.431  18.998  0.00  0.00    +0.000 N 
ATOM     19  C   UNL     1       7.984   7.772  18.067  0.00  0.00    +0.000 C 
ATOM     20  O   UNL     1       7.418   8.280  17.103  0.00  0.00    +0.000 OA
ATOM     21  S   UNL     1       8.533  10.870  17.818  0.00  0.00    +0.000 S 
ATOM     22  H   UNL     1       9.204   7.911  19.748  0.00  0.00    +0.000 HD
BRANCH  14  23
ATOM     23  S   UNL     1       9.193  13.799  18.234  0.00  0.00    +0.000 S 
BRANCH  23  25
ATOM     24  C   UNL     1      11.102  15.381  17.082  0.00  0.00    +0.000 C 
ATOM     25  C   UNL     1      10.771  13.920  17.344  0.00  0.00    +0.000 C 
ENDBRANCH  23  25
ENDBRANCH  14  23
ENDBRANCH   1  19
TORSDOF 4
ENDMDL
MODEL 2
REMARK VINA RESULT:      -7.2      5.544      7.151
REMARK  Name = 
REMARK  5 active torsions:
REMARK  status: ('A' for Active; 'I' for Inactive)
REMARK    1  A    between atoms: C_1  and  C_2
REMARK    2  A    between atoms: C_2  and  S_3
REMARK    3  A    between atoms: S_3  and  C_4
REMARK    4  A    between atoms: C_9  and  C_11
REMARK    5  A    between atoms: C_11  and  N_12
REMARK                            x       y       z     vdW  Elec       q    Type
REMARK                         _______ _______ _______ _____ _____    ______ ____
ROOT
ATOM      1  C   UNL     1       5.625   5.600  18.430  0.00  0.00    +0.000 C 
ENDROOT
BRANCH   1   2
ATOM      2  N   UNL     1       4.363   5.287  19.058  0.00  0.00    +0.000 N 
ATOM      3  C   UNL     1       3.299   6.131  19.068  0.00  0.00    +0.000 C 
ATOM      4  O   UNL     1       3.245   7.226  18.532  0.00  0.00    +0.000 OA
ATOM      5  N   UNL     1       2.275   5.542  19.769  0.00  0.00    +0.000 N 
ATOM      6  C   UNL     1       2.573   4.174  20.126  0.00  0.00    +0.000 C 
ATOM      7  C   UNL     1       2.409   3.869  21.618  0.00  0.00    +0.000 C 
ATOM      8  C   UNL     1       1.238   2.895  21.697  0.00  0.00    +0.000 C 
ATOM      9  C   UNL     1       1.315   2.123  20.392  0.00  0.00    +0.000 C 
ATOM     10  C   UNL     1       1.678   3.188  19.366  0.00  0.00    +0.000 C 
ATOM     11  C   UNL     1       4.038   4.096  19.655  0.00  0.00    +0.000 C 
ATOM     12  O   UNL     1       4.756   3.110  19.744  0.00  0.00    +0.000 OA
ATOM     13  H   UNL     1       1.359   5.974  19.807  0.00  0.00    +0.000 HD
ENDBRANCH   1   2
BRANCH   1  19
ATOM     14  C   UNL     1       7.074   4.184  12.748  0.00  0.00    +0.000 A 
ATOM     15  N   UNL     1       7.929   5.168  12.921  0.00  0.00    +0.000 NA
ATOM     16  N   UNL     1       7.860   5.687  14.206  0.00  0.00    +0.000 NA
ATOM     17  C   UNL     1       6.935   5.095  14.933  0.00  0.00    +0.000 A 
ATOM     18  N   UNL     1       6.675   5.457  16.235  0.00  0.00    +0.000 N 
ATOM     19  C   UNL     1       5.639   4.994  17.021  0.00  0.00    +0.000 C 
ATOM     20  O   UNL     1       4.805   4.152  16.701  0.00  0.00    +0.000 OA
ATOM     21  S   UNL     1       6.115   3.839  14.123  0.00  0.00    +0.000 S 
ATOM     22  H   UNL     1       7.327   6.141  16.605  0.00  0.00    +0.000 HD
BRANCH  14  23
ATOM     23  S   UNL     1       6.903   3.304  11.245  0.00  0.00    +0.000 S 
BRANCH  23  25
ATOM     24  C   UNL     1       4.174   3.175  11.161  0.00  0.00    +0.000 C 
ATOM     25  C   UNL     1       5.389   2.353  11.560  0.00  0.00    +0.000 C 
ENDBRANCH  23  25
ENDBRANCH  14  23
ENDBRANCH   1  19
TORSDOF 4
ENDMDL
MODEL 3
REMARK VINA RESULT:      -7.1      0.991      1.071
REMARK  Name = 
REMARK  5 active torsions:
REMARK  status: ('A' for Active; 'I' for Inactive)
REMARK    1  A    between atoms: C_1  and  C_2
REMARK    2  A    between atoms: C_2  and  S_3
REMARK    3  A    between atoms: S_3  and  C_4
REMARK    4  A    between atoms: C_9  and  C_11
REMARK    5  A    between atoms: C_11  and  N_12
REMARK                            x       y       z     vdW  Elec       q    Type
REMARK                         _______ _______ _______ _____ _____    ______ ____
ROOT
ATOM      1  C   UNL     1       7.886   6.275  18.341  0.00  0.00    +0.000 C 
ENDROOT
BRANCH   1   2
ATOM      2  N   UNL     1       6.626   5.808  17.814  0.00  0.00    +0.000 N 
ATOM      3  C   UNL     1       6.413   5.546  16.498  0.00  0.00    +0.000 C 
ATOM      4  O   UNL     1       7.240   5.628  15.606  0.00  0.00    +0.000 OA
ATOM      5  N   UNL     1       5.108   5.150  16.333  0.00  0.00    +0.000 N 
ATOM      6  C   UNL     1       4.426   4.975  17.595  0.00  0.00    +0.000 C 
ATOM      7  C   UNL     1       3.110   5.749  17.706  0.00  0.00    +0.000 C 
ATOM      8  C   UNL     1       2.025   4.679  17.771  0.00  0.00    +0.000 C 
ATOM      9  C   UNL     1       2.704   3.510  18.462  0.00  0.00    +0.000 C 
ATOM     10  C   UNL     1       4.101   3.499  17.856  0.00  0.00    +0.000 C 
ATOM     11  C   UNL     1       5.513   5.498  18.552  0.00  0.00    +0.000 C 
ATOM     12  O   UNL     1       5.412   5.559  19.770  0.00  0.00    +0.000 OA
ATOM     13  H   UNL     1       4.779   4.816  15.435  0.00  0.00    +0.000 HD
ENDBRANCH   1   2
BRANCH   1  19
ATOM     14  C   UNL     1       9.295  12.127  18.745  0.00  0.00    +0.000 A 
ATOM     15  N   UNL     1       9.773  11.737  19.906  0.00  0.00    +0.000 NA
ATOM     16  N   UNL     1       9.629  10.369  20.087  0.00  0.00    +0.000 NA
ATOM     17  C   UNL     1       9.020   9.794  19.071  0.00  0.00    +0.000 A 
ATOM     18  N   UNL     1       8.752   8.445  19.037  0.00  0.00    +0.000 N 
ATOM     19  C   UNL     1       8.000   7.784  18.088  0.00  0.00    +0.000 C 
ATOM     20  O   UNL     1       7.482   8.285  17.094  0.00  0.00    +0.000 OA
ATOM     21  S   UNL     1       8.619  10.865  17.807  0.00  0.00    +0.000 S 
ATOM     22  H   UNL     1       9.157   7.930  19.813  0.00  0.00    +0.000 HD
BRANCH  14  23
ATOM     23  S   UNL     1       9.321  13.789  18.197  0.00  0.00    +0.000 S 
BRANCH  23  25
ATOM     24  C   UNL     1       7.369  15.701  18.121  0.00  0.00    +0.000 C 
ATOM     25  C   UNL     1       7.552  14.194  18.205  0.00  0.00    +0.000 C 
ENDBRANCH  23  25
ENDBRANCH  14  23
ENDBRANCH   1  19
TORSDOF 4
ENDMDL
MODEL 4
REMARK VINA RESULT:      -7.0      5.509      6.866
REMARK  Name = 
REMARK  5 active torsions:
REMARK  status: ('A' for Active; 'I' for Inactive)
REMARK    1  A    between atoms: C_1  and  C_2
REMARK    2  A    between atoms: C_2  and  S_3
REMARK    3  A    between atoms: S_3  and  C_4
REMARK    4  A    between atoms: C_9  and  C_11
REMARK    5  A    between atoms: C_11  and  N_12
REMARK                            x       y       z     vdW  Elec       q    Type
REMARK                         _______ _______ _______ _____ _____    ______ ____
ROOT
ATOM      1  C   UNL     1       3.803   3.959  19.691  0.00  0.00    +0.000 C 
ENDROOT
BRANCH   1   2
ATOM      2  N   UNL     1       4.674   4.355  18.611  0.00  0.00    +0.000 N 
ATOM      3  C   UNL     1       5.927   4.846  18.797  0.00  0.00    +0.000 C 
ATOM      4  O   UNL     1       6.493   4.984  19.870  0.00  0.00    +0.000 OA
ATOM      5  N   UNL     1       6.469   5.149  17.572  0.00  0.00    +0.000 N 
ATOM      6  C   UNL     1       5.632   4.708  16.480  0.00  0.00    +0.000 C 
ATOM      7  C   UNL     1       5.298   5.806  15.467  0.00  0.00    +0.000 C 
ATOM      8  C   UNL     1       5.996   5.383  14.178  0.00  0.00    +0.000 C 
ATOM      9  C   UNL     1       5.985   3.865  14.238  0.00  0.00    +0.000 C 
ATOM     10  C   UNL     1       6.287   3.562  15.700  0.00  0.00    +0.000 C 
ATOM     11  C   UNL     1       4.402   4.228  17.273  0.00  0.00    +0.000 C 
ATOM     12  O   UNL     1       3.387   3.754  16.782  0.00  0.00    +0.000 OA
ATOM     13  H   UNL     1       7.437   5.439  17.493  0.00  0.00    +0.000 HD
ENDBRANCH   1   2
BRANCH   1  19
ATOM     14  C   UNL     1       0.976   9.285  19.890  0.00  0.00    +0.000 A 
ATOM     15  N   UNL     1       1.623   9.457  18.758  0.00  0.00    +0.000 NA
ATOM     16  N   UNL     1       2.358   8.332  18.411  0.00  0.00    +0.000 NA
ATOM     17  C   UNL     1       2.259   7.376  19.311  0.00  0.00    +0.000 A 
ATOM     18  N   UNL     1       2.916   6.173  19.187  0.00  0.00    +0.000 N 
ATOM     19  C   UNL     1       2.985   5.177  20.139  0.00  0.00    +0.000 C 
ATOM     20  O   UNL     1       2.435   5.182  21.237  0.00  0.00    +0.000 OA
ATOM     21  S   UNL     1       1.234   7.758  20.618  0.00  0.00    +0.000 S 
ATOM     22  H   UNL     1       3.392   6.060  18.298  0.00  0.00    +0.000 HD
BRANCH  14  23
ATOM     23  S   UNL     1      -0.048  10.505  20.613  0.00  0.00    +0.000 S 
BRANCH  23  25
ATOM     24  C   UNL     1      -1.118  10.734  23.118  0.00  0.00    +0.000 C 
ATOM     25  C   UNL     1      -0.024  10.001  22.357  0.00  0.00    +0.000 C 
ENDBRANCH  23  25
ENDBRANCH  14  23
ENDBRANCH   1  19
TORSDOF 4
ENDMDL
MODEL 5
REMARK VINA RESULT:      -7.0      5.326      7.725
REMARK  Name = 
REMARK  5 active torsions:
REMARK  status: ('A' for Active; 'I' for Inactive)
REMARK    1  A    between atoms: C_1  and  C_2
REMARK    2  A    between atoms: C_2  and  S_3
REMARK    3  A    between atoms: S_3  and  C_4
REMARK    4  A    between atoms: C_9  and  C_11
REMARK    5  A    between atoms: C_11  and  N_12
REMARK                            x       y       z     vdW  Elec       q    Type
REMARK                         _______ _______ _______ _____ _____    ______ ____
ROOT
ATOM      1  C   UNL     1       7.727   5.166  15.538  0.00  0.00    +0.000 C 
ENDROOT
BRANCH   1   2
ATOM      2  N   UNL     1       7.303   4.782  14.212  0.00  0.00    +0.000 N 
ATOM      3  C   UNL     1       7.833   5.299  13.074  0.00  0.00    +0.000 C 
ATOM      4  O   UNL     1       8.743   6.110  13.009  0.00  0.00    +0.000 OA
ATOM      5  N   UNL     1       7.189   4.744  11.995  0.00  0.00    +0.000 N 
ATOM      6  C   UNL     1       6.286   3.685  12.383  0.00  0.00    +0.000 C 
ATOM      7  C   UNL     1       4.859   3.857  11.856  0.00  0.00    +0.000 C 
ATOM      8  C   UNL     1       4.660   2.711  10.869  0.00  0.00    +0.000 C 
ATOM      9  C   UNL     1       5.529   1.595  11.423  0.00  0.00    +0.000 C 
ATOM     10  C   UNL     1       6.783   2.319  11.895  0.00  0.00    +0.000 C 
ATOM     11  C   UNL     1       6.380   3.813  13.915  0.00  0.00    +0.000 C 
ATOM     12  O   UNL     1       5.778   3.115  14.720  0.00  0.00    +0.000 OA
ATOM     13  H   UNL     1       7.508   4.931  11.051  0.00  0.00    +0.000 HD
ENDBRANCH   1   2
BRANCH   1  19
ATOM     14  C   UNL     1       3.429   4.658  19.740  0.00  0.00    +0.000 A 
ATOM     15  N   UNL     1       4.028   3.505  19.943  0.00  0.00    +0.000 NA
ATOM     16  N   UNL     1       5.132   3.349  19.117  0.00  0.00    +0.000 NA
ATOM     17  C   UNL     1       5.297   4.374  18.307  0.00  0.00    +0.000 A 
ATOM     18  N   UNL     1       6.318   4.432  17.387  0.00  0.00    +0.000 N 
ATOM     19  C   UNL     1       6.485   5.391  16.409  0.00  0.00    +0.000 C 
ATOM     20  O   UNL     1       5.773   6.375  16.228  0.00  0.00    +0.000 OA
ATOM     21  S   UNL     1       4.151   5.618  18.521  0.00  0.00    +0.000 S 
ATOM     22  H   UNL     1       6.980   3.666  17.465  0.00  0.00    +0.000 HD
BRANCH  14  23
ATOM     23  S   UNL     1       2.006   5.176  20.617  0.00  0.00    +0.000 S 
BRANCH  23  25
ATOM     24  C   UNL     1       1.292   2.731  21.610  0.00  0.00    +0.000 C 
ATOM     25  C   UNL     1       0.954   3.702  20.489  0.00  0.00    +0.000 C 
ENDBRANCH  23  25
ENDBRANCH  14  23
ENDBRANCH   1  19
TORSDOF 4
ENDMDL
MODEL 6
REMARK VINA RESULT:      -6.9      5.392      6.668
REMARK  Name = 
REMARK  5 active torsions:
REMARK  status: ('A' for Active; 'I' for Inactive)
REMARK    1  A    between atoms: C_1  and  C_2
REMARK    2  A    between atoms: C_2  and  S_3
REMARK    3  A    between atoms: S_3  and  C_4
REMARK    4  A    between atoms: C_9  and  C_11
REMARK    5  A    between atoms: C_11  and  N_12
REMARK                            x       y       z     vdW  Elec       q    Type
REMARK                         _______ _______ _______ _____ _____    ______ ____
ROOT
ATOM      1  C   UNL     1       3.418   4.547  19.545  0.00  0.00    +0.000 C 
ENDROOT
BRANCH   1   2
ATOM      2  N   UNL     1       4.423   4.713  18.523  0.00  0.00    +0.000 N 
ATOM      3  C   UNL     1       5.722   5.009  18.788  0.00  0.00    +0.000 C 
ATOM      4  O   UNL     1       6.219   5.137  19.895  0.00  0.00    +0.000 OA
ATOM      5  N   UNL     1       6.400   5.124  17.599  0.00  0.00    +0.000 N 
ATOM      6  C   UNL     1       5.588   4.739  16.467  0.00  0.00    +0.000 C 
ATOM      7  C   UNL     1       5.520   5.794  15.360  0.00  0.00    +0.000 C 
ATOM      8  C   UNL     1       6.235   5.165  14.168  0.00  0.00    +0.000 C 
ATOM      9  C   UNL     1       5.967   3.678  14.324  0.00  0.00    +0.000 C 
ATOM     10  C   UNL     1       6.101   3.446  15.823  0.00  0.00    +0.000 C 
ATOM     11  C   UNL     1       4.238   4.527  17.177  0.00  0.00    +0.000 C 
ATOM     12  O   UNL     1       3.198   4.185  16.630  0.00  0.00    +0.000 OA
ATOM     13  H   UNL     1       7.406   5.247  17.587  0.00  0.00    +0.000 HD
ENDBRANCH   1   2
BRANCH   1  19
ATOM     14  C   UNL     1       1.129  10.084  18.835  0.00  0.00    +0.000 A 
ATOM     15  N   UNL     1       1.796  10.009  17.703  0.00  0.00    +0.000 NA
ATOM     16  N   UNL     1       2.417   8.777  17.555  0.00  0.00    +0.000 NA
ATOM     17  C   UNL     1       2.220   7.992  18.594  0.00  0.00    +0.000 A 
ATOM     18  N   UNL     1       2.756   6.727  18.677  0.00  0.00    +0.000 N 
ATOM     19  C   UNL     1       2.721   5.894  19.776  0.00  0.00    +0.000 C 
ATOM     20  O   UNL     1       2.169   6.128  20.847  0.00  0.00    +0.000 OA
ATOM     21  S   UNL     1       1.230   8.676  19.802  0.00  0.00    +0.000 S 
ATOM     22  H   UNL     1       3.223   6.427  17.827  0.00  0.00    +0.000 HD
BRANCH  14  23
ATOM     23  S   UNL     1       0.225  11.497  19.333  0.00  0.00    +0.000 S 
BRANCH  23  25
ATOM     24  C   UNL     1      -1.744  10.114  18.037  0.00  0.00    +0.000 C 
ATOM     25  C   UNL     1      -1.126  11.501  18.121  0.00  0.00    +0.000 C 
ENDBRANCH  23  25
ENDBRANCH  14  23
ENDBRANCH   1  19
TORSDOF 4
ENDMDL
MODEL 7
REMARK VINA RESULT:      -6.7      5.126      6.099
REMARK  Name = 
REMARK  5 active torsions:
REMARK  status: ('A' for Active; 'I' for Inactive)
REMARK    1  A    between atoms: C_1  and  C_2
REMARK    2  A    between atoms: C_2  and  S_3
REMARK    3  A    between atoms: S_3  and  C_4
REMARK    4  A    between atoms: C_9  and  C_11
REMARK    5  A    between atoms: C_11  and  N_12
REMARK                            x       y       z     vdW  Elec       q    Type
REMARK                         _______ _______ _______ _____ _____    ______ ____
ROOT
ATOM      1  C   UNL     1       3.480   4.578  19.574  0.00  0.00    +0.000 C 
ENDROOT
BRANCH   1   2
ATOM      2  N   UNL     1       4.477   4.725  18.540  0.00  0.00    +0.000 N 
ATOM      3  C   UNL     1       5.781   5.011  18.790  0.00  0.00    +0.000 C 
ATOM      4  O   UNL     1       6.290   5.144  19.891  0.00  0.00    +0.000 OA
ATOM      5  N   UNL     1       6.449   5.110  17.593  0.00  0.00    +0.000 N 
ATOM      6  C   UNL     1       5.622   4.723  16.473  0.00  0.00    +0.000 C 
ATOM      7  C   UNL     1       5.553   5.769  15.358  0.00  0.00    +0.000 C 
ATOM      8  C   UNL     1       6.250   5.123  14.164  0.00  0.00    +0.000 C 
ATOM      9  C   UNL     1       5.969   3.640  14.336  0.00  0.00    +0.000 C 
ATOM     10  C   UNL     1       6.116   3.419  15.835  0.00  0.00    +0.000 C 
ATOM     11  C   UNL     1       4.276   4.530  17.198  0.00  0.00    +0.000 C 
ATOM     12  O   UNL     1       3.228   4.193  16.664  0.00  0.00    +0.000 OA
ATOM     13  H   UNL     1       7.455   5.223  17.571  0.00  0.00    +0.000 HD
ENDBRANCH   1   2
BRANCH   1  19
ATOM     14  C   UNL     1       1.158  10.079  18.712  0.00  0.00    +0.000 A 
ATOM     15  N   UNL     1       1.862   9.996  17.605  0.00  0.00    +0.000 NA
ATOM     16  N   UNL     1       2.501   8.770  17.494  0.00  0.00    +0.000 NA
ATOM     17  C   UNL     1       2.278   7.996  18.536  0.00  0.00    +0.000 A 
ATOM     18  N   UNL     1       2.825   6.738  18.654  0.00  0.00    +0.000 N 
ATOM     19  C   UNL     1       2.762   5.920  19.763  0.00  0.00    +0.000 C 
ATOM     20  O   UNL     1       2.173   6.163  20.813  0.00  0.00    +0.000 OA
ATOM     21  S   UNL     1       1.243   8.685  19.702  0.00  0.00    +0.000 S 
ATOM     22  H   UNL     1       3.323   6.432  17.824  0.00  0.00    +0.000 HD
BRANCH  14  23
ATOM     23  S   UNL     1       0.224  11.489  19.161  0.00  0.00    +0.000 S 
BRANCH  23  25
ATOM     24  C   UNL     1       1.929  13.478  18.382  0.00  0.00    +0.000 C 
ATOM     25  C   UNL     1       1.539  12.660  19.602  0.00  0.00    +0.000 C 
ENDBRANCH  23  25
ENDBRANCH  14  23
ENDBRANCH   1  19
TORSDOF 4
ENDMDL
MODEL 8
REMARK VINA RESULT:      -6.7      2.173      2.781
REMARK  Name = 
REMARK  5 active torsions:
REMARK  status: ('A' for Active; 'I' for Inactive)
REMARK    1  A    between atoms: C_1  and  C_2
REMARK    2  A    between atoms: C_2  and  S_3
REMARK    3  A    between atoms: S_3  and  C_4
REMARK    4  A    between atoms: C_9  and  C_11
REMARK    5  A    between atoms: C_11  and  N_12
REMARK                            x       y       z     vdW  Elec       q    Type
REMARK                         _______ _______ _______ _____ _____    ______ ____
ROOT
ATOM      1  C   UNL     1       6.533   4.295  17.611  0.00  0.00    +0.000 C 
ENDROOT
BRANCH   1   2
ATOM      2  N   UNL     1       5.142   4.464  17.956  0.00  0.00    +0.000 N 
ATOM      3  C   UNL     1       4.289   5.267  17.268  0.00  0.00    +0.000 C 
ATOM      4  O   UNL     1       4.559   5.911  16.267  0.00  0.00    +0.000 OA
ATOM      5  N   UNL     1       3.056   5.223  17.872  0.00  0.00    +0.000 N 
ATOM      6  C   UNL     1       2.999   4.235  18.924  0.00  0.00    +0.000 C 
ATOM      7  C   UNL     1       2.508   4.781  20.267  0.00  0.00    +0.000 C 
ATOM      8  C   UNL     1       1.167   4.094  20.509  0.00  0.00    +0.000 C 
ATOM      9  C   UNL     1       1.320   2.744  19.831  0.00  0.00    +0.000 C 
ATOM     10  C   UNL     1       2.074   3.071  18.549  0.00  0.00    +0.000 C 
ATOM     11  C   UNL     1       4.476   3.802  18.955  0.00  0.00    +0.000 C 
ATOM     12  O   UNL     1       4.950   2.959  19.706  0.00  0.00    +0.000 OA
ATOM     13  H   UNL     1       2.257   5.681  17.450  0.00  0.00    +0.000 HD
ENDBRANCH   1   2
BRANCH   1  19
ATOM     14  C   UNL     1       8.874   9.740  18.736  0.00  0.00    +0.000 A 
ATOM     15  N   UNL     1       8.264  10.026  17.606  0.00  0.00    +0.000 NA
ATOM     16  N   UNL     1       7.569   8.934  17.108  0.00  0.00    +0.000 NA
ATOM     17  C   UNL     1       7.713   7.865  17.864  0.00  0.00    +0.000 A 
ATOM     18  N   UNL     1       7.128   6.658  17.556  0.00  0.00    +0.000 N 
ATOM     19  C   UNL     1       7.336   5.459  18.206  0.00  0.00    +0.000 C 
ATOM     20  O   UNL     1       8.045   5.281  19.192  0.00  0.00    +0.000 OA
ATOM     21  S   UNL     1       8.664   8.122  19.255  0.00  0.00    +0.000 S 
ATOM     22  H   UNL     1       6.501   6.702  16.759  0.00  0.00    +0.000 HD
BRANCH  14  23
ATOM     23  S   UNL     1       9.836  10.893  19.635  0.00  0.00    +0.000 S 
BRANCH  23  25
ATOM     24  C   UNL     1      12.131  12.158  18.856  0.00  0.00    +0.000 C 
ATOM     25  C   UNL     1      10.803  11.662  18.305  0.00  0.00    +0.000 C 
ENDBRANCH  23  25
ENDBRANCH  14  23
ENDBRANCH   1  19
TORSDOF 4
ENDMDL
MODEL 9
REMARK VINA RESULT:      -6.7      5.553      6.970
REMARK  Name = 
REMARK  5 active torsions:
REMARK  status: ('A' for Active; 'I' for Inactive)
REMARK    1  A    between atoms: C_1  and  C_2
REMARK    2  A    between atoms: C_2  and  S_3
REMARK    3  A    between atoms: S_3  and  C_4
REMARK    4  A    between atoms: C_9  and  C_11
REMARK    5  A    between atoms: C_11  and  N_12
REMARK                            x       y       z     vdW  Elec       q    Type
REMARK                         _______ _______ _______ _____ _____    ______ ____
ROOT
ATOM      1  C   UNL     1       3.932   6.915  17.395  0.00  0.00    +0.000 C 
ENDROOT
BRANCH   1   2
ATOM      2  N   UNL     1       3.756   5.711  18.172  0.00  0.00    +0.000 N 
ATOM      3  C   UNL     1       4.701   5.215  19.012  0.00  0.00    +0.000 C 
ATOM      4  O   UNL     1       5.785   5.719  19.253  0.00  0.00    +0.000 OA
ATOM      5  N   UNL     1       4.227   4.052  19.570  0.00  0.00    +0.000 N 
ATOM      6  C   UNL     1       2.844   3.807  19.233  0.00  0.00    +0.000 C 
ATOM      7  C   UNL     1       2.583   2.426  18.627  0.00  0.00    +0.000 C 
ATOM      8  C   UNL     1       1.731   1.694  19.659  0.00  0.00    +0.000 C 
ATOM      9  C   UNL     1       0.931   2.801  20.324  0.00  0.00    +0.000 C 
ATOM     10  C   UNL     1       1.937   3.936  20.462  0.00  0.00    +0.000 C 
ATOM     11  C   UNL     1       2.614   4.955  18.231  0.00  0.00    +0.000 C 
ATOM     12  O   UNL     1       1.564   5.182  17.646  0.00  0.00    +0.000 OA
ATOM     13  H   UNL     1       4.748   3.579  20.299  0.00  0.00    +0.000 HD
ENDBRANCH   1   2
BRANCH   1  19
ATOM     14  C   UNL     1       0.015  10.129  20.670  0.00  0.00    +0.000 A 
ATOM     15  N   UNL     1       0.182   9.127  21.505  0.00  0.00    +0.000 NA
ATOM     16  N   UNL     1       1.104   8.208  21.026  0.00  0.00    +0.000 NA
ATOM     17  C   UNL     1       1.566   8.540  19.838  0.00  0.00    +0.000 A 
ATOM     18  N   UNL     1       2.479   7.767  19.158  0.00  0.00    +0.000 N 
ATOM     19  C   UNL     1       2.909   7.959  17.861  0.00  0.00    +0.000 C 
ATOM     20  O   UNL     1       2.578   8.876  17.115  0.00  0.00    +0.000 OA
ATOM     21  S   UNL     1       0.948  10.011  19.239  0.00  0.00    +0.000 S 
ATOM     22  H   UNL     1       2.833   6.984  19.700  0.00  0.00    +0.000 HD
BRANCH  14  23
ATOM     23  S   UNL     1      -1.073  11.466  20.968  0.00  0.00    +0.000 S 
BRANCH  23  25
ATOM     24  C   UNL     1      -1.626  12.907  23.225  0.00  0.00    +0.000 C 
ATOM     25  C   UNL     1      -0.974  11.609  22.776  0.00  0.00    +0.000 C 
ENDBRANCH  23  25
ENDBRANCH  14  23
ENDBRANCH   1  19
TORSDOF 4
ENDMDL
