MODEL 1
REMARK VINA RESULT:      -7.1      0.000      0.000
REMARK  Name = 
REMARK  4 active torsions:
REMARK  status: ('A' for Active; 'I' for Inactive)
REMARK    1  A    between atoms: C_1  and  C_2
REMARK    2  A    between atoms: C_5  and  C_6
REMARK    3  A    between atoms: C_7  and  C_8
REMARK    4  A    between atoms: C_13  and  C_14
REMARK                            x       y       z     vdW  Elec       q    Type
REMARK                         _______ _______ _______ _____ _____    ______ ____
ROOT
ATOM      1  C   UNL     1       4.257   4.366  17.376  0.00  0.00    +0.000 A 
ATOM      2  C   UNL     1       3.676   3.082  17.426  0.00  0.00    +0.000 A 
ATOM      3  C   UNL     1       2.322   2.884  17.721  0.00  0.00    +0.000 A 
ATOM      4  C   UNL     1       1.515   3.965  18.038  0.00  0.00    +0.000 A 
ATOM      5  C   UNL     1       2.060   5.245  18.034  0.00  0.00    +0.000 A 
ATOM      6  C   UNL     1       3.406   5.448  17.677  0.00  0.00    +0.000 A 
ENDROOT
BRANCH   1  13
ATOM      7  C   UNL     1       5.974   4.009  14.446  0.00  0.00    +0.000 C 
ATOM      8  C   UNL     1       6.419   4.338  15.820  0.00  0.00    +0.000 A 
ATOM      9  N   UNL     1       7.728   4.561  16.001  0.00  0.00    +0.000 NA
ATOM     10  O   UNL     1       7.879   4.912  17.313  0.00  0.00    +0.000 OA
ATOM     11  C   UNL     1       6.676   4.891  17.942  0.00  0.00    +0.000 A 
ATOM     12  C   UNL     1       6.747   5.288  19.367  0.00  0.00    +0.000 C 
ATOM     13  C   UNL     1       5.688   4.493  17.049  0.00  0.00    +0.000 A 
ENDBRANCH   1  13
BRANCH   6  14
ATOM     14  C   UNL     1       3.814   6.864  17.563  0.00  0.00    +0.000 C 
ATOM     15  O   UNL     1       3.025   7.783  17.722  0.00  0.00    +0.000 OA
ENDBRANCH   6  14
TORSDOF 2
ENDMDL
MODEL 2
REMARK VINA RESULT:      -6.9      0.523      2.107
REMARK  Name = 
REMARK  4 active torsions:
REMARK  status: ('A' for Active; 'I' for Inactive)
REMARK    1  A    between atoms: C_1  and  C_2
REMARK    2  A    between atoms: C_5  and  C_6
REMARK    3  A    between atoms: C_7  and  C_8
REMARK    4  A    between atoms: C_13  and  C_14
REMARK                            x       y       z     vdW  Elec       q    Type
REMARK                         _______ _______ _______ _____ _____    ______ ____
ROOT
ATOM      1  C   UNL     1       4.210   4.486  17.393  0.00  0.00    +0.000 A 
ATOM      2  C   UNL     1       3.672   3.182  17.380  0.00  0.00    +0.000 A 
ATOM      3  C   UNL     1       2.318   2.929  17.637  0.00  0.00    +0.000 A 
ATOM      4  C   UNL     1       1.469   3.969  17.978  0.00  0.00    +0.000 A 
ATOM      5  C   UNL     1       1.970   5.266  18.035  0.00  0.00    +0.000 A 
ATOM      6  C   UNL     1       3.317   5.526  17.716  0.00  0.00    +0.000 A 
ENDROOT
BRANCH   1  13
ATOM      7  C   UNL     1       6.847   5.376  19.371  0.00  0.00    +0.000 C 
ATOM      8  C   UNL     1       6.757   5.053  17.928  0.00  0.00    +0.000 A 
ATOM      9  N   UNL     1       7.895   5.088  17.222  0.00  0.00    +0.000 NA
ATOM     10  O   UNL     1       7.573   4.688  15.955  0.00  0.00    +0.000 OA
ATOM     11  C   UNL     1       6.244   4.425  15.875  0.00  0.00    +0.000 A 
ATOM     12  C   UNL     1       5.814   3.957  14.538  0.00  0.00    +0.000 C 
ATOM     13  C   UNL     1       5.642   4.673  17.103  0.00  0.00    +0.000 A 
ENDBRANCH   1  13
BRANCH   6  14
ATOM     14  C   UNL     1       3.679   6.958  17.666  0.00  0.00    +0.000 C 
ATOM     15  O   UNL     1       2.857   7.844  17.845  0.00  0.00    +0.000 OA
ENDBRANCH   6  14
TORSDOF 2
ENDMDL
MODEL 3
REMARK VINA RESULT:      -6.8      1.717      2.484
REMARK  Name = 
REMARK  4 active torsions:
REMARK  status: ('A' for Active; 'I' for Inactive)
REMARK    1  A    between atoms: C_1  and  C_2
REMARK    2  A    between atoms: C_5  and  C_6
REMARK    3  A    between atoms: C_7  and  C_8
REMARK    4  A    between atoms: C_13  and  C_14
REMARK                            x       y       z     vdW  Elec       q    Type
REMARK                         _______ _______ _______ _____ _____    ______ ____
ROOT
ATOM      1  C   UNL     1       4.628   5.609  17.615  0.00  0.00    +0.000 A 
ATOM      2  C   UNL     1       4.235   6.945  17.386  0.00  0.00    +0.000 A 
ATOM      3  C   UNL     1       3.040   7.470  17.893  0.00  0.00    +0.000 A 
ATOM      4  C   UNL     1       2.166   6.657  18.596  0.00  0.00    +0.000 A 
ATOM      5  C   UNL     1       2.502   5.324  18.813  0.00  0.00    +0.000 A 
ATOM      6  C   UNL     1       3.732   4.813  18.356  0.00  0.00    +0.000 A 
ENDROOT
BRANCH   1  13
ATOM      7  C   UNL     1       5.472   4.424  14.526  0.00  0.00    +0.000 C 
ATOM      8  C   UNL     1       6.267   4.626  15.759  0.00  0.00    +0.000 A 
ATOM      9  N   UNL     1       7.569   4.316  15.705  0.00  0.00    +0.000 NA
ATOM     10  O   UNL     1       8.096   4.653  16.921  0.00  0.00    +0.000 OA
ATOM     11  C   UNL     1       7.123   5.152  17.726  0.00  0.00    +0.000 A 
ATOM     12  C   UNL     1       7.615   5.570  19.059  0.00  0.00    +0.000 C 
ATOM     13  C   UNL     1       5.905   5.133  17.057  0.00  0.00    +0.000 A 
ENDBRANCH   1  13
BRANCH   6  14
ATOM     14  C   UNL     1       4.031   3.431  18.785  0.00  0.00    +0.000 C 
ATOM     15  O   UNL     1       4.862   3.184  19.647  0.00  0.00    +0.000 OA
ENDBRANCH   6  14
TORSDOF 2
ENDMDL
MODEL 4
REMARK VINA RESULT:      -6.7      2.331      2.863
REMARK  Name = 
REMARK  4 active torsions:
REMARK  status: ('A' for Active; 'I' for Inactive)
REMARK    1  A    between atoms: C_1  and  C_2
REMARK    2  A    between atoms: C_5  and  C_6
REMARK    3  A    between atoms: C_7  and  C_8
REMARK    4  A    between atoms: C_13  and  C_14
REMARK                            x       y       z     vdW  Elec       q    Type
REMARK                         _______ _______ _______ _____ _____    ______ ____
ROOT
ATOM      1  C   UNL     1       4.696   6.184  17.790  0.00  0.00    +0.000 A 
ATOM      2  C   UNL     1       3.774   7.221  17.537  0.00  0.00    +0.000 A 
ATOM      3  C   UNL     1       2.658   7.446  18.353  0.00  0.00    +0.000 A 
ATOM      4  C   UNL     1       2.393   6.598  19.417  0.00  0.00    +0.000 A 
ATOM      5  C   UNL     1       3.261   5.542  19.678  0.00  0.00    +0.000 A 
ATOM      6  C   UNL     1       4.415   5.355  18.894  0.00  0.00    +0.000 A 
ENDROOT
BRANCH   1  13
ATOM      7  C   UNL     1       5.194   4.211  15.047  0.00  0.00    +0.000 C 
ATOM      8  C   UNL     1       6.071   5.184  15.738  0.00  0.00    +0.000 A 
ATOM      9  N   UNL     1       7.294   5.376  15.226  0.00  0.00    +0.000 NA
ATOM     10  O   UNL     1       7.876   6.357  15.979  0.00  0.00    +0.000 OA
ATOM     11  C   UNL     1       7.026   6.757  16.960  0.00  0.00    +0.000 A 
ATOM     12  C   UNL     1       7.570   7.841  17.809  0.00  0.00    +0.000 C 
ATOM     13  C   UNL     1       5.851   6.017  16.891  0.00  0.00    +0.000 A 
ENDBRANCH   1  13
BRANCH   6  14
ATOM     14  C   UNL     1       5.328   4.295  19.372  0.00  0.00    +0.000 C 
ATOM     15  O   UNL     1       4.951   3.148  19.560  0.00  0.00    +0.000 OA
ENDBRANCH   6  14
TORSDOF 2
ENDMDL
MODEL 5
REMARK VINA RESULT:      -6.7      2.324      4.618
REMARK  Name = 
REMARK  4 active torsions:
REMARK  status: ('A' for Active; 'I' for Inactive)
REMARK    1  A    between atoms: C_1  and  C_2
REMARK    2  A    between atoms: C_5  and  C_6
REMARK    3  A    between atoms: C_7  and  C_8
REMARK    4  A    between atoms: C_13  and  C_14
REMARK                            x       y       z     vdW  Elec       q    Type
REMARK                         _______ _______ _______ _____ _____    ______ ____
ROOT
ATOM      1  C   UNL     1       4.848   4.396  17.220  0.00  0.00    +0.000 A 
ATOM      2  C   UNL     1       4.975   4.097  15.847  0.00  0.00    +0.000 A 
ATOM      3  C   UNL     1       6.166   4.309  15.142  0.00  0.00    +0.000 A 
ATOM      4  C   UNL     1       7.255   4.887  15.775  0.00  0.00    +0.000 A 
ATOM      5  C   UNL     1       7.158   5.228  17.121  0.00  0.00    +0.000 A 
ATOM      6  C   UNL     1       5.980   4.957  17.843  0.00  0.00    +0.000 A 
ENDROOT
BRANCH   1  13
ATOM      7  C   UNL     1       3.440   1.529  18.428  0.00  0.00    +0.000 C 
ATOM      8  C   UNL     1       2.961   2.931  18.400  0.00  0.00    +0.000 A 
ATOM      9  N   UNL     1       1.765   3.180  18.950  0.00  0.00    +0.000 NA
ATOM     10  O   UNL     1       1.580   4.532  18.869  0.00  0.00    +0.000 OA
ATOM     11  C   UNL     1       2.645   5.112  18.259  0.00  0.00    +0.000 A 
ATOM     12  C   UNL     1       2.537   6.585  18.155  0.00  0.00    +0.000 C 
ATOM     13  C   UNL     1       3.565   4.135  17.894  0.00  0.00    +0.000 A 
ENDBRANCH   1  13
BRANCH   6  14
ATOM     14  C   UNL     1       6.063   5.226  19.294  0.00  0.00    +0.000 C 
ATOM     15  O   UNL     1       7.133   5.340  19.873  0.00  0.00    +0.000 OA
ENDBRANCH   6  14
TORSDOF 2
ENDMDL
MODEL 6
REMARK VINA RESULT:      -6.7      2.482      4.711
REMARK  Name = 
REMARK  4 active torsions:
REMARK  status: ('A' for Active; 'I' for Inactive)
REMARK    1  A    between atoms: C_1  and  C_2
REMARK    2  A    between atoms: C_5  and  C_6
REMARK    3  A    between atoms: C_7  and  C_8
REMARK    4  A    between atoms: C_13  and  C_14
REMARK                            x       y       z     vdW  Elec       q    Type
REMARK                         _______ _______ _______ _____ _____    ______ ____
ROOT
ATOM      1  C   UNL     1       4.857   4.375  17.322  0.00  0.00    +0.000 A 
ATOM      2  C   UNL     1       4.935   3.981  15.969  0.00  0.00    +0.000 A 
ATOM      3  C   UNL     1       6.110   4.116  15.218  0.00  0.00    +0.000 A 
ATOM      4  C   UNL     1       7.229   4.708  15.779  0.00  0.00    +0.000 A 
ATOM      5  C   UNL     1       7.180   5.142  17.101  0.00  0.00    +0.000 A 
ATOM      6  C   UNL     1       6.019   4.950  17.873  0.00  0.00    +0.000 A 
ENDROOT
BRANCH   1  13
ATOM      7  C   UNL     1       2.423   6.578  18.264  0.00  0.00    +0.000 C 
ATOM      8  C   UNL     1       2.561   5.115  18.454  0.00  0.00    +0.000 A 
ATOM      9  N   UNL     1       1.568   4.486  19.097  0.00  0.00    +0.000 NA
ATOM     10  O   UNL     1       1.885   3.156  19.083  0.00  0.00    +0.000 OA
ATOM     11  C   UNL     1       3.071   2.967  18.451  0.00  0.00    +0.000 A 
ATOM     12  C   UNL     1       3.476   1.545  18.367  0.00  0.00    +0.000 C 
ATOM     13  C   UNL     1       3.588   4.193  18.048  0.00  0.00    +0.000 A 
ENDBRANCH   1  13
BRANCH   6  14
ATOM     14  C   UNL     1       6.151   5.313  19.299  0.00  0.00    +0.000 C 
ATOM     15  O   UNL     1       7.229   5.301  19.876  0.00  0.00    +0.000 OA
ENDBRANCH   6  14
TORSDOF 2
ENDMDL
MODEL 7
REMARK VINA RESULT:      -6.6      2.277      4.801
REMARK  Name = 
REMARK  4 active torsions:
REMARK  status: ('A' for Active; 'I' for Inactive)
REMARK    1  A    between atoms: C_1  and  C_2
REMARK    2  A    between atoms: C_5  and  C_6
REMARK    3  A    between atoms: C_7  and  C_8
REMARK    4  A    between atoms: C_13  and  C_14
REMARK                            x       y       z     vdW  Elec       q    Type
REMARK                         _______ _______ _______ _____ _____    ______ ____
ROOT
ATOM      1  C   UNL     1       5.041   4.645  18.029  0.00  0.00    +0.000 A 
ATOM      2  C   UNL     1       5.554   5.178  19.230  0.00  0.00    +0.000 A 
ATOM      3  C   UNL     1       6.903   5.521  19.380  0.00  0.00    +0.000 A 
ATOM      4  C   UNL     1       7.799   5.283  18.351  0.00  0.00    +0.000 A 
ATOM      5  C   UNL     1       7.338   4.725  17.162  0.00  0.00    +0.000 A 
ATOM      6  C   UNL     1       5.970   4.439  16.991  0.00  0.00    +0.000 A 
ENDROOT
BRANCH   1  13
ATOM      7  C   UNL     1       3.371   1.666  17.999  0.00  0.00    +0.000 C 
ATOM      8  C   UNL     1       2.896   3.067  17.925  0.00  0.00    +0.000 A 
ATOM      9  N   UNL     1       1.573   3.261  17.845  0.00  0.00    +0.000 NA
ATOM     10  O   UNL     1       1.381   4.614  17.863  0.00  0.00    +0.000 OA
ATOM     11  C   UNL     1       2.577   5.253  17.937  0.00  0.00    +0.000 A 
ATOM     12  C   UNL     1       2.458   6.727  17.990  0.00  0.00    +0.000 C 
ATOM     13  C   UNL     1       3.607   4.319  17.945  0.00  0.00    +0.000 A 
ENDBRANCH   1  13
BRANCH   6  14
ATOM     14  C   UNL     1       5.592   3.997  15.632  0.00  0.00    +0.000 C 
ATOM     15  O   UNL     1       6.418   3.840  14.745  0.00  0.00    +0.000 OA
ENDBRANCH   6  14
TORSDOF 2
ENDMDL
MODEL 8
REMARK VINA RESULT:      -6.6      1.639      3.232
REMARK  Name = 
REMARK  4 active torsions:
REMARK  status: ('A' for Active; 'I' for Inactive)
REMARK    1  A    between atoms: C_1  and  C_2
REMARK    2  A    between atoms: C_5  and  C_6
REMARK    3  A    between atoms: C_7  and  C_8
REMARK    4  A    between atoms: C_13  and  C_14
REMARK                            x       y       z     vdW  Elec       q    Type
REMARK                         _______ _______ _______ _____ _____    ______ ____
ROOT
ATOM      1  C   UNL     1       4.616   5.741  17.522  0.00  0.00    +0.000 A 
ATOM      2  C   UNL     1       4.371   7.125  17.409  0.00  0.00    +0.000 A 
ATOM      3  C   UNL     1       3.131   7.695  17.724  0.00  0.00    +0.000 A 
ATOM      4  C   UNL     1       2.073   6.886  18.106  0.00  0.00    +0.000 A 
ATOM      5  C   UNL     1       2.264   5.511  18.197  0.00  0.00    +0.000 A 
ATOM      6  C   UNL     1       3.528   4.947  17.939  0.00  0.00    +0.000 A 
ENDROOT
BRANCH   1  13
ATOM      7  C   UNL     1       7.510   5.512  19.319  0.00  0.00    +0.000 C 
ATOM      8  C   UNL     1       7.176   5.125  17.929  0.00  0.00    +0.000 A 
ATOM      9  N   UNL     1       8.149   4.562  17.200  0.00  0.00    +0.000 NA
ATOM     10  O   UNL     1       7.585   4.230  15.999  0.00  0.00    +0.000 OA
ATOM     11  C   UNL     1       6.279   4.600  15.980  0.00  0.00    +0.000 A 
ATOM     12  C   UNL     1       5.584   4.250  14.721  0.00  0.00    +0.000 C 
ATOM     13  C   UNL     1       5.950   5.218  17.181  0.00  0.00    +0.000 A 
ENDBRANCH   1  13
BRANCH   6  14
ATOM     14  C   UNL     1       3.635   3.500  18.221  0.00  0.00    +0.000 C 
ATOM     15  O   UNL     1       3.059   2.662  17.543  0.00  0.00    +0.000 OA
ENDBRANCH   6  14
TORSDOF 2
ENDMDL
MODEL 9
REMARK VINA RESULT:      -6.5      1.944      2.639
REMARK  Name = 
REMARK  4 active torsions:
REMARK  status: ('A' for Active; 'I' for Inactive)
REMARK    1  A    between atoms: C_1  and  C_2
REMARK    2  A    between atoms: C_5  and  C_6
REMARK    3  A    between atoms: C_7  and  C_8
REMARK    4  A    between atoms: C_13  and  C_14
REMARK                            x       y       z     vdW  Elec       q    Type
REMARK                         _______ _______ _______ _____ _____    ______ ____
ROOT
ATOM      1  C   UNL     1       4.503   5.651  17.136  0.00  0.00    +0.000 A 
ATOM      2  C   UNL     1       3.969   6.918  17.449  0.00  0.00    +0.000 A 
ATOM      3  C   UNL     1       2.796   7.071  18.199  0.00  0.00    +0.000 A 
ATOM      4  C   UNL     1       2.083   5.956  18.608  0.00  0.00    +0.000 A 
ATOM      5  C   UNL     1       2.559   4.688  18.289  0.00  0.00    +0.000 A 
ATOM      6  C   UNL     1       3.771   4.536  17.589  0.00  0.00    +0.000 A 
ENDROOT
BRANCH   1  13
ATOM      7  C   UNL     1       5.206   4.261  14.097  0.00  0.00    +0.000 C 
ATOM      8  C   UNL     1       6.053   4.983  15.074  0.00  0.00    +0.000 A 
ATOM      9  N   UNL     1       7.340   5.166  14.750  0.00  0.00    +0.000 NA
ATOM     10  O   UNL     1       7.888   5.909  15.758  0.00  0.00    +0.000 OA
ATOM     11  C   UNL     1       6.951   6.169  16.706  0.00  0.00    +0.000 A 
ATOM     12  C   UNL     1       7.457   6.997  17.825  0.00  0.00    +0.000 C 
ATOM     13  C   UNL     1       5.747   5.572  16.351  0.00  0.00    +0.000 A 
ENDBRANCH   1  13
BRANCH   6  14
ATOM     14  C   UNL     1       4.239   3.141  17.450  0.00  0.00    +0.000 C 
ATOM     15  O   UNL     1       3.635   2.200  17.943  0.00  0.00    +0.000 OA
ENDBRANCH   6  14
TORSDOF 2
ENDMDL
