MODEL 1
REMARK VINA RESULT:      -7.8      0.000      0.000
REMARK  Name = 
REMARK  4 active torsions:
REMARK  status: ('A' for Active; 'I' for Inactive)
REMARK    1  A    between atoms: C_1  and  N_2
REMARK    2  A    between atoms: C_3  and  C_4
REMARK    3  A    between atoms: N_6  and  C_7
REMARK    4  A    between atoms: C_16  and  O_17
REMARK                            x       y       z     vdW  Elec       q    Type
REMARK                         _______ _______ _______ _____ _____    ______ ____
ROOT
ATOM      1  C   UNL     1       3.958   6.509  17.782  0.00  0.00    +0.000 C 
ATOM      2  N   UNL     1       4.112   5.179  18.337  0.00  0.00    +0.000 N 
ATOM      3  C   UNL     1       5.005   4.201  17.927  0.00  0.00    +0.000 A 
ATOM      4  C   UNL     1       4.769   3.099  18.739  0.00  0.00    +0.000 A 
ATOM      5  C   UNL     1       3.711   3.396  19.630  0.00  0.00    +0.000 A 
ATOM      6  C   UNL     1       3.063   2.667  20.645  0.00  0.00    +0.000 A 
ATOM      7  C   UNL     1       2.023   3.274  21.350  0.00  0.00    +0.000 A 
ATOM      8  C   UNL     1       1.628   4.579  21.078  0.00  0.00    +0.000 A 
ATOM      9  C   UNL     1       2.267   5.318  20.081  0.00  0.00    +0.000 A 
ATOM     10  C   UNL     1       3.309   4.705  19.364  0.00  0.00    +0.000 A 
ENDROOT
BRANCH   3  11
ATOM     11  C   UNL     1       6.005   4.339  16.878  0.00  0.00    +0.000 C 
ATOM     12  O   UNL     1       7.174   4.619  17.125  0.00  0.00    +0.000 OA
ATOM     13  N   UNL     1       5.483   4.175  15.603  0.00  0.00    +0.000 N 
ATOM     14  H   UNL     1       4.475   4.138  15.538  0.00  0.00    +0.000 HD
BRANCH  13  15
ATOM     15  C   UNL     1       6.183   4.271  14.383  0.00  0.00    +0.000 A 
ATOM     16  C   UNL     1       7.240   5.160  14.171  0.00  0.00    +0.000 A 
ATOM     17  C   UNL     1       7.838   5.264  12.912  0.00  0.00    +0.000 A 
ATOM     18  C   UNL     1       7.389   4.474  11.857  0.00  0.00    +0.000 A 
ATOM     19  C   UNL     1       6.368   3.551  12.069  0.00  0.00    +0.000 A 
ATOM     20  C   UNL     1       5.778   3.440  13.332  0.00  0.00    +0.000 A 
ENDBRANCH  13  15
ENDBRANCH   3  11
BRANCH   7  21
ATOM     21  O   UNL     1       1.358   2.607  22.337  0.00  0.00    +0.000 OA
ATOM     22  H   UNL     1       1.943   1.914  22.687  0.00  0.00    +0.000 HD
ENDBRANCH   7  21
TORSDOF 3
ENDMDL
MODEL 2
REMARK VINA RESULT:      -7.4      0.928      1.423
REMARK  Name = 
REMARK  4 active torsions:
REMARK  status: ('A' for Active; 'I' for Inactive)
REMARK    1  A    between atoms: C_1  and  N_2
REMARK    2  A    between atoms: C_3  and  C_4
REMARK    3  A    between atoms: N_6  and  C_7
REMARK    4  A    between atoms: C_16  and  O_17
REMARK                            x       y       z     vdW  Elec       q    Type
REMARK                         _______ _______ _______ _____ _____    ______ ____
ROOT
ATOM      1  C   UNL     1       3.155   7.122  17.954  0.00  0.00    +0.000 C 
ATOM      2  N   UNL     1       3.462   5.726  18.195  0.00  0.00    +0.000 N 
ATOM      3  C   UNL     1       4.244   4.895  17.408  0.00  0.00    +0.000 A 
ATOM      4  C   UNL     1       4.232   3.653  18.029  0.00  0.00    +0.000 A 
ATOM      5  C   UNL     1       3.419   3.719  19.185  0.00  0.00    +0.000 A 
ATOM      6  C   UNL     1       3.050   2.781  20.167  0.00  0.00    +0.000 A 
ATOM      7  C   UNL     1       2.204   3.186  21.200  0.00  0.00    +0.000 A 
ATOM      8  C   UNL     1       1.732   4.490  21.281  0.00  0.00    +0.000 A 
ATOM      9  C   UNL     1       2.096   5.435  20.319  0.00  0.00    +0.000 A 
ATOM     10  C   UNL     1       2.942   5.027  19.274  0.00  0.00    +0.000 A 
ENDROOT
BRANCH   3  11
ATOM     11  C   UNL     1       4.956   5.282  16.198  0.00  0.00    +0.000 C 
ATOM     12  O   UNL     1       5.172   6.456  15.916  0.00  0.00    +0.000 OA
ATOM     13  N   UNL     1       5.302   4.200  15.402  0.00  0.00    +0.000 N 
ATOM     14  H   UNL     1       4.896   3.311  15.660  0.00  0.00    +0.000 HD
BRANCH  13  15
ATOM     15  C   UNL     1       5.972   4.242  14.161  0.00  0.00    +0.000 A 
ATOM     16  C   UNL     1       5.567   3.509  13.043  0.00  0.00    +0.000 A 
ATOM     17  C   UNL     1       6.323   3.532  11.869  0.00  0.00    +0.000 A 
ATOM     18  C   UNL     1       7.486   4.295  11.798  0.00  0.00    +0.000 A 
ATOM     19  C   UNL     1       7.873   5.066  12.891  0.00  0.00    +0.000 A 
ATOM     20  C   UNL     1       7.110   5.052  14.063  0.00  0.00    +0.000 A 
ENDBRANCH  13  15
ENDBRANCH   3  11
BRANCH   7  21
ATOM     21  O   UNL     1       1.810   2.312  22.171  0.00  0.00    +0.000 OA
ATOM     22  H   UNL     1       2.283   1.473  22.039  0.00  0.00    +0.000 HD
ENDBRANCH   7  21
TORSDOF 3
ENDMDL
MODEL 3
REMARK VINA RESULT:      -7.3      3.859      5.175
REMARK  Name = 
REMARK  4 active torsions:
REMARK  status: ('A' for Active; 'I' for Inactive)
REMARK    1  A    between atoms: C_1  and  N_2
REMARK    2  A    between atoms: C_3  and  C_4
REMARK    3  A    between atoms: N_6  and  C_7
REMARK    4  A    between atoms: C_16  and  O_17
REMARK                            x       y       z     vdW  Elec       q    Type
REMARK                         _______ _______ _______ _____ _____    ______ ____
ROOT
ATOM      1  C   UNL     1       1.921   9.237  17.566  0.00  0.00    +0.000 C 
ATOM      2  N   UNL     1       1.778   8.635  18.877  0.00  0.00    +0.000 N 
ATOM      3  C   UNL     1       2.200   7.373  19.267  0.00  0.00    +0.000 A 
ATOM      4  C   UNL     1       1.830   7.236  20.598  0.00  0.00    +0.000 A 
ATOM      5  C   UNL     1       1.156   8.409  21.015  0.00  0.00    +0.000 A 
ATOM      6  C   UNL     1       0.570   8.812  22.230  0.00  0.00    +0.000 A 
ATOM      7  C   UNL     1      -0.034  10.068  22.302  0.00  0.00    +0.000 A 
ATOM      8  C   UNL     1      -0.055  10.925  21.209  0.00  0.00    +0.000 A 
ATOM      9  C   UNL     1       0.531  10.544  20.000  0.00  0.00    +0.000 A 
ATOM     10  C   UNL     1       1.131   9.276  19.923  0.00  0.00    +0.000 A 
ENDROOT
BRANCH   3  11
ATOM     11  C   UNL     1       2.919   6.415  18.437  0.00  0.00    +0.000 C 
ATOM     12  O   UNL     1       2.427   5.340  18.108  0.00  0.00    +0.000 OA
ATOM     13  N   UNL     1       4.205   6.828  18.120  0.00  0.00    +0.000 N 
ATOM     14  H   UNL     1       4.543   7.643  18.614  0.00  0.00    +0.000 HD
BRANCH  13  15
ATOM     15  C   UNL     1       5.157   6.120  17.358  0.00  0.00    +0.000 A 
ATOM     16  C   UNL     1       5.120   6.038  15.964  0.00  0.00    +0.000 A 
ATOM     17  C   UNL     1       6.046   5.252  15.275  0.00  0.00    +0.000 A 
ATOM     18  C   UNL     1       7.024   4.547  15.973  0.00  0.00    +0.000 A 
ATOM     19  C   UNL     1       7.099   4.660  17.359  0.00  0.00    +0.000 A 
ATOM     20  C   UNL     1       6.179   5.456  18.048  0.00  0.00    +0.000 A 
ENDBRANCH  13  15
ENDBRANCH   3  11
BRANCH   7  21
ATOM     21  O   UNL     1      -0.624  10.500  23.454  0.00  0.00    +0.000 OA
ATOM     22  H   UNL     1      -1.279  11.181  23.226  0.00  0.00    +0.000 HD
ENDBRANCH   7  21
TORSDOF 3
ENDMDL
MODEL 4
REMARK VINA RESULT:      -7.2      4.434      6.560
REMARK  Name = 
REMARK  4 active torsions:
REMARK  status: ('A' for Active; 'I' for Inactive)
REMARK    1  A    between atoms: C_1  and  N_2
REMARK    2  A    between atoms: C_3  and  C_4
REMARK    3  A    between atoms: N_6  and  C_7
REMARK    4  A    between atoms: C_16  and  O_17
REMARK                            x       y       z     vdW  Elec       q    Type
REMARK                         _______ _______ _______ _____ _____    ______ ____
ROOT
ATOM      1  C   UNL     1       1.575   9.312  17.830  0.00  0.00    +0.000 C 
ATOM      2  N   UNL     1       1.420   8.940  19.223  0.00  0.00    +0.000 N 
ATOM      3  C   UNL     1       1.842   7.766  19.825  0.00  0.00    +0.000 A 
ATOM      4  C   UNL     1       1.457   7.855  21.156  0.00  0.00    +0.000 A 
ATOM      5  C   UNL     1       0.774   9.078  21.361  0.00  0.00    +0.000 A 
ATOM      6  C   UNL     1       0.172   9.677  22.484  0.00  0.00    +0.000 A 
ATOM      7  C   UNL     1      -0.439  10.923  22.335  0.00  0.00    +0.000 A 
ATOM      8  C   UNL     1      -0.451  11.582  21.111  0.00  0.00    +0.000 A 
ATOM      9  C   UNL     1       0.150  11.005  19.991  0.00  0.00    +0.000 A 
ATOM     10  C   UNL     1       0.758   9.746  20.137  0.00  0.00    +0.000 A 
ENDROOT
BRANCH   3  11
ATOM     11  C   UNL     1       2.576   6.686  19.179  0.00  0.00    +0.000 C 
ATOM     12  O   UNL     1       3.480   6.902  18.377  0.00  0.00    +0.000 OA
ATOM     13  N   UNL     1       2.108   5.427  19.526  0.00  0.00    +0.000 N 
ATOM     14  H   UNL     1       1.240   5.404  20.044  0.00  0.00    +0.000 HD
BRANCH  13  15
ATOM     15  C   UNL     1       2.586   4.187  19.055  0.00  0.00    +0.000 A 
ATOM     16  C   UNL     1       2.136   3.587  17.877  0.00  0.00    +0.000 A 
ATOM     17  C   UNL     1       2.591   2.318  17.509  0.00  0.00    +0.000 A 
ATOM     18  C   UNL     1       3.507   1.642  18.312  0.00  0.00    +0.000 A 
ATOM     19  C   UNL     1       3.998   2.252  19.463  0.00  0.00    +0.000 A 
ATOM     20  C   UNL     1       3.551   3.526  19.825  0.00  0.00    +0.000 A 
ENDBRANCH  13  15
ENDBRANCH   3  11
BRANCH   7  21
ATOM     21  O   UNL     1      -1.044  11.541  23.390  0.00  0.00    +0.000 OA
ATOM     22  H   UNL     1      -0.660  11.191  24.211  0.00  0.00    +0.000 HD
ENDBRANCH   7  21
TORSDOF 3
ENDMDL
MODEL 5
REMARK VINA RESULT:      -7.2      3.879      5.160
REMARK  Name = 
REMARK  4 active torsions:
REMARK  status: ('A' for Active; 'I' for Inactive)
REMARK    1  A    between atoms: C_1  and  N_2
REMARK    2  A    between atoms: C_3  and  C_4
REMARK    3  A    between atoms: N_6  and  C_7
REMARK    4  A    between atoms: C_16  and  O_17
REMARK                            x       y       z     vdW  Elec       q    Type
REMARK                         _______ _______ _______ _____ _____    ______ ____
ROOT
ATOM      1  C   UNL     1       1.847   9.146  17.553  0.00  0.00    +0.000 C 
ATOM      2  N   UNL     1       1.726   8.587  18.885  0.00  0.00    +0.000 N 
ATOM      3  C   UNL     1       2.160   7.341  19.309  0.00  0.00    +0.000 A 
ATOM      4  C   UNL     1       1.810   7.247  20.650  0.00  0.00    +0.000 A 
ATOM      5  C   UNL     1       1.137   8.430  21.038  0.00  0.00    +0.000 A 
ATOM      6  C   UNL     1       0.567   8.869  22.248  0.00  0.00    +0.000 A 
ATOM      7  C   UNL     1      -0.041  10.124  22.288  0.00  0.00    +0.000 A 
ATOM      8  C   UNL     1      -0.083  10.945  21.167  0.00  0.00    +0.000 A 
ATOM      9  C   UNL     1       0.487  10.527  19.963  0.00  0.00    +0.000 A 
ATOM     10  C   UNL     1       1.092   9.260  19.918  0.00  0.00    +0.000 A 
ENDROOT
BRANCH   3  11
ATOM     11  C   UNL     1       2.871   6.359  18.501  0.00  0.00    +0.000 C 
ATOM     12  O   UNL     1       2.350   5.306  18.148  0.00  0.00    +0.000 OA
ATOM     13  N   UNL     1       4.183   6.723  18.234  0.00  0.00    +0.000 N 
ATOM     14  H   UNL     1       4.535   7.521  18.745  0.00  0.00    +0.000 HD
BRANCH  13  15
ATOM     15  C   UNL     1       5.134   5.981  17.504  0.00  0.00    +0.000 A 
ATOM     16  C   UNL     1       6.198   5.298  18.098  0.00  0.00    +0.000 A 
ATOM     17  C   UNL     1       7.153   4.650  17.311  0.00  0.00    +0.000 A 
ATOM     18  C   UNL     1       7.048   4.673  15.922  0.00  0.00    +0.000 A 
ATOM     19  C   UNL     1       5.966   5.311  15.321  0.00  0.00    +0.000 A 
ATOM     20  C   UNL     1       5.004   5.949  16.110  0.00  0.00    +0.000 A 
ENDBRANCH  13  15
ENDBRANCH   3  11
BRANCH   7  21
ATOM     21  O   UNL     1      -0.616  10.592  23.433  0.00  0.00    +0.000 OA
ATOM     22  H   UNL     1      -1.292  11.247  23.192  0.00  0.00    +0.000 HD
ENDBRANCH   7  21
TORSDOF 3
ENDMDL
MODEL 6
REMARK VINA RESULT:      -7.2      4.455      6.585
REMARK  Name = 
REMARK  4 active torsions:
REMARK  status: ('A' for Active; 'I' for Inactive)
REMARK    1  A    between atoms: C_1  and  N_2
REMARK    2  A    between atoms: C_3  and  C_4
REMARK    3  A    between atoms: N_6  and  C_7
REMARK    4  A    between atoms: C_16  and  O_17
REMARK                            x       y       z     vdW  Elec       q    Type
REMARK                         _______ _______ _______ _____ _____    ______ ____
ROOT
ATOM      1  C   UNL     1       1.512   9.218  17.897  0.00  0.00    +0.000 C 
ATOM      2  N   UNL     1       1.360   8.903  19.303  0.00  0.00    +0.000 N 
ATOM      3  C   UNL     1       1.789   7.756  19.953  0.00  0.00    +0.000 A 
ATOM      4  C   UNL     1       1.404   7.897  21.280  0.00  0.00    +0.000 A 
ATOM      5  C   UNL     1       0.716   9.124  21.436  0.00  0.00    +0.000 A 
ATOM      6  C   UNL     1       0.112   9.766  22.533  0.00  0.00    +0.000 A 
ATOM      7  C   UNL     1      -0.503  11.002  22.335  0.00  0.00    +0.000 A 
ATOM      8  C   UNL     1      -0.520  11.610  21.086  0.00  0.00    +0.000 A 
ATOM      9  C   UNL     1       0.083  10.991  19.989  0.00  0.00    +0.000 A 
ATOM     10  C   UNL     1       0.696   9.742  20.185  0.00  0.00    +0.000 A 
ENDROOT
BRANCH   3  11
ATOM     11  C   UNL     1       2.526   6.653  19.349  0.00  0.00    +0.000 C 
ATOM     12  O   UNL     1       3.462   6.841  18.579  0.00  0.00    +0.000 OA
ATOM     13  N   UNL     1       2.024   5.408  19.698  0.00  0.00    +0.000 N 
ATOM     14  H   UNL     1       1.137   5.408  20.184  0.00  0.00    +0.000 HD
BRANCH  13  15
ATOM     15  C   UNL     1       2.497   4.153  19.263  0.00  0.00    +0.000 A 
ATOM     16  C   UNL     1       3.452   3.409  19.959  0.00  0.00    +0.000 A 
ATOM     17  C   UNL     1       3.940   2.210  19.431  0.00  0.00    +0.000 A 
ATOM     18  C   UNL     1       3.469   1.741  18.206  0.00  0.00    +0.000 A 
ATOM     19  C   UNL     1       2.482   2.452  17.528  0.00  0.00    +0.000 A 
ATOM     20  C   UNL     1       1.987   3.646  18.062  0.00  0.00    +0.000 A 
ENDBRANCH  13  15
ENDBRANCH   3  11
BRANCH   7  21
ATOM     21  O   UNL     1      -1.110  11.660  23.365  0.00  0.00    +0.000 OA
ATOM     22  H   UNL     1      -0.554  12.416  23.615  0.00  0.00    +0.000 HD
ENDBRANCH   7  21
TORSDOF 3
ENDMDL
MODEL 7
REMARK VINA RESULT:      -7.2      3.285      8.099
REMARK  Name = 
REMARK  4 active torsions:
REMARK  status: ('A' for Active; 'I' for Inactive)
REMARK    1  A    between atoms: C_1  and  N_2
REMARK    2  A    between atoms: C_3  and  C_4
REMARK    3  A    between atoms: N_6  and  C_7
REMARK    4  A    between atoms: C_16  and  O_17
REMARK                            x       y       z     vdW  Elec       q    Type
REMARK                         _______ _______ _______ _____ _____    ______ ____
ROOT
ATOM      1  C   UNL     1       2.980   3.777  19.364  0.00  0.00    +0.000 C 
ATOM      2  N   UNL     1       3.410   4.937  18.609  0.00  0.00    +0.000 N 
ATOM      3  C   UNL     1       3.039   6.255  18.822  0.00  0.00    +0.000 A 
ATOM      4  C   UNL     1       3.686   7.000  17.845  0.00  0.00    +0.000 A 
ATOM      5  C   UNL     1       4.435   6.130  17.017  0.00  0.00    +0.000 A 
ATOM      6  C   UNL     1       5.259   6.329  15.893  0.00  0.00    +0.000 A 
ATOM      7  C   UNL     1       5.859   5.221  15.294  0.00  0.00    +0.000 A 
ATOM      8  C   UNL     1       5.668   3.937  15.791  0.00  0.00    +0.000 A 
ATOM      9  C   UNL     1       4.862   3.724  16.910  0.00  0.00    +0.000 A 
ATOM     10  C   UNL     1       4.249   4.838  17.510  0.00  0.00    +0.000 A 
ENDROOT
BRANCH   3  11
ATOM     11  C   UNL     1       2.173   6.741  19.887  0.00  0.00    +0.000 C 
ATOM     12  O   UNL     1       1.668   5.985  20.711  0.00  0.00    +0.000 OA
ATOM     13  N   UNL     1       1.951   8.109  19.827  0.00  0.00    +0.000 N 
ATOM     14  H   UNL     1       2.273   8.574  18.989  0.00  0.00    +0.000 HD
BRANCH  13  15
ATOM     15  C   UNL     1       1.144   8.875  20.693  0.00  0.00    +0.000 A 
ATOM     16  C   UNL     1       1.201   8.776  22.085  0.00  0.00    +0.000 A 
ATOM     17  C   UNL     1       0.316   9.503  22.885  0.00  0.00    +0.000 A 
ATOM     18  C   UNL     1      -0.628  10.343  22.300  0.00  0.00    +0.000 A 
ATOM     19  C   UNL     1      -0.662  10.485  20.915  0.00  0.00    +0.000 A 
ATOM     20  C   UNL     1       0.231   9.765  20.115  0.00  0.00    +0.000 A 
ENDBRANCH  13  15
ENDBRANCH   3  11
BRANCH   7  21
ATOM     21  O   UNL     1       6.659   5.361  14.198  0.00  0.00    +0.000 OA
ATOM     22  H   UNL     1       7.553   5.593  14.498  0.00  0.00    +0.000 HD
ENDBRANCH   7  21
TORSDOF 3
ENDMDL
MODEL 8
REMARK VINA RESULT:      -7.1      3.300      8.136
REMARK  Name = 
REMARK  4 active torsions:
REMARK  status: ('A' for Active; 'I' for Inactive)
REMARK    1  A    between atoms: C_1  and  N_2
REMARK    2  A    between atoms: C_3  and  C_4
REMARK    3  A    between atoms: N_6  and  C_7
REMARK    4  A    between atoms: C_16  and  O_17
REMARK                            x       y       z     vdW  Elec       q    Type
REMARK                         _______ _______ _______ _____ _____    ______ ____
ROOT
ATOM      1  C   UNL     1       2.923   3.794  19.353  0.00  0.00    +0.000 C 
ATOM      2  N   UNL     1       3.371   4.958  18.615  0.00  0.00    +0.000 N 
ATOM      3  C   UNL     1       2.994   6.275  18.824  0.00  0.00    +0.000 A 
ATOM      4  C   UNL     1       3.665   7.025  17.866  0.00  0.00    +0.000 A 
ATOM      5  C   UNL     1       4.435   6.159  17.054  0.00  0.00    +0.000 A 
ATOM      6  C   UNL     1       5.287   6.363  15.952  0.00  0.00    +0.000 A 
ATOM      7  C   UNL     1       5.902   5.258  15.364  0.00  0.00    +0.000 A 
ATOM      8  C   UNL     1       5.700   3.972  15.850  0.00  0.00    +0.000 A 
ATOM      9  C   UNL     1       4.866   3.754  16.947  0.00  0.00    +0.000 A 
ATOM     10  C   UNL     1       4.238   4.865  17.536  0.00  0.00    +0.000 A 
ENDROOT
BRANCH   3  11
ATOM     11  C   UNL     1       2.100   6.756  19.869  0.00  0.00    +0.000 C 
ATOM     12  O   UNL     1       1.587   5.998  20.686  0.00  0.00    +0.000 OA
ATOM     13  N   UNL     1       1.864   8.120  19.797  0.00  0.00    +0.000 N 
ATOM     14  H   UNL     1       2.197   8.585  18.963  0.00  0.00    +0.000 HD
BRANCH  13  15
ATOM     15  C   UNL     1       1.030   8.880  20.643  0.00  0.00    +0.000 A 
ATOM     16  C   UNL     1       0.081   9.791  20.173  0.00  0.00    +0.000 A 
ATOM     17  C   UNL     1      -0.655  10.573  21.066  0.00  0.00    +0.000 A 
ATOM     18  C   UNL     1      -0.455  10.445  22.438  0.00  0.00    +0.000 A 
ATOM     19  C   UNL     1       0.454   9.507  22.920  0.00  0.00    +0.000 A 
ATOM     20  C   UNL     1       1.183   8.716  22.025  0.00  0.00    +0.000 A 
ENDBRANCH  13  15
ENDBRANCH   3  11
BRANCH   7  21
ATOM     21  O   UNL     1       6.730   5.403  14.288  0.00  0.00    +0.000 OA
ATOM     22  H   UNL     1       6.966   6.342  14.208  0.00  0.00    +0.000 HD
ENDBRANCH   7  21
TORSDOF 3
ENDMDL
MODEL 9
REMARK VINA RESULT:      -7.1      1.573      2.404
REMARK  Name = 
REMARK  4 active torsions:
REMARK  status: ('A' for Active; 'I' for Inactive)
REMARK    1  A    between atoms: C_1  and  N_2
REMARK    2  A    between atoms: C_3  and  C_4
REMARK    3  A    between atoms: N_6  and  C_7
REMARK    4  A    between atoms: C_16  and  O_17
REMARK                            x       y       z     vdW  Elec       q    Type
REMARK                         _______ _______ _______ _____ _____    ______ ____
ROOT
ATOM      1  C   UNL     1       4.217   3.001  18.900  0.00  0.00    +0.000 C 
ATOM      2  N   UNL     1       3.991   4.408  18.635  0.00  0.00    +0.000 N 
ATOM      3  C   UNL     1       4.623   5.190  17.681  0.00  0.00    +0.000 A 
ATOM      4  C   UNL     1       4.094   6.466  17.815  0.00  0.00    +0.000 A 
ATOM      5  C   UNL     1       3.153   6.470  18.873  0.00  0.00    +0.000 A 
ATOM      6  C   UNL     1       2.336   7.465  19.442  0.00  0.00    +0.000 A 
ATOM      7  C   UNL     1       1.505   7.124  20.509  0.00  0.00    +0.000 A 
ATOM      8  C   UNL     1       1.460   5.827  21.006  0.00  0.00    +0.000 A 
ATOM      9  C   UNL     1       2.257   4.827  20.447  0.00  0.00    +0.000 A 
ATOM     10  C   UNL     1       3.102   5.171  19.378  0.00  0.00    +0.000 A 
ENDROOT
BRANCH   3  11
ATOM     11  C   UNL     1       5.614   4.731  16.716  0.00  0.00    +0.000 C 
ATOM     12  O   UNL     1       6.718   4.321  17.062  0.00  0.00    +0.000 OA
ATOM     13  N   UNL     1       5.193   4.861  15.401  0.00  0.00    +0.000 N 
ATOM     14  H   UNL     1       4.343   5.388  15.257  0.00  0.00    +0.000 HD
BRANCH  13  15
ATOM     15  C   UNL     1       5.926   4.531  14.242  0.00  0.00    +0.000 A 
ATOM     16  C   UNL     1       7.143   5.128  13.905  0.00  0.00    +0.000 A 
ATOM     17  C   UNL     1       7.777   4.816  12.700  0.00  0.00    +0.000 A 
ATOM     18  C   UNL     1       7.204   3.896  11.825  0.00  0.00    +0.000 A 
ATOM     19  C   UNL     1       6.015   3.260  12.173  0.00  0.00    +0.000 A 
ATOM     20  C   UNL     1       5.386   3.564  13.384  0.00  0.00    +0.000 A 
ENDBRANCH  13  15
ENDBRANCH   3  11
BRANCH   7  21
ATOM     21  O   UNL     1       0.701   8.054  21.101  0.00  0.00    +0.000 OA
ATOM     22  H   UNL     1       0.339   8.632  20.408  0.00  0.00    +0.000 HD
ENDBRANCH   7  21
TORSDOF 3
ENDMDL
