MODEL 1
REMARK VINA RESULT:      -8.0      0.000      0.000
REMARK  Name = 
REMARK  10 active torsions:
REMARK  status: ('A' for Active; 'I' for Inactive)
REMARK    1  A    between atoms: C_1  and  C_2
REMARK    2  A    between atoms: C_2  and  O_3
REMARK    3  A    between atoms: O_3  and  C_4
REMARK    4  A    between atoms: C_7  and  C_8
REMARK    5  A    between atoms: N_10  and  C_11
REMARK    6  A    between atoms: C_11  and  N_13
REMARK    7  A    between atoms: N_13  and  C_14
REMARK    8  A    between atoms: C_19  and  N_20
REMARK    9  A    between atoms: C_23  and  C_24
REMARK   10  A    between atoms: C_28  and  N_29
REMARK                            x       y       z     vdW  Elec       q    Type
REMARK                         _______ _______ _______ _____ _____    ______ ____
ROOT
ATOM      1  C   UNL     1       1.411  10.630  18.445  0.00  0.00    +0.000 C 
ATOM      2  S   UNL     1       2.184  12.115  18.362  0.00  0.00    +0.000 S 
ENDROOT
BRANCH   1   5
ATOM      3  C   UNL     1       2.182   8.251  18.698  0.00  0.00    +0.000 C 
ATOM      4  O   UNL     1       1.803   8.074  19.859  0.00  0.00    +0.000 OA
ATOM      5  N   UNL     1       1.945   9.412  17.973  0.00  0.00    +0.000 N 
ATOM      6  H   UNL     1       2.323   9.485  17.040  0.00  0.00    +0.000 HD
BRANCH   3  10
ATOM      7  C   UNL     1       4.467   4.987  17.064  0.00  0.00    +0.000 A 
ATOM      8  C   UNL     1       4.779   6.316  16.786  0.00  0.00    +0.000 A 
ATOM      9  C   UNL     1       3.971   7.339  17.276  0.00  0.00    +0.000 A 
ATOM     10  C   UNL     1       2.811   7.074  18.033  0.00  0.00    +0.000 A 
ATOM     11  C   UNL     1       2.415   5.746  18.197  0.00  0.00    +0.000 A 
ATOM     12  C   UNL     1       3.255   4.721  17.709  0.00  0.00    +0.000 A 
BRANCH  12  13
ATOM     13  N   UNL     1       2.867   3.349  17.990  0.00  0.00    +0.000 N 
ATOM     14  O   UNL     1       3.254   2.841  19.048  0.00  0.00    +0.000 OA
ATOM     15  O   UNL     1       2.239   2.760  17.094  0.00  0.00    +0.000 OA
ENDBRANCH  12  13
BRANCH   7  16
ATOM     16  O   UNL     1       5.324   3.958  16.779  0.00  0.00    +0.000 OA
BRANCH  16  18
ATOM     17  C   UNL     1       6.190   3.884  14.537  0.00  0.00    +0.000 C 
ATOM     18  C   UNL     1       6.448   4.324  15.965  0.00  0.00    +0.000 C 
ENDBRANCH  16  18
ENDBRANCH   7  16
ENDBRANCH   3  10
ENDBRANCH   1   5
BRANCH   1  19
ATOM     19  N   UNL     1       0.177  10.388  19.056  0.00  0.00    +0.000 N 
ATOM     20  H   UNL     1       0.228  10.276  20.062  0.00  0.00    +0.000 HD
BRANCH  19  21
ATOM     21  C   UNL     1      -1.144  10.675  18.612  0.00  0.00    +0.000 A 
ATOM     22  C   UNL     1      -1.663  10.055  17.464  0.00  0.00    +0.000 A 
ATOM     23  C   UNL     1      -2.919  10.380  16.966  0.00  0.00    +0.000 A 
ATOM     24  C   UNL     1      -3.715  11.274  17.656  0.00  0.00    +0.000 A 
ATOM     25  C   UNL     1      -3.247  11.849  18.841  0.00  0.00    +0.000 A 
ATOM     26  C   UNL     1      -1.958  11.585  19.355  0.00  0.00    +0.000 A 
BRANCH  26  27
ATOM     27  N   UNL     1      -1.502  12.246  20.504  0.00  0.00    +0.000 N 
ATOM     28  C   UNL     1      -1.091  11.463  21.684  0.00  0.00    +0.000 C 
ATOM     29  C   UNL     1      -1.471  12.257  22.932  0.00  0.00    +0.000 C 
ATOM     30  C   UNL     1      -0.907  13.689  22.913  0.00  0.00    +0.000 C 
ATOM     31  C   UNL     1      -1.541  14.505  24.040  0.00  0.00    +0.000 C 
ATOM     32  C   UNL     1      -1.136  14.381  21.556  0.00  0.00    +0.000 C 
ATOM     33  C   UNL     1      -0.726  13.487  20.380  0.00  0.00    +0.000 C 
ENDBRANCH  26  27
ENDBRANCH  19  21
ENDBRANCH   1  19
TORSDOF 8
ENDMDL
MODEL 2
REMARK VINA RESULT:      -7.7      3.140      9.783
REMARK  Name = 
REMARK  10 active torsions:
REMARK  status: ('A' for Active; 'I' for Inactive)
REMARK    1  A    between atoms: C_1  and  C_2
REMARK    2  A    between atoms: C_2  and  O_3
REMARK    3  A    between atoms: O_3  and  C_4
REMARK    4  A    between atoms: C_7  and  C_8
REMARK    5  A    between atoms: N_10  and  C_11
REMARK    6  A    between atoms: C_11  and  N_13
REMARK    7  A    between atoms: N_13  and  C_14
REMARK    8  A    between atoms: C_19  and  N_20
REMARK    9  A    between atoms: C_23  and  C_24
REMARK   10  A    between atoms: C_28  and  N_29
REMARK                            x       y       z     vdW  Elec       q    Type
REMARK                         _______ _______ _______ _____ _____    ______ ____
ROOT
ATOM      1  C   UNL     1       2.445   7.450  19.297  0.00  0.00    +0.000 C 
ATOM      2  S   UNL     1       3.098   7.815  17.797  0.00  0.00    +0.000 S 
ENDROOT
BRANCH   1   5
ATOM      3  C   UNL     1       0.823   9.358  19.510  0.00  0.00    +0.000 C 
ATOM      4  O   UNL     1       0.847   9.731  18.334  0.00  0.00    +0.000 OA
ATOM      5  N   UNL     1       1.499   8.241  19.983  0.00  0.00    +0.000 N 
ATOM      6  H   UNL     1       1.453   8.029  20.970  0.00  0.00    +0.000 HD
BRANCH   3  10
ATOM      7  C   UNL     1      -1.391  11.654  22.404  0.00  0.00    +0.000 A 
ATOM      8  C   UNL     1      -0.722  10.482  22.750  0.00  0.00    +0.000 A 
ATOM      9  C   UNL     1      -0.077   9.732  21.769  0.00  0.00    +0.000 A 
ATOM     10  C   UNL     1      -0.103  10.105  20.410  0.00  0.00    +0.000 A 
ATOM     11  C   UNL     1      -0.886  11.197  20.036  0.00  0.00    +0.000 A 
ATOM     12  C   UNL     1      -1.518  11.957  21.045  0.00  0.00    +0.000 A 
BRANCH  12  13
ATOM     13  N   UNL     1      -2.239  13.150  20.630  0.00  0.00    +0.000 N 
ATOM     14  O   UNL     1      -1.622  14.220  20.601  0.00  0.00    +0.000 OA
ATOM     15  O   UNL     1      -3.455  13.011  20.416  0.00  0.00    +0.000 OA
ENDBRANCH  12  13
BRANCH   7  16
ATOM     16  O   UNL     1      -1.870  12.528  23.342  0.00  0.00    +0.000 OA
BRANCH  16  18
ATOM     17  C   UNL     1      -3.958  13.527  23.993  0.00  0.00    +0.000 C 
ATOM     18  C   UNL     1      -3.190  12.230  23.819  0.00  0.00    +0.000 C 
ENDBRANCH  16  18
ENDBRANCH   7  16
ENDBRANCH   3  10
ENDBRANCH   1   5
BRANCH   1  19
ATOM     19  N   UNL     1       2.691   6.285  20.029  0.00  0.00    +0.000 N 
ATOM     20  H   UNL     1       2.878   6.445  21.012  0.00  0.00    +0.000 HD
BRANCH  19  21
ATOM     21  C   UNL     1       2.331   4.934  19.762  0.00  0.00    +0.000 A 
ATOM     22  C   UNL     1       1.116   4.411  20.233  0.00  0.00    +0.000 A 
ATOM     23  C   UNL     1       0.781   3.075  20.055  0.00  0.00    +0.000 A 
ATOM     24  C   UNL     1       1.621   2.253  19.329  0.00  0.00    +0.000 A 
ATOM     25  C   UNL     1       2.802   2.770  18.789  0.00  0.00    +0.000 A 
ATOM     26  C   UNL     1       3.205   4.109  18.989  0.00  0.00    +0.000 A 
BRANCH  26  27
ATOM     27  N   UNL     1       4.436   4.561  18.495  0.00  0.00    +0.000 N 
ATOM     28  C   UNL     1       5.645   4.452  19.333  0.00  0.00    +0.000 C 
ATOM     29  C   UNL     1       6.532   5.660  19.037  0.00  0.00    +0.000 C 
ATOM     30  C   UNL     1       6.833   5.816  17.535  0.00  0.00    +0.000 C 
ATOM     31  C   UNL     1       7.487   7.174  17.281  0.00  0.00    +0.000 C 
ATOM     32  C   UNL     1       5.565   5.661  16.675  0.00  0.00    +0.000 C 
ATOM     33  C   UNL     1       4.753   4.422  17.068  0.00  0.00    +0.000 C 
ENDBRANCH  26  27
ENDBRANCH  19  21
ENDBRANCH   1  19
TORSDOF 8
ENDMDL
MODEL 3
REMARK VINA RESULT:      -7.7      3.255      9.780
REMARK  Name = 
REMARK  10 active torsions:
REMARK  status: ('A' for Active; 'I' for Inactive)
REMARK    1  A    between atoms: C_1  and  C_2
REMARK    2  A    between atoms: C_2  and  O_3
REMARK    3  A    between atoms: O_3  and  C_4
REMARK    4  A    between atoms: C_7  and  C_8
REMARK    5  A    between atoms: N_10  and  C_11
REMARK    6  A    between atoms: C_11  and  N_13
REMARK    7  A    between atoms: N_13  and  C_14
REMARK    8  A    between atoms: C_19  and  N_20
REMARK    9  A    between atoms: C_23  and  C_24
REMARK   10  A    between atoms: C_28  and  N_29
REMARK                            x       y       z     vdW  Elec       q    Type
REMARK                         _______ _______ _______ _____ _____    ______ ____
ROOT
ATOM      1  C   UNL     1       2.811   6.912  18.263  0.00  0.00    +0.000 C 
ATOM      2  S   UNL     1       4.162   7.302  17.352  0.00  0.00    +0.000 S 
ENDROOT
BRANCH   1   5
ATOM      3  C   UNL     1       1.611   9.083  18.669  0.00  0.00    +0.000 C 
ATOM      4  O   UNL     1       1.666   9.523  17.517  0.00  0.00    +0.000 OA
ATOM      5  N   UNL     1       2.067   7.825  19.041  0.00  0.00    +0.000 N 
ATOM      6  H   UNL     1       2.015   7.560  20.014  0.00  0.00    +0.000 HD
BRANCH   3  10
ATOM      7  C   UNL     1      -0.202  11.256  21.915  0.00  0.00    +0.000 A 
ATOM      8  C   UNL     1      -0.428   9.894  21.723  0.00  0.00    +0.000 A 
ATOM      9  C   UNL     1       0.121   9.245  20.620  0.00  0.00    +0.000 A 
ATOM     10  C   UNL     1       0.885   9.934  19.655  0.00  0.00    +0.000 A 
ATOM     11  C   UNL     1       0.998  11.320  19.763  0.00  0.00    +0.000 A 
ATOM     12  C   UNL     1       0.451  11.959  20.898  0.00  0.00    +0.000 A 
BRANCH  12  13
ATOM     13  N   UNL     1       0.679  13.389  21.034  0.00  0.00    +0.000 N 
ATOM     14  O   UNL     1       1.699  13.761  21.623  0.00  0.00    +0.000 OA
ATOM     15  O   UNL     1      -0.224  14.132  20.615  0.00  0.00    +0.000 OA
ENDBRANCH  12  13
BRANCH   7  16
ATOM     16  O   UNL     1      -0.547  11.900  23.073  0.00  0.00    +0.000 OA
BRANCH  16  18
ATOM     17  C   UNL     1      -2.109  13.663  23.557  0.00  0.00    +0.000 C 
ATOM     18  C   UNL     1      -1.945  12.198  23.198  0.00  0.00    +0.000 C 
ENDBRANCH  16  18
ENDBRANCH   7  16
ENDBRANCH   3  10
ENDBRANCH   1   5
BRANCH   1  19
ATOM     19  N   UNL     1       2.200   5.656  18.315  0.00  0.00    +0.000 N 
ATOM     20  H   UNL     1       1.923   5.293  17.410  0.00  0.00    +0.000 HD
BRANCH  19  21
ATOM     21  C   UNL     1       2.267   4.637  19.306  0.00  0.00    +0.000 A 
ATOM     22  C   UNL     1       1.241   4.494  20.254  0.00  0.00    +0.000 A 
ATOM     23  C   UNL     1       1.323   3.560  21.280  0.00  0.00    +0.000 A 
ATOM     24  C   UNL     1       2.398   2.694  21.328  0.00  0.00    +0.000 A 
ATOM     25  C   UNL     1       3.396   2.770  20.352  0.00  0.00    +0.000 A 
ATOM     26  C   UNL     1       3.377   3.737  19.322  0.00  0.00    +0.000 A 
BRANCH  26  27
ATOM     27  N   UNL     1       4.440   3.827  18.412  0.00  0.00    +0.000 N 
ATOM     28  C   UNL     1       5.818   3.990  18.912  0.00  0.00    +0.000 C 
ATOM     29  C   UNL     1       6.575   4.872  17.921  0.00  0.00    +0.000 C 
ATOM     30  C   UNL     1       6.499   4.338  16.479  0.00  0.00    +0.000 C 
ATOM     31  C   UNL     1       7.036   5.394  15.512  0.00  0.00    +0.000 C 
ATOM     32  C   UNL     1       5.065   3.934  16.090  0.00  0.00    +0.000 C 
ATOM     33  C   UNL     1       4.405   3.059  17.162  0.00  0.00    +0.000 C 
ENDBRANCH  26  27
ENDBRANCH  19  21
ENDBRANCH   1  19
TORSDOF 8
ENDMDL
MODEL 4
REMARK VINA RESULT:      -7.6      1.868      2.951
REMARK  Name = 
REMARK  10 active torsions:
REMARK  status: ('A' for Active; 'I' for Inactive)
REMARK    1  A    between atoms: C_1  and  C_2
REMARK    2  A    between atoms: C_2  and  O_3
REMARK    3  A    between atoms: O_3  and  C_4
REMARK    4  A    between atoms: C_7  and  C_8
REMARK    5  A    between atoms: N_10  and  C_11
REMARK    6  A    between atoms: C_11  and  N_13
REMARK    7  A    between atoms: N_13  and  C_14
REMARK    8  A    between atoms: C_19  and  N_20
REMARK    9  A    between atoms: C_23  and  C_24
REMARK   10  A    between atoms: C_28  and  N_29
REMARK                            x       y       z     vdW  Elec       q    Type
REMARK                         _______ _______ _______ _____ _____    ______ ____
ROOT
ATOM      1  C   UNL     1       0.539  10.837  19.421  0.00  0.00    +0.000 C 
ATOM      2  S   UNL     1       1.401  12.264  19.241  0.00  0.00    +0.000 S 
ENDROOT
BRANCH   1   5
ATOM      3  C   UNL     1       1.787   8.821  18.588  0.00  0.00    +0.000 C 
ATOM      4  O   UNL     1       2.118   9.271  17.487  0.00  0.00    +0.000 OA
ATOM      5  N   UNL     1       1.114   9.556  19.555  0.00  0.00    +0.000 N 
ATOM      6  H   UNL     1       0.850   9.096  20.415  0.00  0.00    +0.000 HD
BRANCH   3  10
ATOM      7  C   UNL     1       2.662   4.728  19.601  0.00  0.00    +0.000 A 
ATOM      8  C   UNL     1       2.177   5.632  20.544  0.00  0.00    +0.000 A 
ATOM      9  C   UNL     1       1.975   6.965  20.192  0.00  0.00    +0.000 A 
ATOM     10  C   UNL     1       2.277   7.448  18.902  0.00  0.00    +0.000 A 
ATOM     11  C   UNL     1       2.893   6.584  17.997  0.00  0.00    +0.000 A 
ATOM     12  C   UNL     1       3.074   5.232  18.364  0.00  0.00    +0.000 A 
BRANCH  12  13
ATOM     13  N   UNL     1       3.621   4.334  17.360  0.00  0.00    +0.000 N 
ATOM     14  O   UNL     1       4.784   4.523  16.984  0.00  0.00    +0.000 OA
ATOM     15  O   UNL     1       2.840   3.490  16.891  0.00  0.00    +0.000 OA
ENDBRANCH  12  13
BRANCH   7  16
ATOM     16  O   UNL     1       2.694   3.379  19.830  0.00  0.00    +0.000 OA
BRANCH  16  18
ATOM     17  C   UNL     1       1.400   2.434  21.623  0.00  0.00    +0.000 C 
ATOM     18  C   UNL     1       2.744   3.007  21.215  0.00  0.00    +0.000 C 
ENDBRANCH  16  18
ENDBRANCH   7  16
ENDBRANCH   3  10
ENDBRANCH   1   5
BRANCH   1  19
ATOM     19  N   UNL     1      -0.850  10.736  19.537  0.00  0.00    +0.000 N 
ATOM     20  H   UNL     1      -1.206  10.966  20.458  0.00  0.00    +0.000 HD
BRANCH  19  21
ATOM     21  C   UNL     1      -1.865  10.777  18.541  0.00  0.00    +0.000 A 
ATOM     22  C   UNL     1      -1.745  10.017  17.366  0.00  0.00    +0.000 A 
ATOM     23  C   UNL     1      -2.683  10.103  16.345  0.00  0.00    +0.000 A 
ATOM     24  C   UNL     1      -3.805  10.892  16.515  0.00  0.00    +0.000 A 
ATOM     25  C   UNL     1      -3.981  11.601  17.706  0.00  0.00    +0.000 A 
ATOM     26  C   UNL     1      -3.028  11.581  18.749  0.00  0.00    +0.000 A 
BRANCH  26  27
ATOM     27  N   UNL     1      -3.210  12.371  19.893  0.00  0.00    +0.000 N 
ATOM     28  C   UNL     1      -2.246  13.444  20.201  0.00  0.00    +0.000 C 
ATOM     29  C   UNL     1      -2.115  13.535  21.720  0.00  0.00    +0.000 C 
ATOM     30  C   UNL     1      -3.475  13.706  22.420  0.00  0.00    +0.000 C 
ATOM     31  C   UNL     1      -3.303  13.518  23.928  0.00  0.00    +0.000 C 
ATOM     32  C   UNL     1      -4.530  12.725  21.874  0.00  0.00    +0.000 C 
ATOM     33  C   UNL     1      -4.565  12.715  20.342  0.00  0.00    +0.000 C 
ENDBRANCH  26  27
ENDBRANCH  19  21
ENDBRANCH   1  19
TORSDOF 8
ENDMDL
MODEL 5
REMARK VINA RESULT:      -7.6      2.995      9.613
REMARK  Name = 
REMARK  10 active torsions:
REMARK  status: ('A' for Active; 'I' for Inactive)
REMARK    1  A    between atoms: C_1  and  C_2
REMARK    2  A    between atoms: C_2  and  O_3
REMARK    3  A    between atoms: O_3  and  C_4
REMARK    4  A    between atoms: C_7  and  C_8
REMARK    5  A    between atoms: N_10  and  C_11
REMARK    6  A    between atoms: C_11  and  N_13
REMARK    7  A    between atoms: N_13  and  C_14
REMARK    8  A    between atoms: C_19  and  N_20
REMARK    9  A    between atoms: C_23  and  C_24
REMARK   10  A    between atoms: C_28  and  N_29
REMARK                            x       y       z     vdW  Elec       q    Type
REMARK                         _______ _______ _______ _____ _____    ______ ____
ROOT
ATOM      1  C   UNL     1       2.509   7.495  19.011  0.00  0.00    +0.000 C 
ATOM      2  S   UNL     1       3.246   7.623  17.511  0.00  0.00    +0.000 S 
ENDROOT
BRANCH   1   5
ATOM      3  C   UNL     1       1.186   8.561  20.863  0.00  0.00    +0.000 C 
ATOM      4  O   UNL     1       1.723   7.980  21.810  0.00  0.00    +0.000 OA
ATOM      5  N   UNL     1       1.583   8.419  19.540  0.00  0.00    +0.000 N 
ATOM      6  H   UNL     1       1.062   8.905  18.824  0.00  0.00    +0.000 HD
BRANCH   3  10
ATOM      7  C   UNL     1      -1.429  11.700  22.225  0.00  0.00    +0.000 A 
ATOM      8  C   UNL     1      -0.917  10.739  23.095  0.00  0.00    +0.000 A 
ATOM      9  C   UNL     1      -0.132   9.700  22.600  0.00  0.00    +0.000 A 
ATOM     10  C   UNL     1       0.143   9.564  21.224  0.00  0.00    +0.000 A 
ATOM     11  C   UNL     1      -0.480  10.438  20.333  0.00  0.00    +0.000 A 
ATOM     12  C   UNL     1      -1.258  11.497  20.853  0.00  0.00    +0.000 A 
BRANCH  12  13
ATOM     13  N   UNL     1      -1.805  12.452  19.903  0.00  0.00    +0.000 N 
ATOM     14  O   UNL     1      -1.088  13.393  19.547  0.00  0.00    +0.000 OA
ATOM     15  O   UNL     1      -2.995  12.290  19.583  0.00  0.00    +0.000 OA
ENDBRANCH  12  13
BRANCH   7  16
ATOM     16  O   UNL     1      -2.036  12.843  22.672  0.00  0.00    +0.000 OA
BRANCH  16  18
ATOM     17  C   UNL     1      -1.720  14.561  24.324  0.00  0.00    +0.000 C 
ATOM     18  C   UNL     1      -1.133  13.868  23.109  0.00  0.00    +0.000 C 
ENDBRANCH  16  18
ENDBRANCH   7  16
ENDBRANCH   3  10
ENDBRANCH   1   5
BRANCH   1  19
ATOM     19  N   UNL     1       2.655   6.426  19.900  0.00  0.00    +0.000 N 
ATOM     20  H   UNL     1       2.761   6.705  20.868  0.00  0.00    +0.000 HD
BRANCH  19  21
ATOM     21  C   UNL     1       2.277   5.060  19.771  0.00  0.00    +0.000 A 
ATOM     22  C   UNL     1       1.049   4.607  20.279  0.00  0.00    +0.000 A 
ATOM     23  C   UNL     1       0.695   3.264  20.237  0.00  0.00    +0.000 A 
ATOM     24  C   UNL     1       1.530   2.359  19.611  0.00  0.00    +0.000 A 
ATOM     25  C   UNL     1       2.724   2.800  19.034  0.00  0.00    +0.000 A 
ATOM     26  C   UNL     1       3.146   4.147  19.098  0.00  0.00    +0.000 A 
BRANCH  26  27
ATOM     27  N   UNL     1       4.389   4.528  18.574  0.00  0.00    +0.000 N 
ATOM     28  C   UNL     1       5.569   4.582  19.458  0.00  0.00    +0.000 C 
ATOM     29  C   UNL     1       6.454   5.735  18.989  0.00  0.00    +0.000 C 
ATOM     30  C   UNL     1       6.805   5.638  17.493  0.00  0.00    +0.000 C 
ATOM     31  C   UNL     1       7.454   6.943  17.032  0.00  0.00    +0.000 C 
ATOM     32  C   UNL     1       5.569   5.319  16.631  0.00  0.00    +0.000 C 
ATOM     33  C   UNL     1       4.756   4.153  17.203  0.00  0.00    +0.000 C 
ENDBRANCH  26  27
ENDBRANCH  19  21
ENDBRANCH   1  19
TORSDOF 8
ENDMDL
MODEL 6
REMARK VINA RESULT:      -7.5      1.453      1.902
REMARK  Name = 
REMARK  10 active torsions:
REMARK  status: ('A' for Active; 'I' for Inactive)
REMARK    1  A    between atoms: C_1  and  C_2
REMARK    2  A    between atoms: C_2  and  O_3
REMARK    3  A    between atoms: O_3  and  C_4
REMARK    4  A    between atoms: C_7  and  C_8
REMARK    5  A    between atoms: N_10  and  C_11
REMARK    6  A    between atoms: C_11  and  N_13
REMARK    7  A    between atoms: N_13  and  C_14
REMARK    8  A    between atoms: C_19  and  N_20
REMARK    9  A    between atoms: C_23  and  C_24
REMARK   10  A    between atoms: C_28  and  N_29
REMARK                            x       y       z     vdW  Elec       q    Type
REMARK                         _______ _______ _______ _____ _____    ______ ____
ROOT
ATOM      1  C   UNL     1       0.801   9.609  20.174  0.00  0.00    +0.000 C 
ATOM      2  S   UNL     1       0.534   9.772  21.821  0.00  0.00    +0.000 S 
ENDROOT
BRANCH   1   5
ATOM      3  C   UNL     1       2.067   8.530  18.291  0.00  0.00    +0.000 C 
ATOM      4  O   UNL     1       2.106   9.504  17.535  0.00  0.00    +0.000 OA
ATOM      5  N   UNL     1       1.532   8.564  19.572  0.00  0.00    +0.000 N 
ATOM      6  H   UNL     1       1.508   7.709  20.109  0.00  0.00    +0.000 HD
BRANCH   3  10
ATOM      7  C   UNL     1       4.510   5.148  17.221  0.00  0.00    +0.000 A 
ATOM      8  C   UNL     1       4.864   6.451  16.876  0.00  0.00    +0.000 A 
ATOM      9  C   UNL     1       4.010   7.509  17.179  0.00  0.00    +0.000 A 
ATOM     10  C   UNL     1       2.764   7.303  17.806  0.00  0.00    +0.000 A 
ATOM     11  C   UNL     1       2.340   5.993  18.028  0.00  0.00    +0.000 A 
ATOM     12  C   UNL     1       3.226   4.933  17.731  0.00  0.00    +0.000 A 
BRANCH  12  13
ATOM     13  N   UNL     1       2.795   3.587  18.073  0.00  0.00    +0.000 N 
ATOM     14  O   UNL     1       3.063   3.161  19.201  0.00  0.00    +0.000 OA
ATOM     15  O   UNL     1       2.259   2.934  17.163  0.00  0.00    +0.000 OA
ENDBRANCH  12  13
BRANCH   7  16
ATOM     16  O   UNL     1       5.387   4.101  17.127  0.00  0.00    +0.000 OA
BRANCH  16  18
ATOM     17  C   UNL     1       7.654   4.611  17.747  0.00  0.00    +0.000 C 
ATOM     18  C   UNL     1       6.676   4.446  16.599  0.00  0.00    +0.000 C 
ENDBRANCH  16  18
ENDBRANCH   7  16
ENDBRANCH   3  10
ENDBRANCH   1   5
BRANCH   1  19
ATOM     19  N   UNL     1       0.275  10.439  19.180  0.00  0.00    +0.000 N 
ATOM     20  H   UNL     1       0.935  10.678  18.449  0.00  0.00    +0.000 HD
BRANCH  19  21
ATOM     21  C   UNL     1      -1.073  10.664  18.783  0.00  0.00    +0.000 A 
ATOM     22  C   UNL     1      -1.776   9.692  18.054  0.00  0.00    +0.000 A 
ATOM     23  C   UNL     1      -3.063   9.922  17.586  0.00  0.00    +0.000 A 
ATOM     24  C   UNL     1      -3.704  11.102  17.910  0.00  0.00    +0.000 A 
ATOM     25  C   UNL     1      -3.050  12.055  18.697  0.00  0.00    +0.000 A 
ATOM     26  C   UNL     1      -1.724  11.882  19.150  0.00  0.00    +0.000 A 
BRANCH  26  27
ATOM     27  N   UNL     1      -1.081  12.899  19.870  0.00  0.00    +0.000 N 
ATOM     28  C   UNL     1      -0.718  14.157  19.191  0.00  0.00    +0.000 C 
ATOM     29  C   UNL     1       0.593  14.656  19.796  0.00  0.00    +0.000 C 
ATOM     30  C   UNL     1       0.525  14.778  21.329  0.00  0.00    +0.000 C 
ATOM     31  C   UNL     1       1.928  15.015  21.888  0.00  0.00    +0.000 C 
ATOM     32  C   UNL     1      -0.107  13.532  21.978  0.00  0.00    +0.000 C 
ATOM     33  C   UNL     1      -1.410  13.122  21.283  0.00  0.00    +0.000 C 
ENDBRANCH  26  27
ENDBRANCH  19  21
ENDBRANCH   1  19
TORSDOF 8
ENDMDL
MODEL 7
REMARK VINA RESULT:      -7.5      1.482      1.757
REMARK  Name = 
REMARK  10 active torsions:
REMARK  status: ('A' for Active; 'I' for Inactive)
REMARK    1  A    between atoms: C_1  and  C_2
REMARK    2  A    between atoms: C_2  and  O_3
REMARK    3  A    between atoms: O_3  and  C_4
REMARK    4  A    between atoms: C_7  and  C_8
REMARK    5  A    between atoms: N_10  and  C_11
REMARK    6  A    between atoms: C_11  and  N_13
REMARK    7  A    between atoms: N_13  and  C_14
REMARK    8  A    between atoms: C_19  and  N_20
REMARK    9  A    between atoms: C_23  and  C_24
REMARK   10  A    between atoms: C_28  and  N_29
REMARK                            x       y       z     vdW  Elec       q    Type
REMARK                         _______ _______ _______ _____ _____    ______ ____
ROOT
ATOM      1  C   UNL     1       0.438  10.486  19.800  0.00  0.00    +0.000 C 
ATOM      2  S   UNL     1       1.183  11.835  20.459  0.00  0.00    +0.000 S 
ENDROOT
BRANCH   1   5
ATOM      3  C   UNL     1       1.858   9.154  18.211  0.00  0.00    +0.000 C 
ATOM      4  O   UNL     1       2.179  10.078  17.458  0.00  0.00    +0.000 OA
ATOM      5  N   UNL     1       1.106   9.322  19.367  0.00  0.00    +0.000 N 
ATOM      6  H   UNL     1       0.859   8.504  19.906  0.00  0.00    +0.000 HD
BRANCH   3  10
ATOM      7  C   UNL     1       3.976   5.450  17.630  0.00  0.00    +0.000 A 
ATOM      8  C   UNL     1       4.493   6.669  17.197  0.00  0.00    +0.000 A 
ATOM      9  C   UNL     1       3.743   7.834  17.341  0.00  0.00    +0.000 A 
ATOM     10  C   UNL     1       2.445   7.821  17.891  0.00  0.00    +0.000 A 
ATOM     11  C   UNL     1       1.866   6.589  18.197  0.00  0.00    +0.000 A 
ATOM     12  C   UNL     1       2.647   5.420  18.062  0.00  0.00    +0.000 A 
BRANCH  12  13
ATOM     13  N   UNL     1       2.050   4.165  18.490  0.00  0.00    +0.000 N 
ATOM     14  O   UNL     1       2.179   3.835  19.674  0.00  0.00    +0.000 OA
ATOM     15  O   UNL     1       1.522   3.475  17.601  0.00  0.00    +0.000 OA
ENDBRANCH  12  13
BRANCH   7  16
ATOM     16  O   UNL     1       4.737   4.313  17.695  0.00  0.00    +0.000 OA
BRANCH  16  18
ATOM     17  C   UNL     1       5.927   3.797  15.670  0.00  0.00    +0.000 C 
ATOM     18  C   UNL     1       6.017   4.413  17.054  0.00  0.00    +0.000 C 
ENDBRANCH  16  18
ENDBRANCH   7  16
ENDBRANCH   3  10
ENDBRANCH   1   5
BRANCH   1  19
ATOM     19  N   UNL     1      -0.941  10.306  19.663  0.00  0.00    +0.000 N 
ATOM     20  H   UNL     1      -1.448  10.306  20.540  0.00  0.00    +0.000 HD
BRANCH  19  21
ATOM     21  C   UNL     1      -1.796  10.532  18.547  0.00  0.00    +0.000 A 
ATOM     22  C   UNL     1      -1.643   9.786  17.367  0.00  0.00    +0.000 A 
ATOM     23  C   UNL     1      -2.411  10.045  16.239  0.00  0.00    +0.000 A 
ATOM     24  C   UNL     1      -3.405  11.003  16.296  0.00  0.00    +0.000 A 
ATOM     25  C   UNL     1      -3.623  11.707  17.483  0.00  0.00    +0.000 A 
ATOM     26  C   UNL     1      -2.833  11.511  18.637  0.00  0.00    +0.000 A 
BRANCH  26  27
ATOM     27  N   UNL     1      -3.037  12.297  19.780  0.00  0.00    +0.000 N 
ATOM     28  C   UNL     1      -2.093  13.385  20.098  0.00  0.00    +0.000 C 
ATOM     29  C   UNL     1      -1.976  13.477  21.618  0.00  0.00    +0.000 C 
ATOM     30  C   UNL     1      -3.344  13.625  22.306  0.00  0.00    +0.000 C 
ATOM     31  C   UNL     1      -3.183  13.440  23.815  0.00  0.00    +0.000 C 
ATOM     32  C   UNL     1      -4.379  12.629  21.751  0.00  0.00    +0.000 C 
ATOM     33  C   UNL     1      -4.401  12.619  20.218  0.00  0.00    +0.000 C 
ENDBRANCH  26  27
ENDBRANCH  19  21
ENDBRANCH   1  19
TORSDOF 8
ENDMDL
MODEL 8
REMARK VINA RESULT:      -7.5      0.947      1.471
REMARK  Name = 
REMARK  10 active torsions:
REMARK  status: ('A' for Active; 'I' for Inactive)
REMARK    1  A    between atoms: C_1  and  C_2
REMARK    2  A    between atoms: C_2  and  O_3
REMARK    3  A    between atoms: O_3  and  C_4
REMARK    4  A    between atoms: C_7  and  C_8
REMARK    5  A    between atoms: N_10  and  C_11
REMARK    6  A    between atoms: C_11  and  N_13
REMARK    7  A    between atoms: N_13  and  C_14
REMARK    8  A    between atoms: C_19  and  N_20
REMARK    9  A    between atoms: C_23  and  C_24
REMARK   10  A    between atoms: C_28  and  N_29
REMARK                            x       y       z     vdW  Elec       q    Type
REMARK                         _______ _______ _______ _____ _____    ______ ____
ROOT
ATOM      1  C   UNL     1       1.372  10.474  18.335  0.00  0.00    +0.000 C 
ATOM      2  S   UNL     1       2.092  11.987  18.354  0.00  0.00    +0.000 S 
ENDROOT
BRANCH   1   5
ATOM      3  C   UNL     1       2.284   8.151  18.634  0.00  0.00    +0.000 C 
ATOM      4  O   UNL     1       1.887   7.961  19.787  0.00  0.00    +0.000 OA
ATOM      5  N   UNL     1       1.993   9.287  17.891  0.00  0.00    +0.000 N 
ATOM      6  H   UNL     1       2.391   9.375  16.966  0.00  0.00    +0.000 HD
BRANCH   3  10
ATOM      7  C   UNL     1       4.836   5.109  16.965  0.00  0.00    +0.000 A 
ATOM      8  C   UNL     1       4.825   6.413  16.474  0.00  0.00    +0.000 A 
ATOM      9  C   UNL     1       3.933   7.347  16.995  0.00  0.00    +0.000 A 
ATOM     10  C   UNL     1       3.003   7.009  17.999  0.00  0.00    +0.000 A 
ATOM     11  C   UNL     1       2.911   5.675  18.397  0.00  0.00    +0.000 A 
ATOM     12  C   UNL     1       3.835   4.744  17.871  0.00  0.00    +0.000 A 
BRANCH  12  13
ATOM     13  N   UNL     1       3.781   3.386  18.386  0.00  0.00    +0.000 N 
ATOM     14  O   UNL     1       3.013   2.588  17.837  0.00  0.00    +0.000 OA
ATOM     15  O   UNL     1       4.456   3.154  19.403  0.00  0.00    +0.000 OA
ENDBRANCH  12  13
BRANCH   7  16
ATOM     16  O   UNL     1       5.813   4.209  16.634  0.00  0.00    +0.000 OA
BRANCH  16  18
ATOM     17  C   UNL     1       7.558   4.855  18.157  0.00  0.00    +0.000 C 
ATOM     18  C   UNL     1       7.150   4.726  16.701  0.00  0.00    +0.000 C 
ENDBRANCH  16  18
ENDBRANCH   7  16
ENDBRANCH   3  10
ENDBRANCH   1   5
BRANCH   1  19
ATOM     19  N   UNL     1       0.098  10.173  18.825  0.00  0.00    +0.000 N 
ATOM     20  H   UNL     1       0.059  10.050  19.830  0.00  0.00    +0.000 HD
BRANCH  19  21
ATOM     21  C   UNL     1      -1.187  10.411  18.261  0.00  0.00    +0.000 A 
ATOM     22  C   UNL     1      -1.623   9.682  17.142  0.00  0.00    +0.000 A 
ATOM     23  C   UNL     1      -2.838   9.952  16.526  0.00  0.00    +0.000 A 
ATOM     24  C   UNL     1      -3.679  10.905  17.068  0.00  0.00    +0.000 A 
ATOM     25  C   UNL     1      -3.297  11.592  18.223  0.00  0.00    +0.000 A 
ATOM     26  C   UNL     1      -2.050  11.383  18.852  0.00  0.00    +0.000 A 
BRANCH  26  27
ATOM     27  N   UNL     1      -1.677  12.153  19.963  0.00  0.00    +0.000 N 
ATOM     28  C   UNL     1      -2.494  13.317  20.354  0.00  0.00    +0.000 C 
ATOM     29  C   UNL     1      -1.554  14.388  20.904  0.00  0.00    +0.000 C 
ATOM     30  C   UNL     1      -0.654  13.857  22.034  0.00  0.00    +0.000 C 
ATOM     31  C   UNL     1       0.434  14.884  22.349  0.00  0.00    +0.000 C 
ATOM     32  C   UNL     1      -0.022  12.498  21.677  0.00  0.00    +0.000 C 
ATOM     33  C   UNL     1      -1.058  11.510  21.129  0.00  0.00    +0.000 C 
ENDBRANCH  26  27
ENDBRANCH  19  21
ENDBRANCH   1  19
TORSDOF 8
ENDMDL
MODEL 9
REMARK VINA RESULT:      -7.5      1.456      1.974
REMARK  Name = 
REMARK  10 active torsions:
REMARK  status: ('A' for Active; 'I' for Inactive)
REMARK    1  A    between atoms: C_1  and  C_2
REMARK    2  A    between atoms: C_2  and  O_3
REMARK    3  A    between atoms: O_3  and  C_4
REMARK    4  A    between atoms: C_7  and  C_8
REMARK    5  A    between atoms: N_10  and  C_11
REMARK    6  A    between atoms: C_11  and  N_13
REMARK    7  A    between atoms: N_13  and  C_14
REMARK    8  A    between atoms: C_19  and  N_20
REMARK    9  A    between atoms: C_23  and  C_24
REMARK   10  A    between atoms: C_28  and  N_29
REMARK                            x       y       z     vdW  Elec       q    Type
REMARK                         _______ _______ _______ _____ _____    ______ ____
ROOT
ATOM      1  C   UNL     1       0.982   9.819  19.422  0.00  0.00    +0.000 C 
ATOM      2  S   UNL     1       0.876  10.127  21.066  0.00  0.00    +0.000 S 
ENDROOT
BRANCH   1   5
ATOM      3  C   UNL     1       2.085   7.561  19.447  0.00  0.00    +0.000 C 
ATOM      4  O   UNL     1       1.707   7.202  20.566  0.00  0.00    +0.000 OA
ATOM      5  N   UNL     1       1.699   8.751  18.844  0.00  0.00    +0.000 N 
ATOM      6  H   UNL     1       2.086   8.982  17.940  0.00  0.00    +0.000 HD
BRANCH   3  10
ATOM      7  C   UNL     1       4.873   5.009  17.382  0.00  0.00    +0.000 A 
ATOM      8  C   UNL     1       4.624   6.316  16.967  0.00  0.00    +0.000 A 
ATOM      9  C   UNL     1       3.662   7.083  17.620  0.00  0.00    +0.000 A 
ATOM     10  C   UNL     1       2.895   6.568  18.685  0.00  0.00    +0.000 A 
ATOM     11  C   UNL     1       3.039   5.220  19.015  0.00  0.00    +0.000 A 
ATOM     12  C   UNL     1       4.032   4.461  18.355  0.00  0.00    +0.000 A 
BRANCH  12  13
ATOM     13  N   UNL     1       4.227   3.090  18.796  0.00  0.00    +0.000 N 
ATOM     14  O   UNL     1       4.959   2.892  19.772  0.00  0.00    +0.000 OA
ATOM     15  O   UNL     1       3.703   2.207  18.096  0.00  0.00    +0.000 OA
ENDBRANCH  12  13
BRANCH   7  16
ATOM     16  O   UNL     1       5.932   4.281  16.913  0.00  0.00    +0.000 OA
BRANCH  16  18
ATOM     17  C   UNL     1       7.613   5.174  18.381  0.00  0.00    +0.000 C 
ATOM     18  C   UNL     1       7.191   4.970  16.939  0.00  0.00    +0.000 C 
ENDBRANCH  16  18
ENDBRANCH   7  16
ENDBRANCH   3  10
ENDBRANCH   1   5
BRANCH   1  19
ATOM     19  N   UNL     1       0.319  10.529  18.418  0.00  0.00    +0.000 N 
ATOM     20  H   UNL     1       0.877  10.690  17.587  0.00  0.00    +0.000 HD
BRANCH  19  21
ATOM     21  C   UNL     1      -1.073  10.700  18.173  0.00  0.00    +0.000 A 
ATOM     22  C   UNL     1      -1.798   9.731  17.462  0.00  0.00    +0.000 A 
ATOM     23  C   UNL     1      -3.137   9.914  17.141  0.00  0.00    +0.000 A 
ATOM     24  C   UNL     1      -3.799  11.038  17.598  0.00  0.00    +0.000 A 
ATOM     25  C   UNL     1      -3.115  11.982  18.369  0.00  0.00    +0.000 A 
ATOM     26  C   UNL     1      -1.742  11.859  18.675  0.00  0.00    +0.000 A 
BRANCH  26  27
ATOM     27  N   UNL     1      -1.079  12.870  19.385  0.00  0.00    +0.000 N 
ATOM     28  C   UNL     1      -0.441  13.979  18.652  0.00  0.00    +0.000 C 
ATOM     29  C   UNL     1       0.819  14.384  19.416  0.00  0.00    +0.000 C 
ATOM     30  C   UNL     1       0.534  14.702  20.894  0.00  0.00    +0.000 C 
ATOM     31  C   UNL     1       1.854  14.832  21.655  0.00  0.00    +0.000 C 
ATOM     32  C   UNL     1      -0.361  13.635  21.552  0.00  0.00    +0.000 C 
ATOM     33  C   UNL     1      -1.586  13.306  20.692  0.00  0.00    +0.000 C 
ENDBRANCH  26  27
ENDBRANCH  19  21
ENDBRANCH   1  19
TORSDOF 8
ENDMDL
