MODEL 1
REMARK VINA RESULT:      -8.0      0.000      0.000
REMARK  Name = 
REMARK  7 active torsions:
REMARK  status: ('A' for Active; 'I' for Inactive)
REMARK    1  A    between atoms: C_1  and  O_2
REMARK    2  A    between atoms: O_2  and  C_3
REMARK    3  A    between atoms: C_5  and  C_6
REMARK    4  A    between atoms: C_6  and  N_7
REMARK    5  A    between atoms: C_15  and  O_16
REMARK    6  A    between atoms: O_16  and  C_17
REMARK    7  A    between atoms: C_17  and  C_18
REMARK                            x       y       z     vdW  Elec       q    Type
REMARK                         _______ _______ _______ _____ _____    ______ ____
ROOT
ATOM      1  C   UNL     1       2.094   4.862  20.110  0.00  0.00    +0.000 A 
ATOM      2  C   UNL     1       2.786   4.038  19.208  0.00  0.00    +0.000 A 
ATOM      3  C   UNL     1       3.595   4.586  18.206  0.00  0.00    +0.000 A 
ATOM      4  C   UNL     1       3.627   5.971  18.045  0.00  0.00    +0.000 A 
ATOM      5  C   UNL     1       2.870   6.792  18.880  0.00  0.00    +0.000 A 
ATOM      6  C   UNL     1       2.072   6.255  19.902  0.00  0.00    +0.000 A 
ENDROOT
BRANCH   1   8
ATOM      7  C   UNL     1       1.771   2.997  21.535  0.00  0.00    +0.000 C 
ATOM      8  O   UNL     1       1.438   4.350  21.200  0.00  0.00    +0.000 OA
ENDBRANCH   1   8
BRANCH   3   9
ATOM      9  C   UNL     1       4.455   3.696  17.349  0.00  0.00    +0.000 C 
BRANCH   9  10
ATOM     10  N   UNL     1       5.841   4.091  17.437  0.00  0.00    +0.000 N 
ATOM     11  C   UNL     1       6.414   4.608  16.338  0.00  0.00    +0.000 A 
ATOM     12  N   UNL     1       5.684   5.232  15.361  0.00  0.00    +0.000 NA
ATOM     13  N   UNL     1       6.539   5.592  14.414  0.00  0.00    +0.000 NA
ATOM     14  N   UNL     1       7.724   5.169  14.869  0.00  0.00    +0.000 N 
ATOM     15  N   UNL     1       7.720   4.545  16.053  0.00  0.00    +0.000 NA
ATOM     16  H   UNL     1       6.429   3.474  17.986  0.00  0.00    +0.000 HD
ATOM     17  H   UNL     1       8.580   5.314  14.335  0.00  0.00    +0.000 HD
ENDBRANCH   9  10
ENDBRANCH   3   9
BRANCH   6  18
ATOM     18  O   UNL     1       1.273   7.030  20.719  0.00  0.00    +0.000 OA
BRANCH  18  19
ATOM     19  C   UNL     1       1.753   8.365  20.940  0.00  0.00    +0.000 C 
BRANCH  19  20
ATOM     20  C   UNL     1       0.681   9.412  20.744  0.00  0.00    +0.000 A 
ATOM     21  C   UNL     1      -0.046   9.945  21.825  0.00  0.00    +0.000 A 
ATOM     22 CL   UNL     1       0.194   9.420  23.458  0.00  0.00    +0.000 Cl
ATOM     23  C   UNL     1      -0.986  10.967  21.632  0.00  0.00    +0.000 A 
ATOM     24  C   UNL     1      -1.224  11.474  20.360  0.00  0.00    +0.000 A 
ATOM     25  C   UNL     1      -0.515  10.963  19.277  0.00  0.00    +0.000 A 
ATOM     26  C   UNL     1       0.426   9.944  19.465  0.00  0.00    +0.000 A 
ATOM     27 CL   UNL     1       1.292   9.416  18.062  0.00  0.00    +0.000 Cl
ENDBRANCH  19  20
ENDBRANCH  18  19
ENDBRANCH   6  18
TORSDOF 6
ENDMDL
MODEL 2
REMARK VINA RESULT:      -7.8      0.309      1.855
REMARK  Name = 
REMARK  7 active torsions:
REMARK  status: ('A' for Active; 'I' for Inactive)
REMARK    1  A    between atoms: C_1  and  O_2
REMARK    2  A    between atoms: O_2  and  C_3
REMARK    3  A    between atoms: C_5  and  C_6
REMARK    4  A    between atoms: C_6  and  N_7
REMARK    5  A    between atoms: C_15  and  O_16
REMARK    6  A    between atoms: O_16  and  C_17
REMARK    7  A    between atoms: C_17  and  C_18
REMARK                            x       y       z     vdW  Elec       q    Type
REMARK                         _______ _______ _______ _____ _____    ______ ____
ROOT
ATOM      1  C   UNL     1       1.861   4.898  19.842  0.00  0.00    +0.000 A 
ATOM      2  C   UNL     1       2.576   4.100  18.934  0.00  0.00    +0.000 A 
ATOM      3  C   UNL     1       3.638   4.629  18.191  0.00  0.00    +0.000 A 
ATOM      4  C   UNL     1       3.917   5.992  18.286  0.00  0.00    +0.000 A 
ATOM      5  C   UNL     1       3.152   6.808  19.119  0.00  0.00    +0.000 A 
ATOM      6  C   UNL     1       2.098   6.285  19.884  0.00  0.00    +0.000 A 
ENDROOT
BRANCH   1   8
ATOM      7  C   UNL     1       1.109   2.970  20.997  0.00  0.00    +0.000 C 
ATOM      8  O   UNL     1       0.936   4.362  20.702  0.00  0.00    +0.000 OA
ENDBRANCH   1   8
BRANCH   3   9
ATOM      9  C   UNL     1       4.496   3.729  17.342  0.00  0.00    +0.000 C 
BRANCH   9  10
ATOM     10  N   UNL     1       5.881   4.136  17.410  0.00  0.00    +0.000 N 
ATOM     11  C   UNL     1       6.453   4.594  16.285  0.00  0.00    +0.000 A 
ATOM     12  N   UNL     1       5.721   5.160  15.273  0.00  0.00    +0.000 NA
ATOM     13  N   UNL     1       6.577   5.470  14.310  0.00  0.00    +0.000 NA
ATOM     14  N   UNL     1       7.763   5.079  14.789  0.00  0.00    +0.000 N 
ATOM     15  N   UNL     1       7.760   4.522  16.006  0.00  0.00    +0.000 NA
ATOM     16  H   UNL     1       6.470   3.554  17.993  0.00  0.00    +0.000 HD
ATOM     17  H   UNL     1       8.619   5.198  14.250  0.00  0.00    +0.000 HD
ENDBRANCH   9  10
ENDBRANCH   3   9
BRANCH   6  18
ATOM     18  O   UNL     1       1.288   7.067  20.684  0.00  0.00    +0.000 OA
BRANCH  18  19
ATOM     19  C   UNL     1       1.773   8.399  20.912  0.00  0.00    +0.000 C 
BRANCH  19  20
ATOM     20  C   UNL     1       0.742   9.458  20.597  0.00  0.00    +0.000 A 
ATOM     21  C   UNL     1       0.493   9.887  19.280  0.00  0.00    +0.000 A 
ATOM     22 CL   UNL     1       1.371   9.273  17.919  0.00  0.00    +0.000 Cl
ATOM     23  C   UNL     1      -0.517  10.818  19.000  0.00  0.00    +0.000 A 
ATOM     24  C   UNL     1      -1.295  11.343  20.026  0.00  0.00    +0.000 A 
ATOM     25  C   UNL     1      -1.067  10.931  21.335  0.00  0.00    +0.000 A 
ATOM     26  C   UNL     1      -0.061  10.001  21.619  0.00  0.00    +0.000 A 
ATOM     27 CL   UNL     1       0.106   9.515  23.272  0.00  0.00    +0.000 Cl
ENDBRANCH  19  20
ENDBRANCH  18  19
ENDBRANCH   6  18
TORSDOF 6
ENDMDL
MODEL 3
REMARK VINA RESULT:      -7.8      4.589      6.744
REMARK  Name = 
REMARK  7 active torsions:
REMARK  status: ('A' for Active; 'I' for Inactive)
REMARK    1  A    between atoms: C_1  and  O_2
REMARK    2  A    between atoms: O_2  and  C_3
REMARK    3  A    between atoms: C_5  and  C_6
REMARK    4  A    between atoms: C_6  and  N_7
REMARK    5  A    between atoms: C_15  and  O_16
REMARK    6  A    between atoms: O_16  and  C_17
REMARK    7  A    between atoms: C_17  and  C_18
REMARK                            x       y       z     vdW  Elec       q    Type
REMARK                         _______ _______ _______ _____ _____    ______ ____
ROOT
ATOM      1  C   UNL     1       6.283   5.748  16.452  0.00  0.00    +0.000 A 
ATOM      2  C   UNL     1       7.034   6.830  16.937  0.00  0.00    +0.000 A 
ATOM      3  C   UNL     1       7.531   6.835  18.246  0.00  0.00    +0.000 A 
ATOM      4  C   UNL     1       7.182   5.793  19.104  0.00  0.00    +0.000 A 
ATOM      5  C   UNL     1       6.361   4.759  18.655  0.00  0.00    +0.000 A 
ATOM      6  C   UNL     1       5.875   4.733  17.338  0.00  0.00    +0.000 A 
ENDROOT
BRANCH   1   8
ATOM      7  C   UNL     1       6.836   4.875  14.319  0.00  0.00    +0.000 C 
ATOM      8  O   UNL     1       5.936   5.643  15.128  0.00  0.00    +0.000 OA
ENDBRANCH   1   8
BRANCH   3   9
ATOM      9  C   UNL     1       8.465   7.923  18.702  0.00  0.00    +0.000 C 
BRANCH   9  10
ATOM     10  N   UNL     1       8.418   9.046  17.796  0.00  0.00    +0.000 N 
ATOM     11  C   UNL     1       8.808  10.243  18.263  0.00  0.00    +0.000 A 
ATOM     12  N   UNL     1       9.687  10.365  19.308  0.00  0.00    +0.000 NA
ATOM     13  N   UNL     1       9.833  11.663  19.535  0.00  0.00    +0.000 NA
ATOM     14  N   UNL     1       9.043  12.244  18.625  0.00  0.00    +0.000 N 
ATOM     15  N   UNL     1       8.374  11.423  17.806  0.00  0.00    +0.000 NA
ATOM     16  H   UNL     1       7.617   9.062  17.174  0.00  0.00    +0.000 HD
ATOM     17  H   UNL     1       8.958  13.257  18.565  0.00  0.00    +0.000 HD
ENDBRANCH   9  10
ENDBRANCH   3   9
BRANCH   6  18
ATOM     18  O   UNL     1       5.022   3.753  16.870  0.00  0.00    +0.000 OA
BRANCH  18  19
ATOM     19  C   UNL     1       3.629   4.093  16.917  0.00  0.00    +0.000 C 
BRANCH  19  20
ATOM     20  C   UNL     1       3.075   4.096  18.324  0.00  0.00    +0.000 A 
ATOM     21  C   UNL     1       2.992   2.921  19.094  0.00  0.00    +0.000 A 
ATOM     22 CL   UNL     1       3.474   1.373  18.485  0.00  0.00    +0.000 Cl
ATOM     23  C   UNL     1       2.542   2.955  20.421  0.00  0.00    +0.000 A 
ATOM     24  C   UNL     1       2.164   4.158  21.006  0.00  0.00    +0.000 A 
ATOM     25  C   UNL     1       2.240   5.333  20.264  0.00  0.00    +0.000 A 
ATOM     26  C   UNL     1       2.689   5.303  18.938  0.00  0.00    +0.000 A 
ATOM     27 CL   UNL     1       2.797   6.825  18.120  0.00  0.00    +0.000 Cl
ENDBRANCH  19  20
ENDBRANCH  18  19
ENDBRANCH   6  18
TORSDOF 6
ENDMDL
MODEL 4
REMARK VINA RESULT:      -7.7      4.657      6.771
REMARK  Name = 
REMARK  7 active torsions:
REMARK  status: ('A' for Active; 'I' for Inactive)
REMARK    1  A    between atoms: C_1  and  O_2
REMARK    2  A    between atoms: O_2  and  C_3
REMARK    3  A    between atoms: C_5  and  C_6
REMARK    4  A    between atoms: C_6  and  N_7
REMARK    5  A    between atoms: C_15  and  O_16
REMARK    6  A    between atoms: O_16  and  C_17
REMARK    7  A    between atoms: C_17  and  C_18
REMARK                            x       y       z     vdW  Elec       q    Type
REMARK                         _______ _______ _______ _____ _____    ______ ____
ROOT
ATOM      1  C   UNL     1       6.425   5.859  16.499  0.00  0.00    +0.000 A 
ATOM      2  C   UNL     1       7.142   6.971  16.970  0.00  0.00    +0.000 A 
ATOM      3  C   UNL     1       7.653   7.000  18.273  0.00  0.00    +0.000 A 
ATOM      4  C   UNL     1       7.353   5.951  19.140  0.00  0.00    +0.000 A 
ATOM      5  C   UNL     1       6.565   4.885  18.707  0.00  0.00    +0.000 A 
ATOM      6  C   UNL     1       6.065   4.835  17.396  0.00  0.00    +0.000 A 
ENDROOT
BRANCH   1   8
ATOM      7  C   UNL     1       6.952   4.943  14.378  0.00  0.00    +0.000 C 
ATOM      8  O   UNL     1       6.067   5.735  15.181  0.00  0.00    +0.000 OA
ENDBRANCH   1   8
BRANCH   3   9
ATOM      9  C   UNL     1       8.553   8.124  18.713  0.00  0.00    +0.000 C 
BRANCH   9  10
ATOM     10  N   UNL     1       8.430   9.252  17.820  0.00  0.00    +0.000 N 
ATOM     11  C   UNL     1       8.902  10.436  18.240  0.00  0.00    +0.000 A 
ATOM     12  N   UNL     1       9.899  10.532  19.178  0.00  0.00    +0.000 NA
ATOM     13  N   UNL     1      10.103  11.824  19.388  0.00  0.00    +0.000 NA
ATOM     14  N   UNL     1       9.229  12.429  18.575  0.00  0.00    +0.000 N 
ATOM     15  N   UNL     1       8.449  11.629  17.838  0.00  0.00    +0.000 NA
ATOM     16  H   UNL     1       7.564   9.290  17.294  0.00  0.00    +0.000 HD
ATOM     17  H   UNL     1       9.164  13.445  18.527  0.00  0.00    +0.000 HD
ENDBRANCH   9  10
ENDBRANCH   3   9
BRANCH   6  18
ATOM     18  O   UNL     1       5.243   3.822  16.942  0.00  0.00    +0.000 OA
BRANCH  18  19
ATOM     19  C   UNL     1       3.847   4.152  16.900  0.00  0.00    +0.000 C 
BRANCH  19  20
ATOM     20  C   UNL     1       3.240   4.300  18.276  0.00  0.00    +0.000 A 
ATOM     21  C   UNL     1       2.886   5.556  18.803  0.00  0.00    +0.000 A 
ATOM     22 CL   UNL     1       3.154   7.035  17.944  0.00  0.00    +0.000 Cl
ATOM     23  C   UNL     1       2.258   5.667  20.052  0.00  0.00    +0.000 A 
ATOM     24  C   UNL     1       1.973   4.530  20.800  0.00  0.00    +0.000 A 
ATOM     25  C   UNL     1       2.313   3.278  20.297  0.00  0.00    +0.000 A 
ATOM     26  C   UNL     1       2.939   3.162  19.051  0.00  0.00    +0.000 A 
ATOM     27 CL   UNL     1       3.270   1.557  18.492  0.00  0.00    +0.000 Cl
ENDBRANCH  19  20
ENDBRANCH  18  19
ENDBRANCH   6  18
TORSDOF 6
ENDMDL
MODEL 5
REMARK VINA RESULT:      -7.6      6.560      9.288
REMARK  Name = 
REMARK  7 active torsions:
REMARK  status: ('A' for Active; 'I' for Inactive)
REMARK    1  A    between atoms: C_1  and  O_2
REMARK    2  A    between atoms: O_2  and  C_3
REMARK    3  A    between atoms: C_5  and  C_6
REMARK    4  A    between atoms: C_6  and  N_7
REMARK    5  A    between atoms: C_15  and  O_16
REMARK    6  A    between atoms: O_16  and  C_17
REMARK    7  A    between atoms: C_17  and  C_18
REMARK                            x       y       z     vdW  Elec       q    Type
REMARK                         _______ _______ _______ _____ _____    ______ ____
ROOT
ATOM      1  C   UNL     1       0.334   9.714  19.721  0.00  0.00    +0.000 A 
ATOM      2  C   UNL     1      -0.458  10.446  20.620  0.00  0.00    +0.000 A 
ATOM      3  C   UNL     1      -0.312  10.288  22.003  0.00  0.00    +0.000 A 
ATOM      4  C   UNL     1       0.561   9.313  22.483  0.00  0.00    +0.000 A 
ATOM      5  C   UNL     1       1.285   8.519  21.594  0.00  0.00    +0.000 A 
ATOM      6  C   UNL     1       1.163   8.683  20.205  0.00  0.00    +0.000 A 
ENDROOT
BRANCH   1   8
ATOM      7  C   UNL     1      -0.966  10.133  17.784  0.00  0.00    +0.000 C 
ATOM      8  O   UNL     1       0.331   9.977  18.374  0.00  0.00    +0.000 OA
ENDBRANCH   1   8
BRANCH   3   9
ATOM      9  C   UNL     1      -1.051  11.190  22.955  0.00  0.00    +0.000 C 
BRANCH   9  10
ATOM     10  N   UNL     1      -1.948  12.063  22.234  0.00  0.00    +0.000 N 
ATOM     11  C   UNL     1      -3.193  12.212  22.713  0.00  0.00    +0.000 A 
ATOM     12  N   UNL     1      -3.492  12.024  24.038  0.00  0.00    +0.000 NA
ATOM     13  N   UNL     1      -4.797  12.216  24.167  0.00  0.00    +0.000 NA
ATOM     14  N   UNL     1      -5.207  12.507  22.927  0.00  0.00    +0.000 N 
ATOM     15  N   UNL     1      -4.266  12.517  21.974  0.00  0.00    +0.000 NA
ATOM     16  H   UNL     1      -1.871  12.017  21.225  0.00  0.00    +0.000 HD
ATOM     17  H   UNL     1      -6.186  12.705  22.724  0.00  0.00    +0.000 HD
ENDBRANCH   9  10
ENDBRANCH   3   9
BRANCH   6  18
ATOM     18  O   UNL     1       1.825   7.887  19.292  0.00  0.00    +0.000 OA
BRANCH  18  19
ATOM     19  C   UNL     1       2.627   6.846  19.871  0.00  0.00    +0.000 C 
BRANCH  19  20
ATOM     20  C   UNL     1       2.704   5.614  18.998  0.00  0.00    +0.000 A 
ATOM     21  C   UNL     1       1.893   4.487  19.225  0.00  0.00    +0.000 A 
ATOM     22 CL   UNL     1       0.773   4.398  20.543  0.00  0.00    +0.000 Cl
ATOM     23  C   UNL     1       1.928   3.383  18.362  0.00  0.00    +0.000 A 
ATOM     24  C   UNL     1       2.774   3.379  17.259  0.00  0.00    +0.000 A 
ATOM     25  C   UNL     1       3.584   4.484  17.013  0.00  0.00    +0.000 A 
ATOM     26  C   UNL     1       3.551   5.588  17.872  0.00  0.00    +0.000 A 
ATOM     27 CL   UNL     1       4.556   6.933  17.448  0.00  0.00    +0.000 Cl
ENDBRANCH  19  20
ENDBRANCH  18  19
ENDBRANCH   6  18
TORSDOF 6
ENDMDL
MODEL 6
REMARK VINA RESULT:      -7.6      5.057      7.126
REMARK  Name = 
REMARK  7 active torsions:
REMARK  status: ('A' for Active; 'I' for Inactive)
REMARK    1  A    between atoms: C_1  and  O_2
REMARK    2  A    between atoms: O_2  and  C_3
REMARK    3  A    between atoms: C_5  and  C_6
REMARK    4  A    between atoms: C_6  and  N_7
REMARK    5  A    between atoms: C_15  and  O_16
REMARK    6  A    between atoms: O_16  and  C_17
REMARK    7  A    between atoms: C_17  and  C_18
REMARK                            x       y       z     vdW  Elec       q    Type
REMARK                         _______ _______ _______ _____ _____    ______ ____
ROOT
ATOM      1  C   UNL     1       6.063   6.140  17.080  0.00  0.00    +0.000 A 
ATOM      2  C   UNL     1       6.574   7.448  17.085  0.00  0.00    +0.000 A 
ATOM      3  C   UNL     1       7.653   7.797  17.905  0.00  0.00    +0.000 A 
ATOM      4  C   UNL     1       8.155   6.854  18.800  0.00  0.00    +0.000 A 
ATOM      5  C   UNL     1       7.592   5.579  18.865  0.00  0.00    +0.000 A 
ATOM      6  C   UNL     1       6.524   5.211  18.032  0.00  0.00    +0.000 A 
ENDROOT
BRANCH   1   8
ATOM      7  C   UNL     1       5.655   5.195  14.946  0.00  0.00    +0.000 C 
ATOM      8  O   UNL     1       5.126   5.733  16.164  0.00  0.00    +0.000 OA
ENDBRANCH   1   8
BRANCH   3   9
ATOM      9  C   UNL     1       8.293   9.155  17.785  0.00  0.00    +0.000 C 
BRANCH   9  10
ATOM     10  N   UNL     1       8.995   9.494  19.000  0.00  0.00    +0.000 N 
ATOM     11  C   UNL     1       9.512  10.729  19.099  0.00  0.00    +0.000 A 
ATOM     12  N   UNL     1       9.002  11.791  18.397  0.00  0.00    +0.000 NA
ATOM     13  N   UNL     1       9.752  12.842  18.694  0.00  0.00    +0.000 NA
ATOM     14  N   UNL     1      10.662  12.361  19.549  0.00  0.00    +0.000 N 
ATOM     15  N   UNL     1      10.576  11.058  19.841  0.00  0.00    +0.000 NA
ATOM     16  H   UNL     1       9.565   8.751  19.387  0.00  0.00    +0.000 HD
ATOM     17  H   UNL     1      11.382  12.961  19.951  0.00  0.00    +0.000 HD
ENDBRANCH   9  10
ENDBRANCH   3   9
BRANCH   6  18
ATOM     18  O   UNL     1       5.910   3.976  18.099  0.00  0.00    +0.000 OA
BRANCH  18  19
ATOM     19  C   UNL     1       5.120   3.758  19.277  0.00  0.00    +0.000 C 
BRANCH  19  20
ATOM     20  C   UNL     1       3.655   3.547  18.968  0.00  0.00    +0.000 A 
ATOM     21  C   UNL     1       3.126   2.269  18.709  0.00  0.00    +0.000 A 
ATOM     22 CL   UNL     1       4.108   0.842  18.680  0.00  0.00    +0.000 Cl
ATOM     23  C   UNL     1       1.753   2.083  18.496  0.00  0.00    +0.000 A 
ATOM     24  C   UNL     1       0.881   3.166  18.532  0.00  0.00    +0.000 A 
ATOM     25  C   UNL     1       1.383   4.439  18.789  0.00  0.00    +0.000 A 
ATOM     26  C   UNL     1       2.754   4.628  19.003  0.00  0.00    +0.000 A 
ATOM     27 CL   UNL     1       3.268   6.241  19.367  0.00  0.00    +0.000 Cl
ENDBRANCH  19  20
ENDBRANCH  18  19
ENDBRANCH   6  18
TORSDOF 6
ENDMDL
MODEL 7
REMARK VINA RESULT:      -7.5      1.085      2.191
REMARK  Name = 
REMARK  7 active torsions:
REMARK  status: ('A' for Active; 'I' for Inactive)
REMARK    1  A    between atoms: C_1  and  O_2
REMARK    2  A    between atoms: O_2  and  C_3
REMARK    3  A    between atoms: C_5  and  C_6
REMARK    4  A    between atoms: C_6  and  N_7
REMARK    5  A    between atoms: C_15  and  O_16
REMARK    6  A    between atoms: O_16  and  C_17
REMARK    7  A    between atoms: C_17  and  C_18
REMARK                            x       y       z     vdW  Elec       q    Type
REMARK                         _______ _______ _______ _____ _____    ______ ____
ROOT
ATOM      1  C   UNL     1       3.100   5.475  19.780  0.00  0.00    +0.000 A 
ATOM      2  C   UNL     1       4.199   4.742  19.302  0.00  0.00    +0.000 A 
ATOM      3  C   UNL     1       5.008   5.242  18.276  0.00  0.00    +0.000 A 
ATOM      4  C   UNL     1       4.651   6.439  17.656  0.00  0.00    +0.000 A 
ATOM      5  C   UNL     1       3.509   7.128  18.065  0.00  0.00    +0.000 A 
ATOM      6  C   UNL     1       2.702   6.646  19.108  0.00  0.00    +0.000 A 
ENDROOT
BRANCH   1   8
ATOM      7  C   UNL     1       1.460   4.026  20.688  0.00  0.00    +0.000 C 
ATOM      8  O   UNL     1       2.401   5.087  20.895  0.00  0.00    +0.000 OA
ENDBRANCH   1   8
BRANCH   3   9
ATOM      9  C   UNL     1       6.271   4.524  17.883  0.00  0.00    +0.000 C 
BRANCH   9  10
ATOM     10  N   UNL     1       6.058   3.739  16.689  0.00  0.00    +0.000 N 
ATOM     11  C   UNL     1       6.512   4.233  15.527  0.00  0.00    +0.000 A 
ATOM     12  N   UNL     1       7.557   5.119  15.471  0.00  0.00    +0.000 NA
ATOM     13  N   UNL     1       7.728   5.429  14.194  0.00  0.00    +0.000 NA
ATOM     14  N   UNL     1       6.788   4.719  13.558  0.00  0.00    +0.000 N 
ATOM     15  N   UNL     1       5.995   3.960  14.324  0.00  0.00    +0.000 NA
ATOM     16  H   UNL     1       5.162   3.266  16.642  0.00  0.00    +0.000 HD
ATOM     17  H   UNL     1       6.685   4.762  12.545  0.00  0.00    +0.000 HD
ENDBRANCH   9  10
ENDBRANCH   3   9
BRANCH   6  18
ATOM     18  O   UNL     1       1.539   7.274  19.510  0.00  0.00    +0.000 OA
BRANCH  18  19
ATOM     19  C   UNL     1       1.725   8.335  20.458  0.00  0.00    +0.000 C 
BRANCH  19  20
ATOM     20  C   UNL     1       0.812   9.513  20.203  0.00  0.00    +0.000 A 
ATOM     21  C   UNL     1       0.894  10.277  19.023  0.00  0.00    +0.000 A 
ATOM     22 CL   UNL     1       2.067   9.961  17.789  0.00  0.00    +0.000 Cl
ATOM     23  C   UNL     1      -0.008  11.320  18.772  0.00  0.00    +0.000 A 
ATOM     24  C   UNL     1      -1.005  11.626  19.692  0.00  0.00    +0.000 A 
ATOM     25  C   UNL     1      -1.105  10.883  20.864  0.00  0.00    +0.000 A 
ATOM     26  C   UNL     1      -0.207   9.839  21.118  0.00  0.00    +0.000 A 
ATOM     27 CL   UNL     1      -0.451   8.942  22.579  0.00  0.00    +0.000 Cl
ENDBRANCH  19  20
ENDBRANCH  18  19
ENDBRANCH   6  18
TORSDOF 6
ENDMDL
MODEL 8
REMARK VINA RESULT:      -7.5      0.674      1.035
REMARK  Name = 
REMARK  7 active torsions:
REMARK  status: ('A' for Active; 'I' for Inactive)
REMARK    1  A    between atoms: C_1  and  O_2
REMARK    2  A    between atoms: O_2  and  C_3
REMARK    3  A    between atoms: C_5  and  C_6
REMARK    4  A    between atoms: C_6  and  N_7
REMARK    5  A    between atoms: C_15  and  O_16
REMARK    6  A    between atoms: O_16  and  C_17
REMARK    7  A    between atoms: C_17  and  C_18
REMARK                            x       y       z     vdW  Elec       q    Type
REMARK                         _______ _______ _______ _____ _____    ______ ____
ROOT
ATOM      1  C   UNL     1       2.401   4.854  20.259  0.00  0.00    +0.000 A 
ATOM      2  C   UNL     1       2.994   3.954  19.359  0.00  0.00    +0.000 A 
ATOM      3  C   UNL     1       3.428   4.376  18.097  0.00  0.00    +0.000 A 
ATOM      4  C   UNL     1       3.171   5.687  17.698  0.00  0.00    +0.000 A 
ATOM      5  C   UNL     1       2.501   6.563  18.552  0.00  0.00    +0.000 A 
ATOM      6  C   UNL     1       2.080   6.156  19.829  0.00  0.00    +0.000 A 
ENDROOT
BRANCH   1   8
ATOM      7  C   UNL     1       1.795   3.126  21.763  0.00  0.00    +0.000 C 
ATOM      8  O   UNL     1       2.128   4.505  21.557  0.00  0.00    +0.000 OA
ENDBRANCH   1   8
BRANCH   3   9
ATOM      9  C   UNL     1       4.203   3.443  17.206  0.00  0.00    +0.000 C 
BRANCH   9  10
ATOM     10  N   UNL     1       4.751   4.157  16.077  0.00  0.00    +0.000 N 
ATOM     11  C   UNL     1       5.907   4.815  16.255  0.00  0.00    +0.000 A 
ATOM     12  N   UNL     1       6.813   4.449  17.217  0.00  0.00    +0.000 NA
ATOM     13  N   UNL     1       7.816   5.313  17.147  0.00  0.00    +0.000 NA
ATOM     14  N   UNL     1       7.462   6.143  16.158  0.00  0.00    +0.000 N 
ATOM     15  N   UNL     1       6.288   5.896  15.564  0.00  0.00    +0.000 NA
ATOM     16  H   UNL     1       4.067   4.627  15.494  0.00  0.00    +0.000 HD
ATOM     17  H   UNL     1       8.058   6.921  15.879  0.00  0.00    +0.000 HD
ENDBRANCH   9  10
ENDBRANCH   3   9
BRANCH   6  18
ATOM     18  O   UNL     1       1.374   6.977  20.685  0.00  0.00    +0.000 OA
BRANCH  18  19
ATOM     19  C   UNL     1       1.865   8.323  20.770  0.00  0.00    +0.000 C 
BRANCH  19  20
ATOM     20  C   UNL     1       0.774   9.355  20.599  0.00  0.00    +0.000 A 
ATOM     21  C   UNL     1       0.061   9.874  21.695  0.00  0.00    +0.000 A 
ATOM     22 CL   UNL     1       0.339   9.347  23.321  0.00  0.00    +0.000 Cl
ATOM     23  C   UNL     1      -0.898  10.883  21.524  0.00  0.00    +0.000 A 
ATOM     24  C   UNL     1      -1.167  11.392  20.258  0.00  0.00    +0.000 A 
ATOM     25  C   UNL     1      -0.471  10.894  19.160  0.00  0.00    +0.000 A 
ATOM     26  C   UNL     1       0.487   9.888  19.327  0.00  0.00    +0.000 A 
ATOM     27 CL   UNL     1       1.334   9.377  17.905  0.00  0.00    +0.000 Cl
ENDBRANCH  19  20
ENDBRANCH  18  19
ENDBRANCH   6  18
TORSDOF 6
ENDMDL
MODEL 9
REMARK VINA RESULT:      -7.5      5.107      7.153
REMARK  Name = 
REMARK  7 active torsions:
REMARK  status: ('A' for Active; 'I' for Inactive)
REMARK    1  A    between atoms: C_1  and  O_2
REMARK    2  A    between atoms: O_2  and  C_3
REMARK    3  A    between atoms: C_5  and  C_6
REMARK    4  A    between atoms: C_6  and  N_7
REMARK    5  A    between atoms: C_15  and  O_16
REMARK    6  A    between atoms: O_16  and  C_17
REMARK    7  A    between atoms: C_17  and  C_18
REMARK                            x       y       z     vdW  Elec       q    Type
REMARK                         _______ _______ _______ _____ _____    ______ ____
ROOT
ATOM      1  C   UNL     1       6.285   6.146  16.978  0.00  0.00    +0.000 A 
ATOM      2  C   UNL     1       6.811   7.447  16.981  0.00  0.00    +0.000 A 
ATOM      3  C   UNL     1       7.802   7.823  17.895  0.00  0.00    +0.000 A 
ATOM      4  C   UNL     1       8.191   6.916  18.880  0.00  0.00    +0.000 A 
ATOM      5  C   UNL     1       7.607   5.650  18.939  0.00  0.00    +0.000 A 
ATOM      6  C   UNL     1       6.628   5.256  18.014  0.00  0.00    +0.000 A 
ENDROOT
BRANCH   1   8
ATOM      7  C   UNL     1       6.092   5.100  14.860  0.00  0.00    +0.000 C 
ATOM      8  O   UNL     1       5.445   5.707  15.986  0.00  0.00    +0.000 OA
ENDBRANCH   1   8
BRANCH   3   9
ATOM      9  C   UNL     1       8.469   9.168  17.786  0.00  0.00    +0.000 C 
BRANCH   9  10
ATOM     10  N   UNL     1       9.034   9.559  19.056  0.00  0.00    +0.000 N 
ATOM     11  C   UNL     1       9.499  10.813  19.174  0.00  0.00    +0.000 A 
ATOM     12  N   UNL     1       9.030  11.840  18.396  0.00  0.00    +0.000 NA
ATOM     13  N   UNL     1       9.713  12.922  18.738  0.00  0.00    +0.000 NA
ATOM     14  N   UNL     1      10.546  12.493  19.694  0.00  0.00    +0.000 N 
ATOM     15  N   UNL     1      10.472  11.194  20.010  0.00  0.00    +0.000 NA
ATOM     16  H   UNL     1       9.585   8.845  19.519  0.00  0.00    +0.000 HD
ATOM     17  H   UNL     1      11.202  13.125  20.150  0.00  0.00    +0.000 HD
ENDBRANCH   9  10
ENDBRANCH   3   9
BRANCH   6  18
ATOM     18  O   UNL     1       5.993   4.031  18.067  0.00  0.00    +0.000 OA
BRANCH  18  19
ATOM     19  C   UNL     1       5.143   3.842  19.208  0.00  0.00    +0.000 C 
BRANCH  19  20
ATOM     20  C   UNL     1       3.685   3.705  18.835  0.00  0.00    +0.000 A 
ATOM     21  C   UNL     1       2.851   4.825  18.661  0.00  0.00    +0.000 A 
ATOM     22 CL   UNL     1       3.410   6.447  18.900  0.00  0.00    +0.000 Cl
ATOM     23  C   UNL     1       1.521   4.681  18.244  0.00  0.00    +0.000 A 
ATOM     24  C   UNL     1       0.993   3.418  17.996  0.00  0.00    +0.000 A 
ATOM     25  C   UNL     1       1.800   2.297  18.160  0.00  0.00    +0.000 A 
ATOM     26  C   UNL     1       3.130   2.437  18.575  0.00  0.00    +0.000 A 
ATOM     27 CL   UNL     1       4.064   0.984  18.696  0.00  0.00    +0.000 Cl
ENDBRANCH  19  20
ENDBRANCH  18  19
ENDBRANCH   6  18
TORSDOF 6
ENDMDL
