MODEL 1
REMARK VINA RESULT:      -6.8      0.000      0.000
REMARK  Name = 
REMARK  6 active torsions:
REMARK  status: ('A' for Active; 'I' for Inactive)
REMARK    1  A    between atoms: C_1  and  N_2
REMARK    2  A    between atoms: N_8  and  C_9
REMARK    3  A    between atoms: C_9  and  C_10
REMARK    4  A    between atoms: N_12  and  C_13
REMARK    5  A    between atoms: C_13  and  C_14
REMARK    6  A    between atoms: N_21  and  C_22
REMARK                            x       y       z     vdW  Elec       q    Type
REMARK                         _______ _______ _______ _____ _____    ______ ____
ROOT
ATOM      1  C   UNL     1       7.433   5.253  14.845  0.00  0.00    +0.000 C 
ATOM      2  N   UNL     1       6.480   4.857  15.864  0.00  0.00    +0.000 N 
ATOM      3  C   UNL     1       5.323   4.207  15.452  0.00  0.00    +0.000 A 
ATOM      4  O   UNL     1       5.050   3.952  14.281  0.00  0.00    +0.000 OA
ATOM      5  C   UNL     1       4.444   3.838  16.527  0.00  0.00    +0.000 A 
ATOM      6  C   UNL     1       3.194   3.193  16.469  0.00  0.00    +0.000 A 
ATOM      7  C   UNL     1       2.741   3.098  17.760  0.00  0.00    +0.000 A 
ATOM      8  N   UNL     1       3.702   3.609  18.614  0.00  0.00    +0.000 N 
ATOM      9  C   UNL     1       4.731   4.133  17.844  0.00  0.00    +0.000 A 
ATOM     10  N   UNL     1       5.878   4.850  18.204  0.00  0.00    +0.000 N 
ATOM     11  C   UNL     1       6.250   5.301  19.531  0.00  0.00    +0.000 C 
ATOM     12  C   UNL     1       6.799   5.187  17.187  0.00  0.00    +0.000 A 
ATOM     13  O   UNL     1       7.863   5.762  17.453  0.00  0.00    +0.000 OA
ENDROOT
BRANCH   8  14
ATOM     14  C   UNL     1       3.553   3.575  20.069  0.00  0.00    +0.000 C 
BRANCH  14  15
ATOM     15  C   UNL     1       2.462   4.496  20.607  0.00  0.00    +0.000 C 
ATOM     16  O   UNL     1       1.516   4.068  21.266  0.00  0.00    +0.000 OA
ATOM     17  N   UNL     1       2.625   5.836  20.318  0.00  0.00    +0.000 N 
ATOM     18  H   UNL     1       3.422   6.147  19.782  0.00  0.00    +0.000 HD
BRANCH  17  19
ATOM     19  C   UNL     1       1.749   6.855  20.862  0.00  0.00    +0.000 C 
BRANCH  19  20
ATOM     20  C   UNL     1       1.618   8.040  19.940  0.00  0.00    +0.000 A 
ATOM     21  C   UNL     1       0.914   9.182  20.353  0.00  0.00    +0.000 A 
ATOM     22  C   UNL     1       0.817  10.298  19.518  0.00  0.00    +0.000 A 
ATOM     23  C   UNL     1       1.415  10.283  18.260  0.00  0.00    +0.000 A 
ATOM     24  C   UNL     1       2.106   9.152  17.832  0.00  0.00    +0.000 A 
ATOM     25  C   UNL     1       2.205   8.033  18.666  0.00  0.00    +0.000 A 
ENDBRANCH  19  20
ENDBRANCH  17  19
ENDBRANCH  14  15
ENDBRANCH   8  14
TORSDOF 4
ENDMDL
MODEL 2
REMARK VINA RESULT:      -6.6      3.226      7.131
REMARK  Name = 
REMARK  6 active torsions:
REMARK  status: ('A' for Active; 'I' for Inactive)
REMARK    1  A    between atoms: C_1  and  N_2
REMARK    2  A    between atoms: N_8  and  C_9
REMARK    3  A    between atoms: C_9  and  C_10
REMARK    4  A    between atoms: N_12  and  C_13
REMARK    5  A    between atoms: C_13  and  C_14
REMARK    6  A    between atoms: N_21  and  C_22
REMARK                            x       y       z     vdW  Elec       q    Type
REMARK                         _______ _______ _______ _____ _____    ______ ____
ROOT
ATOM      1  C   UNL     1       0.102  13.303  20.126  0.00  0.00    +0.000 C 
ATOM      2  N   UNL     1       0.471  11.901  20.066  0.00  0.00    +0.000 N 
ATOM      3  C   UNL     1       1.140  11.456  18.932  0.00  0.00    +0.000 A 
ATOM      4  O   UNL     1       1.433  12.167  17.974  0.00  0.00    +0.000 OA
ATOM      5  C   UNL     1       1.481  10.060  18.964  0.00  0.00    +0.000 A 
ATOM      6  C   UNL     1       2.134   9.284  17.988  0.00  0.00    +0.000 A 
ATOM      7  C   UNL     1       2.191   8.004  18.478  0.00  0.00    +0.000 A 
ATOM      8  N   UNL     1       1.649   7.984  19.751  0.00  0.00    +0.000 N 
ATOM      9  C   UNL     1       1.143   9.246  20.027  0.00  0.00    +0.000 A 
ATOM     10  N   UNL     1       0.410   9.727  21.117  0.00  0.00    +0.000 N 
ATOM     11  C   UNL     1      -0.085   8.963  22.246  0.00  0.00    +0.000 C 
ATOM     12  C   UNL     1       0.098  11.105  21.155  0.00  0.00    +0.000 A 
ATOM     13  O   UNL     1      -0.490  11.601  22.125  0.00  0.00    +0.000 OA
ENDROOT
BRANCH   8  14
ATOM     14  C   UNL     1       1.639   6.776  20.577  0.00  0.00    +0.000 C 
BRANCH  14  15
ATOM     15  C   UNL     1       2.300   5.566  19.923  0.00  0.00    +0.000 C 
ATOM     16  O   UNL     1       1.642   4.669  19.401  0.00  0.00    +0.000 OA
ATOM     17  N   UNL     1       3.680   5.564  19.944  0.00  0.00    +0.000 N 
ATOM     18  H   UNL     1       4.184   6.327  20.375  0.00  0.00    +0.000 HD
BRANCH  17  19
ATOM     19  C   UNL     1       4.461   4.555  19.256  0.00  0.00    +0.000 C 
BRANCH  19  20
ATOM     20  C   UNL     1       4.804   4.967  17.847  0.00  0.00    +0.000 A 
ATOM     21  C   UNL     1       4.929   3.999  16.839  0.00  0.00    +0.000 A 
ATOM     22  C   UNL     1       5.212   4.376  15.523  0.00  0.00    +0.000 A 
ATOM     23  C   UNL     1       5.382   5.720  15.203  0.00  0.00    +0.000 A 
ATOM     24  C   UNL     1       5.273   6.691  16.196  0.00  0.00    +0.000 A 
ATOM     25  C   UNL     1       4.989   6.317  17.514  0.00  0.00    +0.000 A 
ENDBRANCH  19  20
ENDBRANCH  17  19
ENDBRANCH  14  15
ENDBRANCH   8  14
TORSDOF 4
ENDMDL
MODEL 3
REMARK VINA RESULT:      -6.5      3.808      8.210
REMARK  Name = 
REMARK  6 active torsions:
REMARK  status: ('A' for Active; 'I' for Inactive)
REMARK    1  A    between atoms: C_1  and  N_2
REMARK    2  A    between atoms: N_8  and  C_9
REMARK    3  A    between atoms: C_9  and  C_10
REMARK    4  A    between atoms: N_12  and  C_13
REMARK    5  A    between atoms: C_13  and  C_14
REMARK    6  A    between atoms: N_21  and  C_22
REMARK                            x       y       z     vdW  Elec       q    Type
REMARK                         _______ _______ _______ _____ _____    ______ ____
ROOT
ATOM      1  C   UNL     1      -1.304  13.112  22.475  0.00  0.00    +0.000 C 
ATOM      2  N   UNL     1      -0.582  12.136  21.682  0.00  0.00    +0.000 N 
ATOM      3  C   UNL     1      -0.325  10.897  22.256  0.00  0.00    +0.000 A 
ATOM      4  O   UNL     1      -0.661  10.575  23.393  0.00  0.00    +0.000 OA
ATOM      5  C   UNL     1       0.380   9.988  21.395  0.00  0.00    +0.000 A 
ATOM      6  C   UNL     1       0.815   8.675  21.656  0.00  0.00    +0.000 A 
ATOM      7  C   UNL     1       1.468   8.246  20.529  0.00  0.00    +0.000 A 
ATOM      8  N   UNL     1       1.393   9.231  19.561  0.00  0.00    +0.000 N 
ATOM      9  C   UNL     1       0.779  10.343  20.121  0.00  0.00    +0.000 A 
ATOM     10  N   UNL     1       0.556  11.627  19.612  0.00  0.00    +0.000 N 
ATOM     11  C   UNL     1       0.999  12.153  18.336  0.00  0.00    +0.000 C 
ATOM     12  C   UNL     1      -0.181  12.538  20.402  0.00  0.00    +0.000 A 
ATOM     13  O   UNL     1      -0.468  13.666  19.978  0.00  0.00    +0.000 OA
ENDROOT
BRANCH   8  14
ATOM     14  C   UNL     1       1.924   9.044  18.211  0.00  0.00    +0.000 C 
BRANCH  14  15
ATOM     15  C   UNL     1       2.764   7.781  18.040  0.00  0.00    +0.000 C 
ATOM     16  O   UNL     1       3.993   7.816  18.012  0.00  0.00    +0.000 OA
ATOM     17  N   UNL     1       2.049   6.605  17.940  0.00  0.00    +0.000 N 
ATOM     18  H   UNL     1       1.039   6.619  17.977  0.00  0.00    +0.000 HD
BRANCH  17  19
ATOM     19  C   UNL     1       2.696   5.308  17.902  0.00  0.00    +0.000 C 
BRANCH  19  20
ATOM     20  C   UNL     1       2.234   4.412  19.022  0.00  0.00    +0.000 A 
ATOM     21  C   UNL     1       2.749   4.577  20.317  0.00  0.00    +0.000 A 
ATOM     22  C   UNL     1       2.301   3.773  21.368  0.00  0.00    +0.000 A 
ATOM     23  C   UNL     1       1.340   2.792  21.137  0.00  0.00    +0.000 A 
ATOM     24  C   UNL     1       0.829   2.608  19.854  0.00  0.00    +0.000 A 
ATOM     25  C   UNL     1       1.276   3.412  18.800  0.00  0.00    +0.000 A 
ENDBRANCH  19  20
ENDBRANCH  17  19
ENDBRANCH  14  15
ENDBRANCH   8  14
TORSDOF 4
ENDMDL
MODEL 4
REMARK VINA RESULT:      -6.5      3.895      8.590
REMARK  Name = 
REMARK  6 active torsions:
REMARK  status: ('A' for Active; 'I' for Inactive)
REMARK    1  A    between atoms: C_1  and  N_2
REMARK    2  A    between atoms: N_8  and  C_9
REMARK    3  A    between atoms: C_9  and  C_10
REMARK    4  A    between atoms: N_12  and  C_13
REMARK    5  A    between atoms: C_13  and  C_14
REMARK    6  A    between atoms: N_21  and  C_22
REMARK                            x       y       z     vdW  Elec       q    Type
REMARK                         _______ _______ _______ _____ _____    ______ ____
ROOT
ATOM      1  C   UNL     1      -2.312  12.314  22.909  0.00  0.00    +0.000 C 
ATOM      2  N   UNL     1      -1.455  11.590  21.990  0.00  0.00    +0.000 N 
ATOM      3  C   UNL     1      -0.690  10.548  22.501  0.00  0.00    +0.000 A 
ATOM      4  O   UNL     1      -0.686  10.204  23.680  0.00  0.00    +0.000 OA
ATOM      5  C   UNL     1       0.115   9.876  21.519  0.00  0.00    +0.000 A 
ATOM      6  C   UNL     1       1.013   8.806  21.688  0.00  0.00    +0.000 A 
ATOM      7  C   UNL     1       1.558   8.551  20.456  0.00  0.00    +0.000 A 
ATOM      8  N   UNL     1       0.977   9.391  19.523  0.00  0.00    +0.000 N 
ATOM      9  C   UNL     1       0.131  10.264  20.193  0.00  0.00    +0.000 A 
ATOM     10  N   UNL     1      -0.606  11.363  19.739  0.00  0.00    +0.000 N 
ATOM     11  C   UNL     1      -0.607  11.926  18.403  0.00  0.00    +0.000 C 
ATOM     12  C   UNL     1      -1.455  12.021  20.658  0.00  0.00    +0.000 A 
ATOM     13  O   UNL     1      -2.181  12.958  20.299  0.00  0.00    +0.000 OA
ENDROOT
BRANCH   8  14
ATOM     14  C   UNL     1       1.287   9.308  18.096  0.00  0.00    +0.000 C 
BRANCH  14  15
ATOM     15  C   UNL     1       2.341   8.261  17.745  0.00  0.00    +0.000 C 
ATOM     16  O   UNL     1       3.347   8.543  17.097  0.00  0.00    +0.000 OA
ATOM     17  N   UNL     1       2.094   6.991  18.223  0.00  0.00    +0.000 N 
ATOM     18  H   UNL     1       1.259   6.803  18.761  0.00  0.00    +0.000 HD
BRANCH  17  19
ATOM     19  C   UNL     1       3.055   5.914  18.089  0.00  0.00    +0.000 C 
BRANCH  19  20
ATOM     20  C   UNL     1       2.442   4.568  18.381  0.00  0.00    +0.000 A 
ATOM     21  C   UNL     1       2.767   3.457  17.587  0.00  0.00    +0.000 A 
ATOM     22  C   UNL     1       2.231   2.198  17.872  0.00  0.00    +0.000 A 
ATOM     23  C   UNL     1       1.359   2.038  18.946  0.00  0.00    +0.000 A 
ATOM     24  C   UNL     1       1.018   3.134  19.735  0.00  0.00    +0.000 A 
ATOM     25  C   UNL     1       1.554   4.395  19.452  0.00  0.00    +0.000 A 
ENDBRANCH  19  20
ENDBRANCH  17  19
ENDBRANCH  14  15
ENDBRANCH   8  14
TORSDOF 4
ENDMDL
MODEL 5
REMARK VINA RESULT:      -6.5      2.301      6.765
REMARK  Name = 
REMARK  6 active torsions:
REMARK  status: ('A' for Active; 'I' for Inactive)
REMARK    1  A    between atoms: C_1  and  N_2
REMARK    2  A    between atoms: N_8  and  C_9
REMARK    3  A    between atoms: C_9  and  C_10
REMARK    4  A    between atoms: N_12  and  C_13
REMARK    5  A    between atoms: C_13  and  C_14
REMARK    6  A    between atoms: N_21  and  C_22
REMARK                            x       y       z     vdW  Elec       q    Type
REMARK                         _______ _______ _______ _____ _____    ______ ____
ROOT
ATOM      1  C   UNL     1       1.110   9.738  19.533  0.00  0.00    +0.000 C 
ATOM      2  N   UNL     1       1.668   8.404  19.418  0.00  0.00    +0.000 N 
ATOM      3  C   UNL     1       1.465   7.524  20.475  0.00  0.00    +0.000 A 
ATOM      4  O   UNL     1       0.852   7.802  21.502  0.00  0.00    +0.000 OA
ATOM      5  C   UNL     1       2.036   6.222  20.269  0.00  0.00    +0.000 A 
ATOM      6  C   UNL     1       2.038   5.108  21.129  0.00  0.00    +0.000 A 
ATOM      7  C   UNL     1       2.741   4.119  20.490  0.00  0.00    +0.000 A 
ATOM      8  N   UNL     1       3.117   4.570  19.238  0.00  0.00    +0.000 N 
ATOM      9  C   UNL     1       2.742   5.902  19.126  0.00  0.00    +0.000 A 
ATOM     10  N   UNL     1       2.977   6.844  18.119  0.00  0.00    +0.000 N 
ATOM     11  C   UNL     1       3.772   6.666  16.920  0.00  0.00    +0.000 C 
ATOM     12  C   UNL     1       2.388   8.122  18.252  0.00  0.00    +0.000 A 
ATOM     13  O   UNL     1       2.506   8.975  17.362  0.00  0.00    +0.000 OA
ENDROOT
BRANCH   8  14
ATOM     14  C   UNL     1       3.812   3.716  18.275  0.00  0.00    +0.000 C 
BRANCH  14  15
ATOM     15  C   UNL     1       5.226   4.181  17.934  0.00  0.00    +0.000 C 
ATOM     16  O   UNL     1       6.039   4.480  18.806  0.00  0.00    +0.000 OA
ATOM     17  N   UNL     1       5.527   4.220  16.588  0.00  0.00    +0.000 N 
ATOM     18  H   UNL     1       4.832   3.956  15.904  0.00  0.00    +0.000 HD
BRANCH  17  19
ATOM     19  C   UNL     1       6.861   4.515  16.103  0.00  0.00    +0.000 C 
BRANCH  19  20
ATOM     20  C   UNL     1       6.935   4.489  14.598  0.00  0.00    +0.000 A 
ATOM     21  C   UNL     1       7.801   5.359  13.918  0.00  0.00    +0.000 A 
ATOM     22  C   UNL     1       7.901   5.318  12.525  0.00  0.00    +0.000 A 
ATOM     23  C   UNL     1       7.132   4.414  11.796  0.00  0.00    +0.000 A 
ATOM     24  C   UNL     1       6.258   3.554  12.457  0.00  0.00    +0.000 A 
ATOM     25  C   UNL     1       6.157   3.592  13.851  0.00  0.00    +0.000 A 
ENDBRANCH  19  20
ENDBRANCH  17  19
ENDBRANCH  14  15
ENDBRANCH   8  14
TORSDOF 4
ENDMDL
MODEL 6
REMARK VINA RESULT:      -6.4      3.345      7.660
REMARK  Name = 
REMARK  6 active torsions:
REMARK  status: ('A' for Active; 'I' for Inactive)
REMARK    1  A    between atoms: C_1  and  N_2
REMARK    2  A    between atoms: N_8  and  C_9
REMARK    3  A    between atoms: C_9  and  C_10
REMARK    4  A    between atoms: N_12  and  C_13
REMARK    5  A    between atoms: C_13  and  C_14
REMARK    6  A    between atoms: N_21  and  C_22
REMARK                            x       y       z     vdW  Elec       q    Type
REMARK                         _______ _______ _______ _____ _____    ______ ____
ROOT
ATOM      1  C   UNL     1      -1.208  12.492  21.464  0.00  0.00    +0.000 C 
ATOM      2  N   UNL     1      -0.368  11.454  20.898  0.00  0.00    +0.000 N 
ATOM      3  C   UNL     1      -0.273  10.250  21.586  0.00  0.00    +0.000 A 
ATOM      4  O   UNL     1      -0.847  10.008  22.645  0.00  0.00    +0.000 OA
ATOM      5  C   UNL     1       0.566   9.275  20.946  0.00  0.00    +0.000 A 
ATOM      6  C   UNL     1       0.898   7.974  21.370  0.00  0.00    +0.000 A 
ATOM      7  C   UNL     1       1.755   7.461  20.431  0.00  0.00    +0.000 A 
ATOM      8  N   UNL     1       1.912   8.384  19.412  0.00  0.00    +0.000 N 
ATOM      9  C   UNL     1       1.230   9.540  19.765  0.00  0.00    +0.000 A 
ATOM     10  N   UNL     1       1.156  10.791  19.145  0.00  0.00    +0.000 N 
ATOM     11  C   UNL     1       1.869  11.226  17.959  0.00  0.00    +0.000 C 
ATOM     12  C   UNL     1       0.300  11.765  19.708  0.00  0.00    +0.000 A 
ATOM     13  O   UNL     1       0.143  12.868  19.167  0.00  0.00    +0.000 OA
ENDROOT
BRANCH   8  14
ATOM     14  C   UNL     1       2.705   8.100  18.215  0.00  0.00    +0.000 C 
BRANCH  14  15
ATOM     15  C   UNL     1       3.146   6.644  18.089  0.00  0.00    +0.000 C 
ATOM     16  O   UNL     1       4.306   6.295  18.303  0.00  0.00    +0.000 OA
ATOM     17  N   UNL     1       2.152   5.754  17.740  0.00  0.00    +0.000 N 
ATOM     18  H   UNL     1       1.209   6.080  17.582  0.00  0.00    +0.000 HD
BRANCH  17  19
ATOM     19  C   UNL     1       2.375   4.322  17.703  0.00  0.00    +0.000 C 
BRANCH  19  20
ATOM     20  C   UNL     1       2.397   3.716  19.083  0.00  0.00    +0.000 A 
ATOM     21  C   UNL     1       1.268   3.806  19.912  0.00  0.00    +0.000 A 
ATOM     22  C   UNL     1       1.268   3.217  21.179  0.00  0.00    +0.000 A 
ATOM     23  C   UNL     1       2.396   2.540  21.635  0.00  0.00    +0.000 A 
ATOM     24  C   UNL     1       3.529   2.454  20.828  0.00  0.00    +0.000 A 
ATOM     25  C   UNL     1       3.531   3.042  19.559  0.00  0.00    +0.000 A 
ENDBRANCH  19  20
ENDBRANCH  17  19
ENDBRANCH  14  15
ENDBRANCH   8  14
TORSDOF 4
ENDMDL
MODEL 7
REMARK VINA RESULT:      -6.3      4.793      9.041
REMARK  Name = 
REMARK  6 active torsions:
REMARK  status: ('A' for Active; 'I' for Inactive)
REMARK    1  A    between atoms: C_1  and  N_2
REMARK    2  A    between atoms: N_8  and  C_9
REMARK    3  A    between atoms: C_9  and  C_10
REMARK    4  A    between atoms: N_12  and  C_13
REMARK    5  A    between atoms: C_13  and  C_14
REMARK    6  A    between atoms: N_21  and  C_22
REMARK                            x       y       z     vdW  Elec       q    Type
REMARK                         _______ _______ _______ _____ _____    ______ ____
ROOT
ATOM      1  C   UNL     1      -4.593  13.422  20.401  0.00  0.00    +0.000 C 
ATOM      2  N   UNL     1      -3.447  12.606  20.049  0.00  0.00    +0.000 N 
ATOM      3  C   UNL     1      -3.503  11.890  18.859  0.00  0.00    +0.000 A 
ATOM      4  O   UNL     1      -4.461  11.894  18.090  0.00  0.00    +0.000 OA
ATOM      5  C   UNL     1      -2.320  11.124  18.581  0.00  0.00    +0.000 A 
ATOM      6  C   UNL     1      -2.046  10.278  17.490  0.00  0.00    +0.000 A 
ATOM      7  C   UNL     1      -0.797   9.753  17.703  0.00  0.00    +0.000 A 
ATOM      8  N   UNL     1      -0.270  10.298  18.860  0.00  0.00    +0.000 N 
ATOM      9  C   UNL     1      -1.243  11.097  19.445  0.00  0.00    +0.000 A 
ATOM     10  N   UNL     1      -1.261  11.782  20.664  0.00  0.00    +0.000 N 
ATOM     11  C   UNL     1      -0.242  11.765  21.696  0.00  0.00    +0.000 C 
ATOM     12  C   UNL     1      -2.381  12.593  20.956  0.00  0.00    +0.000 A 
ATOM     13  O   UNL     1      -2.425  13.275  21.989  0.00  0.00    +0.000 OA
ENDROOT
BRANCH   8  14
ATOM     14  C   UNL     1       1.088  10.000  19.317  0.00  0.00    +0.000 C 
BRANCH  14  15
ATOM     15  C   UNL     1       1.811   8.948  18.481  0.00  0.00    +0.000 C 
ATOM     16  O   UNL     1       2.160   9.165  17.322  0.00  0.00    +0.000 OA
ATOM     17  N   UNL     1       2.060   7.753  19.123  0.00  0.00    +0.000 N 
ATOM     18  H   UNL     1       1.766   7.618  20.081  0.00  0.00    +0.000 HD
BRANCH  17  19
ATOM     19  C   UNL     1       2.848   6.698  18.516  0.00  0.00    +0.000 C 
BRANCH  19  20
ATOM     20  C   UNL     1       2.787   5.417  19.307  0.00  0.00    +0.000 A 
ATOM     21  C   UNL     1       1.952   5.320  20.431  0.00  0.00    +0.000 A 
ATOM     22  C   UNL     1       1.863   4.125  21.149  0.00  0.00    +0.000 A 
ATOM     23  C   UNL     1       2.613   3.018  20.759  0.00  0.00    +0.000 A 
ATOM     24  C   UNL     1       3.456   3.104  19.653  0.00  0.00    +0.000 A 
ATOM     25  C   UNL     1       3.546   4.299  18.931  0.00  0.00    +0.000 A 
ENDBRANCH  19  20
ENDBRANCH  17  19
ENDBRANCH  14  15
ENDBRANCH   8  14
TORSDOF 4
ENDMDL
MODEL 8
REMARK VINA RESULT:      -6.3      5.761      8.842
REMARK  Name = 
REMARK  6 active torsions:
REMARK  status: ('A' for Active; 'I' for Inactive)
REMARK    1  A    between atoms: C_1  and  N_2
REMARK    2  A    between atoms: N_8  and  C_9
REMARK    3  A    between atoms: C_9  and  C_10
REMARK    4  A    between atoms: N_12  and  C_13
REMARK    5  A    between atoms: C_13  and  C_14
REMARK    6  A    between atoms: N_21  and  C_22
REMARK                            x       y       z     vdW  Elec       q    Type
REMARK                         _______ _______ _______ _____ _____    ______ ____
ROOT
ATOM      1  C   UNL     1       1.972   8.969  18.224  0.00  0.00    +0.000 C 
ATOM      2  N   UNL     1       1.240   9.573  19.321  0.00  0.00    +0.000 N 
ATOM      3  C   UNL     1       1.071   8.823  20.479  0.00  0.00    +0.000 A 
ATOM      4  O   UNL     1       1.494   7.680  20.633  0.00  0.00    +0.000 OA
ATOM      5  C   UNL     1       0.350   9.505  21.518  0.00  0.00    +0.000 A 
ATOM      6  C   UNL     1      -0.013   9.042  22.796  0.00  0.00    +0.000 A 
ATOM      7  C   UNL     1      -0.719  10.054  23.394  0.00  0.00    +0.000 A 
ATOM      8  N   UNL     1      -0.747  11.147  22.547  0.00  0.00    +0.000 N 
ATOM      9  C   UNL     1      -0.144  10.784  21.351  0.00  0.00    +0.000 A 
ATOM     10  N   UNL     1      -0.007  11.473  20.141  0.00  0.00    +0.000 N 
ATOM     11  C   UNL     1      -0.553  12.774  19.806  0.00  0.00    +0.000 C 
ATOM     12  C   UNL     1       0.742  10.864  19.108  0.00  0.00    +0.000 A 
ATOM     13  O   UNL     1       0.954  11.453  18.040  0.00  0.00    +0.000 OA
ENDROOT
BRANCH   8  14
ATOM     14  C   UNL     1      -1.357  12.420  22.932  0.00  0.00    +0.000 C 
BRANCH  14  15
ATOM     15  C   UNL     1      -2.883  12.421  22.888  0.00  0.00    +0.000 C 
ATOM     16  O   UNL     1      -3.559  11.948  23.800  0.00  0.00    +0.000 OA
ATOM     17  N   UNL     1      -3.441  13.004  21.770  0.00  0.00    +0.000 N 
ATOM     18  H   UNL     1      -2.849  13.390  21.047  0.00  0.00    +0.000 HD
BRANCH  17  19
ATOM     19  C   UNL     1      -4.871  13.200  21.633  0.00  0.00    +0.000 C 
BRANCH  19  20
ATOM     20  C   UNL     1      -5.456  12.359  20.527  0.00  0.00    +0.000 A 
ATOM     21  C   UNL     1      -6.687  11.710  20.708  0.00  0.00    +0.000 A 
ATOM     22  C   UNL     1      -7.253  10.958  19.676  0.00  0.00    +0.000 A 
ATOM     23  C   UNL     1      -6.592  10.838  18.456  0.00  0.00    +0.000 A 
ATOM     24  C   UNL     1      -5.363  11.466  18.267  0.00  0.00    +0.000 A 
ATOM     25  C   UNL     1      -4.795  12.221  19.298  0.00  0.00    +0.000 A 
ENDBRANCH  19  20
ENDBRANCH  17  19
ENDBRANCH  14  15
ENDBRANCH   8  14
TORSDOF 4
ENDMDL
MODEL 9
REMARK VINA RESULT:      -6.3      2.648      4.618
REMARK  Name = 
REMARK  6 active torsions:
REMARK  status: ('A' for Active; 'I' for Inactive)
REMARK    1  A    between atoms: C_1  and  N_2
REMARK    2  A    between atoms: N_8  and  C_9
REMARK    3  A    between atoms: C_9  and  C_10
REMARK    4  A    between atoms: N_12  and  C_13
REMARK    5  A    between atoms: C_13  and  C_14
REMARK    6  A    between atoms: N_21  and  C_22
REMARK                            x       y       z     vdW  Elec       q    Type
REMARK                         _______ _______ _______ _____ _____    ______ ____
ROOT
ATOM      1  C   UNL     1       3.729   1.425  17.975  0.00  0.00    +0.000 C 
ATOM      2  N   UNL     1       3.394   2.787  18.341  0.00  0.00    +0.000 N 
ATOM      3  C   UNL     1       2.483   2.976  19.375  0.00  0.00    +0.000 A 
ATOM      4  O   UNL     1       1.938   2.065  19.994  0.00  0.00    +0.000 OA
ATOM      5  C   UNL     1       2.223   4.355  19.681  0.00  0.00    +0.000 A 
ATOM      6  C   UNL     1       1.351   4.901  20.642  0.00  0.00    +0.000 A 
ATOM      7  C   UNL     1       1.435   6.264  20.519  0.00  0.00    +0.000 A 
ATOM      8  N   UNL     1       2.377   6.573  19.554  0.00  0.00    +0.000 N 
ATOM      9  C   UNL     1       2.817   5.387  18.982  0.00  0.00    +0.000 A 
ATOM     10  N   UNL     1       3.676   5.147  17.905  0.00  0.00    +0.000 N 
ATOM     11  C   UNL     1       4.290   6.132  17.036  0.00  0.00    +0.000 C 
ATOM     12  C   UNL     1       4.004   3.806  17.600  0.00  0.00    +0.000 A 
ATOM     13  O   UNL     1       4.811   3.534  16.701  0.00  0.00    +0.000 OA
ENDROOT
BRANCH   8  14
ATOM     14  C   UNL     1       2.759   7.951  19.246  0.00  0.00    +0.000 C 
BRANCH  14  15
ATOM     15  C   UNL     1       1.607   8.822  18.751  0.00  0.00    +0.000 C 
ATOM     16  O   UNL     1       1.205   8.770  17.590  0.00  0.00    +0.000 OA
ATOM     17  N   UNL     1       1.043   9.650  19.699  0.00  0.00    +0.000 N 
ATOM     18  H   UNL     1       1.397   9.656  20.646  0.00  0.00    +0.000 HD
BRANCH  17  19
ATOM     19  C   UNL     1      -0.139  10.445  19.426  0.00  0.00    +0.000 C 
BRANCH  19  20
ATOM     20  C   UNL     1      -0.781  10.959  20.690  0.00  0.00    +0.000 A 
ATOM     21  C   UNL     1      -1.668  12.044  20.640  0.00  0.00    +0.000 A 
ATOM     22  C   UNL     1      -2.295  12.504  21.802  0.00  0.00    +0.000 A 
ATOM     23  C   UNL     1      -2.035  11.891  23.025  0.00  0.00    +0.000 A 
ATOM     24  C   UNL     1      -1.146  10.821  23.091  0.00  0.00    +0.000 A 
ATOM     25  C   UNL     1      -0.518  10.358  21.930  0.00  0.00    +0.000 A 
ENDBRANCH  19  20
ENDBRANCH  17  19
ENDBRANCH  14  15
ENDBRANCH   8  14
TORSDOF 4
ENDMDL
