MODEL 1
REMARK VINA RESULT:      -8.2      0.000      0.000
REMARK  Name = 
REMARK  2 active torsions:
REMARK  status: ('A' for Active; 'I' for Inactive)
REMARK    1  A    between atoms: C_4  and  C_5
REMARK    2  A    between atoms: C_5  and  C_6
REMARK                            x       y       z     vdW  Elec       q    Type
REMARK                         _______ _______ _______ _____ _____    ______ ____
ROOT
ATOM      1  C   UNL     1       3.076   3.641  16.767  0.00  0.00    +0.000 C 
ATOM      2  C   UNL     1       4.501   3.218  16.400  0.00  0.00    +0.000 C 
ATOM      3  C   UNL     1       5.295   4.412  15.888  0.00  0.00    +0.000 C 
ATOM      4  C   UNL     1       5.576   5.391  17.028  0.00  0.00    +0.000 C 
ATOM      5  C   UNL     1       4.285   5.769  17.791  0.00  0.00    +0.000 C 
ATOM      6  C   UNL     1       2.996   4.992  17.503  0.00  0.00    +0.000 C 
ATOM      7  O   UNL     1       6.330   4.666  18.038  0.00  0.00    +0.000 OA
ATOM      8  O   UNL     1       7.728   5.034  18.062  0.00  0.00    +0.000 OA
ATOM      9  C   UNL     1       7.874   5.886  19.200  0.00  0.00    +0.000 C 
ATOM     10  C   UNL     1       8.398   7.240  18.751  0.00  0.00    +0.000 C 
ATOM     11  C   UNL     1       7.567   7.836  17.622  0.00  0.00    +0.000 C 
ATOM     12  O   UNL     1       7.422   6.876  16.571  0.00  0.00    +0.000 OA
ATOM     13  O   UNL     1       5.997   6.648  16.441  0.00  0.00    +0.000 OA
ENDROOT
BRANCH   1  14
ATOM     14  C   UNL     1       2.368   2.495  17.525  0.00  0.00    +0.000 C 
BRANCH  14  18
ATOM     15  C   UNL     1       2.084   2.931  21.820  0.00  0.00    +0.000 A 
ATOM     16  C   UNL     1       0.958   3.142  21.022  0.00  0.00    +0.000 A 
ATOM     17  C   UNL     1       1.047   3.008  19.633  0.00  0.00    +0.000 A 
ATOM     18  C   UNL     1       2.265   2.671  19.024  0.00  0.00    +0.000 A 
ATOM     19  C   UNL     1       3.384   2.455  19.838  0.00  0.00    +0.000 A 
ATOM     20  C   UNL     1       3.296   2.587  21.225  0.00  0.00    +0.000 A 
ENDBRANCH  14  18
ENDBRANCH   1  14
TORSDOF 2
ENDMDL
MODEL 2
REMARK VINA RESULT:      -8.2      0.138      1.087
REMARK  Name = 
REMARK  2 active torsions:
REMARK  status: ('A' for Active; 'I' for Inactive)
REMARK    1  A    between atoms: C_4  and  C_5
REMARK    2  A    between atoms: C_5  and  C_6
REMARK                            x       y       z     vdW  Elec       q    Type
REMARK                         _______ _______ _______ _____ _____    ______ ____
ROOT
ATOM      1  C   UNL     1       3.069   3.512  16.802  0.00  0.00    +0.000 C 
ATOM      2  C   UNL     1       4.499   3.060  16.493  0.00  0.00    +0.000 C 
ATOM      3  C   UNL     1       5.322   4.225  15.959  0.00  0.00    +0.000 C 
ATOM      4  C   UNL     1       5.582   5.243  17.069  0.00  0.00    +0.000 C 
ATOM      5  C   UNL     1       4.274   5.664  17.779  0.00  0.00    +0.000 C 
ATOM      6  C   UNL     1       2.985   4.891  17.484  0.00  0.00    +0.000 C 
ATOM      7  O   UNL     1       6.298   4.549  18.127  0.00  0.00    +0.000 OA
ATOM      8  O   UNL     1       7.699   4.902  18.178  0.00  0.00    +0.000 OA
ATOM      9  C   UNL     1       7.824   5.795  19.286  0.00  0.00    +0.000 C 
ATOM     10  C   UNL     1       8.377   7.125  18.801  0.00  0.00    +0.000 C 
ATOM     11  C   UNL     1       7.585   7.687  17.627  0.00  0.00    +0.000 C 
ATOM     12  O   UNL     1       7.459   6.689  16.610  0.00  0.00    +0.000 OA
ATOM     13  O   UNL     1       6.035   6.472  16.447  0.00  0.00    +0.000 OA
ENDROOT
BRANCH   1  14
ATOM     14  C   UNL     1       2.327   2.404  17.582  0.00  0.00    +0.000 C 
BRANCH  14  18
ATOM     15  C   UNL     1       2.086   3.040  21.854  0.00  0.00    +0.000 A 
ATOM     16  C   UNL     1       3.284   2.612  21.280  0.00  0.00    +0.000 A 
ATOM     17  C   UNL     1       3.364   2.399  19.901  0.00  0.00    +0.000 A 
ATOM     18  C   UNL     1       2.246   2.602  19.079  0.00  0.00    +0.000 A 
ATOM     19  C   UNL     1       1.052   3.039  19.669  0.00  0.00    +0.000 A 
ATOM     20  C   UNL     1       0.971   3.254  21.046  0.00  0.00    +0.000 A 
ENDBRANCH  14  18
ENDBRANCH   1  14
TORSDOF 2
ENDMDL
MODEL 3
REMARK VINA RESULT:      -7.2      2.221      5.958
REMARK  Name = 
REMARK  2 active torsions:
REMARK  status: ('A' for Active; 'I' for Inactive)
REMARK    1  A    between atoms: C_4  and  C_5
REMARK    2  A    between atoms: C_5  and  C_6
REMARK                            x       y       z     vdW  Elec       q    Type
REMARK                         _______ _______ _______ _____ _____    ______ ____
ROOT
ATOM      1  C   UNL     1       4.784   5.218  16.123  0.00  0.00    +0.000 C 
ATOM      2  C   UNL     1       4.342   6.107  17.289  0.00  0.00    +0.000 C 
ATOM      3  C   UNL     1       2.905   5.792  17.683  0.00  0.00    +0.000 C 
ATOM      4  C   UNL     1       2.825   4.411  18.334  0.00  0.00    +0.000 C 
ATOM      5  C   UNL     1       3.495   3.324  17.460  0.00  0.00    +0.000 C 
ATOM      6  C   UNL     1       4.323   3.754  16.245  0.00  0.00    +0.000 C 
ATOM      7  O   UNL     1       3.685   4.439  19.505  0.00  0.00    +0.000 OA
ATOM      8  O   UNL     1       2.942   4.501  20.743  0.00  0.00    +0.000 OA
ATOM      9  C   UNL     1       2.996   3.180  21.283  0.00  0.00    +0.000 C 
ATOM     10  C   UNL     1       1.583   2.643  21.446  0.00  0.00    +0.000 C 
ATOM     11  C   UNL     1       0.767   2.766  20.166  0.00  0.00    +0.000 C 
ATOM     12  O   UNL     1       0.841   4.108  19.674  0.00  0.00    +0.000 OA
ATOM     13  O   UNL     1       1.432   4.010  18.354  0.00  0.00    +0.000 OA
ENDROOT
BRANCH   1  14
ATOM     14  C   UNL     1       6.309   5.358  15.907  0.00  0.00    +0.000 C 
BRANCH  14  18
ATOM     15  C   UNL     1       8.442   7.148  19.217  0.00  0.00    +0.000 A 
ATOM     16  C   UNL     1       8.110   7.921  18.103  0.00  0.00    +0.000 A 
ATOM     17  C   UNL     1       7.427   7.345  17.028  0.00  0.00    +0.000 A 
ATOM     18  C   UNL     1       7.073   5.987  17.050  0.00  0.00    +0.000 A 
ATOM     19  C   UNL     1       7.406   5.227  18.179  0.00  0.00    +0.000 A 
ATOM     20  C   UNL     1       8.088   5.801  19.253  0.00  0.00    +0.000 A 
ENDBRANCH  14  18
ENDBRANCH   1  14
TORSDOF 2
ENDMDL
MODEL 4
REMARK VINA RESULT:      -7.2      2.848      6.660
REMARK  Name = 
REMARK  2 active torsions:
REMARK  status: ('A' for Active; 'I' for Inactive)
REMARK    1  A    between atoms: C_4  and  C_5
REMARK    2  A    between atoms: C_5  and  C_6
REMARK                            x       y       z     vdW  Elec       q    Type
REMARK                         _______ _______ _______ _____ _____    ______ ____
ROOT
ATOM      1  C   UNL     1       4.987   5.237  16.388  0.00  0.00    +0.000 C 
ATOM      2  C   UNL     1       4.915   5.942  17.745  0.00  0.00    +0.000 C 
ATOM      3  C   UNL     1       3.477   5.984  18.246  0.00  0.00    +0.000 C 
ATOM      4  C   UNL     1       3.009   4.581  18.631  0.00  0.00    +0.000 C 
ATOM      5  C   UNL     1       3.253   3.562  17.494  0.00  0.00    +0.000 C 
ATOM      6  C   UNL     1       4.100   3.982  16.288  0.00  0.00    +0.000 C 
ATOM      7  O   UNL     1       3.903   4.102  19.673  0.00  0.00    +0.000 OA
ATOM      8  O   UNL     1       3.291   4.110  20.982  0.00  0.00    +0.000 OA
ATOM      9  C   UNL     1       2.963   2.746  21.254  0.00  0.00    +0.000 C 
ATOM     10  C   UNL     1       1.466   2.626  21.486  0.00  0.00    +0.000 C 
ATOM     11  C   UNL     1       0.654   3.256  20.362  0.00  0.00    +0.000 C 
ATOM     12  O   UNL     1       1.114   4.590  20.125  0.00  0.00    +0.000 OA
ATOM     13  O   UNL     1       1.564   4.612  18.748  0.00  0.00    +0.000 OA
ENDROOT
BRANCH   1  14
ATOM     14  C   UNL     1       6.463   4.967  16.016  0.00  0.00    +0.000 C 
BRANCH  14  18
ATOM     15  C   UNL     1       7.196   4.263  11.811  0.00  0.00    +0.000 A 
ATOM     16  C   UNL     1       6.236   3.508  12.487  0.00  0.00    +0.000 A 
ATOM     17  C   UNL     1       6.001   3.728  13.847  0.00  0.00    +0.000 A 
ATOM     18  C   UNL     1       6.728   4.699  14.551  0.00  0.00    +0.000 A 
ATOM     19  C   UNL     1       7.682   5.455  13.858  0.00  0.00    +0.000 A 
ATOM     20  C   UNL     1       7.917   5.237  12.498  0.00  0.00    +0.000 A 
ENDBRANCH  14  18
ENDBRANCH   1  14
TORSDOF 2
ENDMDL
MODEL 5
REMARK VINA RESULT:      -7.2      2.230      5.985
REMARK  Name = 
REMARK  2 active torsions:
REMARK  status: ('A' for Active; 'I' for Inactive)
REMARK    1  A    between atoms: C_4  and  C_5
REMARK    2  A    between atoms: C_5  and  C_6
REMARK                            x       y       z     vdW  Elec       q    Type
REMARK                         _______ _______ _______ _____ _____    ______ ____
ROOT
ATOM      1  C   UNL     1       4.741   5.272  16.126  0.00  0.00    +0.000 C 
ATOM      2  C   UNL     1       4.256   6.155  17.279  0.00  0.00    +0.000 C 
ATOM      3  C   UNL     1       2.831   5.786  17.669  0.00  0.00    +0.000 C 
ATOM      4  C   UNL     1       2.804   4.411  18.336  0.00  0.00    +0.000 C 
ATOM      5  C   UNL     1       3.523   3.342  17.480  0.00  0.00    +0.000 C 
ATOM      6  C   UNL     1       4.339   3.791  16.263  0.00  0.00    +0.000 C 
ATOM      7  O   UNL     1       3.656   4.489  19.512  0.00  0.00    +0.000 OA
ATOM      8  O   UNL     1       2.904   4.534  20.745  0.00  0.00    +0.000 OA
ATOM      9  C   UNL     1       3.010   3.223  21.301  0.00  0.00    +0.000 C 
ATOM     10  C   UNL     1       1.619   2.631  21.464  0.00  0.00    +0.000 C 
ATOM     11  C   UNL     1       0.805   2.705  20.179  0.00  0.00    +0.000 C 
ATOM     12  O   UNL     1       0.827   4.042  19.670  0.00  0.00    +0.000 OA
ATOM     13  O   UNL     1       1.428   3.953  18.355  0.00  0.00    +0.000 OA
ENDROOT
BRANCH   1  14
ATOM     14  C   UNL     1       6.259   5.472  15.916  0.00  0.00    +0.000 C 
BRANCH  14  18
ATOM     15  C   UNL     1       8.455   7.156  19.240  0.00  0.00    +0.000 A 
ATOM     16  C   UNL     1       8.056   5.819  19.275  0.00  0.00    +0.000 A 
ATOM     17  C   UNL     1       7.340   5.273  18.206  0.00  0.00    +0.000 A 
ATOM     18  C   UNL     1       7.007   6.058  17.092  0.00  0.00    +0.000 A 
ATOM     19  C   UNL     1       7.422   7.396  17.068  0.00  0.00    +0.000 A 
ATOM     20  C   UNL     1       8.138   7.943  18.135  0.00  0.00    +0.000 A 
ENDBRANCH  14  18
ENDBRANCH   1  14
TORSDOF 2
ENDMDL
MODEL 6
REMARK VINA RESULT:      -7.1      4.303      6.322
REMARK  Name = 
REMARK  2 active torsions:
REMARK  status: ('A' for Active; 'I' for Inactive)
REMARK    1  A    between atoms: C_4  and  C_5
REMARK    2  A    between atoms: C_5  and  C_6
REMARK                            x       y       z     vdW  Elec       q    Type
REMARK                         _______ _______ _______ _____ _____    ______ ____
ROOT
ATOM      1  C   UNL     1       2.628   8.163  18.409  0.00  0.00    +0.000 C 
ATOM      2  C   UNL     1       3.449   7.423  17.351  0.00  0.00    +0.000 C 
ATOM      3  C   UNL     1       4.426   6.460  18.013  0.00  0.00    +0.000 C 
ATOM      4  C   UNL     1       3.671   5.295  18.651  0.00  0.00    +0.000 C 
ATOM      5  C   UNL     1       2.537   5.786  19.582  0.00  0.00    +0.000 C 
ATOM      6  C   UNL     1       2.159   7.270  19.573  0.00  0.00    +0.000 C 
ATOM      7  O   UNL     1       2.933   4.629  17.590  0.00  0.00    +0.000 OA
ATOM      8  O   UNL     1       3.523   3.367  17.206  0.00  0.00    +0.000 OA
ATOM      9  C   UNL     1       2.696   2.366  17.802  0.00  0.00    +0.000 C 
ATOM     10  C   UNL     1       3.537   1.509  18.734  0.00  0.00    +0.000 C 
ATOM     11  C   UNL     1       4.330   2.345  19.730  0.00  0.00    +0.000 C 
ATOM     12  O   UNL     1       5.061   3.360  19.034  0.00  0.00    +0.000 OA
ATOM     13  O   UNL     1       4.579   4.621  19.559  0.00  0.00    +0.000 OA
ENDROOT
BRANCH   1  14
ATOM     14  C   UNL     1       1.471   8.932  17.731  0.00  0.00    +0.000 C 
BRANCH  14  18
ATOM     15  C   UNL     1       0.110  12.420  19.898  0.00  0.00    +0.000 A 
ATOM     16  C   UNL     1      -0.669  11.262  19.883  0.00  0.00    +0.000 A 
ATOM     17  C   UNL     1      -0.236  10.135  19.178  0.00  0.00    +0.000 A 
ATOM     18  C   UNL     1       0.977  10.154  18.473  0.00  0.00    +0.000 A 
ATOM     19  C   UNL     1       1.751  11.321  18.504  0.00  0.00    +0.000 A 
ATOM     20  C   UNL     1       1.320  12.447  19.209  0.00  0.00    +0.000 A 
ENDBRANCH  14  18
ENDBRANCH   1  14
TORSDOF 2
ENDMDL
MODEL 7
REMARK VINA RESULT:      -7.1      2.846      6.702
REMARK  Name = 
REMARK  2 active torsions:
REMARK  status: ('A' for Active; 'I' for Inactive)
REMARK    1  A    between atoms: C_4  and  C_5
REMARK    2  A    between atoms: C_5  and  C_6
REMARK                            x       y       z     vdW  Elec       q    Type
REMARK                         _______ _______ _______ _____ _____    ______ ____
ROOT
ATOM      1  C   UNL     1       5.260   5.161  16.362  0.00  0.00    +0.000 C 
ATOM      2  C   UNL     1       5.375   5.712  17.786  0.00  0.00    +0.000 C 
ATOM      3  C   UNL     1       3.992   5.990  18.362  0.00  0.00    +0.000 C 
ATOM      4  C   UNL     1       3.254   4.678  18.625  0.00  0.00    +0.000 C 
ATOM      5  C   UNL     1       3.248   3.762  17.378  0.00  0.00    +0.000 C 
ATOM      6  C   UNL     1       4.129   4.132  16.181  0.00  0.00    +0.000 C 
ATOM      7  O   UNL     1       4.059   3.915  19.565  0.00  0.00    +0.000 OA
ATOM      8  O   UNL     1       3.499   3.902  20.898  0.00  0.00    +0.000 OA
ATOM      9  C   UNL     1       2.902   2.613  21.045  0.00  0.00    +0.000 C 
ATOM     10  C   UNL     1       1.420   2.775  21.339  0.00  0.00    +0.000 C 
ATOM     11  C   UNL     1       0.725   3.677  20.328  0.00  0.00    +0.000 C 
ATOM     12  O   UNL     1       1.445   4.908  20.205  0.00  0.00    +0.000 OA
ATOM     13  O   UNL     1       1.851   4.989  18.817  0.00  0.00    +0.000 OA
ENDROOT
BRANCH   1  14
ATOM     14  C   UNL     1       6.637   4.640  15.891  0.00  0.00    +0.000 C 
BRANCH  14  18
ATOM     15  C   UNL     1       7.212   4.370  11.612  0.00  0.00    +0.000 A 
ATOM     16  C   UNL     1       7.900   5.336  12.347  0.00  0.00    +0.000 A 
ATOM     17  C   UNL     1       7.712   5.431  13.730  0.00  0.00    +0.000 A 
ATOM     18  C   UNL     1       6.828   4.567  14.393  0.00  0.00    +0.000 A 
ATOM     19  C   UNL     1       6.150   3.597  13.642  0.00  0.00    +0.000 A 
ATOM     20  C   UNL     1       6.338   3.500  12.262  0.00  0.00    +0.000 A 
ENDBRANCH  14  18
ENDBRANCH   1  14
TORSDOF 2
ENDMDL
MODEL 8
REMARK VINA RESULT:      -7.1      4.335      6.392
REMARK  Name = 
REMARK  2 active torsions:
REMARK  status: ('A' for Active; 'I' for Inactive)
REMARK    1  A    between atoms: C_4  and  C_5
REMARK    2  A    between atoms: C_5  and  C_6
REMARK                            x       y       z     vdW  Elec       q    Type
REMARK                         _______ _______ _______ _____ _____    ______ ____
ROOT
ATOM      1  C   UNL     1       2.609   8.205  18.399  0.00  0.00    +0.000 C 
ATOM      2  C   UNL     1       3.422   7.462  17.335  0.00  0.00    +0.000 C 
ATOM      3  C   UNL     1       4.405   6.501  17.991  0.00  0.00    +0.000 C 
ATOM      4  C   UNL     1       3.656   5.337  18.638  0.00  0.00    +0.000 C 
ATOM      5  C   UNL     1       2.529   5.829  19.577  0.00  0.00    +0.000 C 
ATOM      6  C   UNL     1       2.150   7.313  19.568  0.00  0.00    +0.000 C 
ATOM      7  O   UNL     1       2.909   4.669  17.584  0.00  0.00    +0.000 OA
ATOM      8  O   UNL     1       3.497   3.407  17.197  0.00  0.00    +0.000 OA
ATOM      9  C   UNL     1       2.676   2.407  17.803  0.00  0.00    +0.000 C 
ATOM     10  C   UNL     1       3.524   1.551  18.730  0.00  0.00    +0.000 C 
ATOM     11  C   UNL     1       4.325   2.390  19.717  0.00  0.00    +0.000 C 
ATOM     12  O   UNL     1       5.050   3.403  19.013  0.00  0.00    +0.000 OA
ATOM     13  O   UNL     1       4.571   4.666  19.540  0.00  0.00    +0.000 OA
ENDROOT
BRANCH   1  14
ATOM     14  C   UNL     1       1.446   8.972  17.728  0.00  0.00    +0.000 C 
BRANCH  14  18
ATOM     15  C   UNL     1      -0.103  12.388  19.883  0.00  0.00    +0.000 A 
ATOM     16  C   UNL     1       1.159  12.453  19.289  0.00  0.00    +0.000 A 
ATOM     17  C   UNL     1       1.666  11.349  18.597  0.00  0.00    +0.000 A 
ATOM     18  C   UNL     1       0.922  10.163  18.498  0.00  0.00    +0.000 A 
ATOM     19  C   UNL     1      -0.346  10.116  19.092  0.00  0.00    +0.000 A 
ATOM     20  C   UNL     1      -0.854  11.219  19.783  0.00  0.00    +0.000 A 
ENDBRANCH  14  18
ENDBRANCH   1  14
TORSDOF 2
ENDMDL
MODEL 9
REMARK VINA RESULT:      -6.9      2.339      4.018
REMARK  Name = 
REMARK  2 active torsions:
REMARK  status: ('A' for Active; 'I' for Inactive)
REMARK    1  A    between atoms: C_4  and  C_5
REMARK    2  A    between atoms: C_5  and  C_6
REMARK                            x       y       z     vdW  Elec       q    Type
REMARK                         _______ _______ _______ _____ _____    ______ ____
ROOT
ATOM      1  C   UNL     1       5.824   5.416  18.590  0.00  0.00    +0.000 C 
ATOM      2  C   UNL     1       4.906   5.918  17.472  0.00  0.00    +0.000 C 
ATOM      3  C   UNL     1       5.731   6.412  16.290  0.00  0.00    +0.000 C 
ATOM      4  C   UNL     1       6.412   5.237  15.590  0.00  0.00    +0.000 C 
ATOM      5  C   UNL     1       7.200   4.353  16.586  0.00  0.00    +0.000 C 
ATOM      6  C   UNL     1       7.024   4.590  18.090  0.00  0.00    +0.000 C 
ATOM      7  O   UNL     1       5.361   4.336  15.144  0.00  0.00    +0.000 OA
ATOM      8  O   UNL     1       5.143   4.396  13.717  0.00  0.00    +0.000 OA
ATOM      9  C   UNL     1       5.762   3.221  13.190  0.00  0.00    +0.000 C 
ATOM     10  C   UNL     1       6.833   3.621  12.189  0.00  0.00    +0.000 C 
ATOM     11  C   UNL     1       7.807   4.642  12.762  0.00  0.00    +0.000 C 
ATOM     12  O   UNL     1       7.081   5.738  13.327  0.00  0.00    +0.000 OA
ATOM     13  O   UNL     1       7.447   5.772  14.728  0.00  0.00    +0.000 OA
ENDROOT
BRANCH   1  14
ATOM     14  C   UNL     1       4.987   4.681  19.662  0.00  0.00    +0.000 C 
BRANCH  14  18
ATOM     15  C   UNL     1       1.450   2.618  18.265  0.00  0.00    +0.000 A 
ATOM     16  C   UNL     1       2.715   2.172  17.877  0.00  0.00    +0.000 A 
ATOM     17  C   UNL     1       3.861   2.840  18.322  0.00  0.00    +0.000 A 
ATOM     18  C   UNL     1       3.756   3.967  19.151  0.00  0.00    +0.000 A 
ATOM     19  C   UNL     1       2.480   4.397  19.538  0.00  0.00    +0.000 A 
ATOM     20  C   UNL     1       1.335   3.731  19.095  0.00  0.00    +0.000 A 
ENDBRANCH  14  18
ENDBRANCH   1  14
TORSDOF 2
ENDMDL
