MODEL 1
REMARK VINA RESULT:      -6.9      0.000      0.000
REMARK  Name = 
REMARK  12 active torsions:
REMARK  status: ('A' for Active; 'I' for Inactive)
REMARK    1  A    between atoms: CG2_1  and  CB_2
REMARK    2  A    between atoms: CB_2  and  OG1_3
REMARK    3  A    between atoms: CB_2  and  CA_4
REMARK    4  A    between atoms: CA_4  and  N_5
REMARK    5  A    between atoms: CA_4  and  C_6
REMARK    6  A    between atoms: CA_12  and  C_13
REMARK    7  A    between atoms: N_15  and  CA_16
REMARK    8  A    between atoms: CA_16  and  CB_17
REMARK    9  A    between atoms: CA_16  and  C_19
REMARK   10  A    between atoms: CB_17  and  OG_18
REMARK   11  A    between atoms: CA_25  and  C_26
REMARK   12  A    between atoms: C_26  and  OXT_28
REMARK                            x       y       z     vdW  Elec       q    Type
REMARK                         _______ _______ _______ _____ _____    ______ ____
ROOT
ATOM      1  C   PRO A   2       1.866   8.538  18.943  0.00  0.00    +0.000 C 
ATOM      2  O   PRO A   2       1.409   8.633  17.807  0.00  0.00    +0.000 OA
ATOM      3  N   SER A   3       2.707   7.489  19.294  0.00  0.00    +0.000 N 
ATOM      4  H   SER A   3       3.094   7.412  20.229  0.00  0.00    +0.000 HD
ENDROOT
BRANCH   1  11
ATOM      5  C   THR A   1       0.117  11.342  19.026  0.00  0.00    +0.000 C 
ATOM      6  O   THR A   1       1.124  11.872  18.554  0.00  0.00    +0.000 OA
ATOM      7  N   PRO A   2       0.207  10.186  19.800  0.00  0.00    +0.000 N 
ATOM      8  CD  PRO A   2      -0.871   9.405  20.380  0.00  0.00    +0.000 C 
ATOM      9  CG  PRO A   2      -0.264   8.968  21.701  0.00  0.00    +0.000 C 
ATOM     10  CB  PRO A   2       1.204   8.694  21.360  0.00  0.00    +0.000 C 
ATOM     11  CA  PRO A   2       1.487   9.517  20.084  0.00  0.00    +0.000 C 
BRANCH   5  12
ATOM     12  CA  THR A   1      -1.290  12.021  18.926  0.00  0.00    +0.000 C 
BRANCH  12  13
ATOM     13  N   THR A   1      -1.079  13.497  18.865  0.00  0.00    +0.000 NA
ATOM     14  H1  THR A   1      -0.885  13.714  17.880  0.00  0.00    +0.000 HD
ATOM     15  H2  THR A   1      -0.234  13.742  19.377  0.00  0.00    +0.000 HD
ENDBRANCH  12  13
BRANCH  12  17
ATOM     16  CG2 THR A   1      -3.559  11.120  18.029  0.00  0.00    +0.000 C 
ATOM     17  CB  THR A   1      -2.156  11.617  17.695  0.00  0.00    +0.000 C 
BRANCH  17  18
ATOM     18  OG1 THR A   1      -1.489  10.686  16.834  0.00  0.00    +0.000 OA
ATOM     19  HG1 THR A   1      -1.225  11.167  16.028  0.00  0.00    +0.000 HD
ENDBRANCH  17  18
ENDBRANCH  12  17
ENDBRANCH   5  12
ENDBRANCH   1  11
BRANCH   3  20
ATOM     20  CA  SER A   3       3.079   6.477  18.285  0.00  0.00    +0.000 C 
BRANCH  20  21
ATOM     21  C   SER A   3       3.650   5.205  18.982  0.00  0.00    +0.000 C 
ATOM     22  O   SER A   3       4.850   5.125  19.277  0.00  0.00    +0.000 OA
ATOM     23  N   PRO A   4       2.813   4.183  19.384  0.00  0.00    +0.000 N 
ATOM     24  CD  PRO A   4       1.378   4.049  19.201  0.00  0.00    +0.000 C 
ATOM     25  CG  PRO A   4       0.914   3.486  20.532  0.00  0.00    +0.000 C 
ATOM     26  CB  PRO A   4       2.031   2.527  20.926  0.00  0.00    +0.000 C 
ATOM     27  CA  PRO A   4       3.293   3.079  20.250  0.00  0.00    +0.000 C 
BRANCH  27  28
ATOM     28  C   PRO A   4       4.035   1.973  19.470  0.00  0.00    +0.000 C 
ATOM     29  O   PRO A   4       3.645   1.412  18.464  0.00  0.00    +0.000 OA
BRANCH  28  30
ATOM     30  OXT PRO A   4       5.200   1.613  20.084  0.00  0.00    +0.000 OA
ATOM     31  HXT PRO A   4       5.194   1.739  21.063  0.00  0.00    +0.000 HD
ENDBRANCH  28  30
ENDBRANCH  27  28
ENDBRANCH  20  21
BRANCH  20  32
ATOM     32  CB  SER A   3       4.079   7.073  17.273  0.00  0.00    +0.000 C 
BRANCH  32  33
ATOM     33  OG  SER A   3       4.797   6.077  16.548  0.00  0.00    +0.000 OA
ATOM     34  H   SER A   3       5.526   6.520  16.080  0.00  0.00    +0.000 HD
ENDBRANCH  32  33
ENDBRANCH  20  32
ENDBRANCH   3  20
TORSDOF 11
ENDMDL
MODEL 2
REMARK VINA RESULT:      -6.8      2.408      8.229
REMARK  Name = 
REMARK  12 active torsions:
REMARK  status: ('A' for Active; 'I' for Inactive)
REMARK    1  A    between atoms: CG2_1  and  CB_2
REMARK    2  A    between atoms: CB_2  and  OG1_3
REMARK    3  A    between atoms: CB_2  and  CA_4
REMARK    4  A    between atoms: CA_4  and  N_5
REMARK    5  A    between atoms: CA_4  and  C_6
REMARK    6  A    between atoms: CA_12  and  C_13
REMARK    7  A    between atoms: N_15  and  CA_16
REMARK    8  A    between atoms: CA_16  and  CB_17
REMARK    9  A    between atoms: CA_16  and  C_19
REMARK   10  A    between atoms: CB_17  and  OG_18
REMARK   11  A    between atoms: CA_25  and  C_26
REMARK   12  A    between atoms: C_26  and  OXT_28
REMARK                            x       y       z     vdW  Elec       q    Type
REMARK                         _______ _______ _______ _____ _____    ______ ____
ROOT
ATOM      1  C   PRO A   2       2.117   5.020  18.268  0.00  0.00    +0.000 C 
ATOM      2  O   PRO A   2       1.067   4.614  18.760  0.00  0.00    +0.000 OA
ATOM      3  N   SER A   3       2.494   6.354  18.379  0.00  0.00    +0.000 N 
ATOM      4  H   SER A   3       3.364   6.691  17.982  0.00  0.00    +0.000 HD
ENDROOT
BRANCH   1  11
ATOM      5  C   THR A   1       5.389   4.977  17.801  0.00  0.00    +0.000 C 
ATOM      6  O   THR A   1       5.198   5.928  17.043  0.00  0.00    +0.000 OA
ATOM      7  N   PRO A   2       4.390   4.033  18.038  0.00  0.00    +0.000 N 
ATOM      8  CD  PRO A   2       4.425   2.893  18.937  0.00  0.00    +0.000 C 
ATOM      9  CG  PRO A   2       3.635   1.856  18.157  0.00  0.00    +0.000 C 
ATOM     10  CB  PRO A   2       2.523   2.668  17.487  0.00  0.00    +0.000 C 
ATOM     11  CA  PRO A   2       3.054   4.117  17.427  0.00  0.00    +0.000 C 
BRANCH   5  12
ATOM     12  CA  THR A   1       6.802   4.682  18.406  0.00  0.00    +0.000 C 
BRANCH  12  13
ATOM     13  N   THR A   1       7.747   4.473  17.271  0.00  0.00    +0.000 NA
ATOM     14  H1  THR A   1       7.230   4.731  16.422  0.00  0.00    +0.000 HD
ATOM     15  H2  THR A   1       7.957   3.481  17.179  0.00  0.00    +0.000 HD
ENDBRANCH  12  13
BRANCH  12  17
ATOM     16  CG2 THR A   1       8.139   6.905  18.580  0.00  0.00    +0.000 C 
ATOM     17  CB  THR A   1       7.399   5.794  19.318  0.00  0.00    +0.000 C 
BRANCH  17  18
ATOM     18  OG1 THR A   1       8.217   5.264  20.370  0.00  0.00    +0.000 OA
ATOM     19  HG1 THR A   1       7.672   4.638  20.880  0.00  0.00    +0.000 HD
ENDBRANCH  17  18
ENDBRANCH  12  17
ENDBRANCH   5  12
ENDBRANCH   1  11
BRANCH   3  20
ATOM     20  CA  SER A   3       1.633   7.301  19.116  0.00  0.00    +0.000 C 
BRANCH  20  21
ATOM     21  C   SER A   3       1.707   8.714  18.464  0.00  0.00    +0.000 C 
ATOM     22  O   SER A   3       2.371   8.909  17.436  0.00  0.00    +0.000 OA
ATOM     23  N   PRO A   4       0.949   9.760  18.953  0.00  0.00    +0.000 N 
ATOM     24  CD  PRO A   4       0.065   9.789  20.105  0.00  0.00    +0.000 C 
ATOM     25  CG  PRO A   4      -1.120  10.596  19.608  0.00  0.00    +0.000 C 
ATOM     26  CB  PRO A   4      -0.484  11.666  18.728  0.00  0.00    +0.000 C 
ATOM     27  CA  PRO A   4       0.823  11.041  18.217  0.00  0.00    +0.000 C 
BRANCH  27  28
ATOM     28  C   PRO A   4       2.017  11.991  18.440  0.00  0.00    +0.000 C 
ATOM     29  O   PRO A   4       2.187  12.729  19.391  0.00  0.00    +0.000 OA
BRANCH  28  30
ATOM     30  OXT PRO A   4       2.880  11.978  17.382  0.00  0.00    +0.000 OA
ATOM     31  HXT PRO A   4       3.297  12.853  17.193  0.00  0.00    +0.000 HD
ENDBRANCH  28  30
ENDBRANCH  27  28
ENDBRANCH  20  21
BRANCH  20  32
ATOM     32  CB  SER A   3       2.031   7.336  20.606  0.00  0.00    +0.000 C 
BRANCH  32  33
ATOM     33  OG  SER A   3       2.137   6.037  21.184  0.00  0.00    +0.000 OA
ATOM     34  H   SER A   3       2.569   6.133  22.051  0.00  0.00    +0.000 HD
ENDBRANCH  32  33
ENDBRANCH  20  32
ENDBRANCH   3  20
TORSDOF 11
ENDMDL
MODEL 3
REMARK VINA RESULT:      -6.7      2.311      3.526
REMARK  Name = 
REMARK  12 active torsions:
REMARK  status: ('A' for Active; 'I' for Inactive)
REMARK    1  A    between atoms: CG2_1  and  CB_2
REMARK    2  A    between atoms: CB_2  and  OG1_3
REMARK    3  A    between atoms: CB_2  and  CA_4
REMARK    4  A    between atoms: CA_4  and  N_5
REMARK    5  A    between atoms: CA_4  and  C_6
REMARK    6  A    between atoms: CA_12  and  C_13
REMARK    7  A    between atoms: N_15  and  CA_16
REMARK    8  A    between atoms: CA_16  and  CB_17
REMARK    9  A    between atoms: CA_16  and  C_19
REMARK   10  A    between atoms: CB_17  and  OG_18
REMARK   11  A    between atoms: CA_25  and  C_26
REMARK   12  A    between atoms: C_26  and  OXT_28
REMARK                            x       y       z     vdW  Elec       q    Type
REMARK                         _______ _______ _______ _____ _____    ______ ____
ROOT
ATOM      1  C   PRO A   2       1.819   7.681  20.276  0.00  0.00    +0.000 C 
ATOM      2  O   PRO A   2       1.526   6.681  20.927  0.00  0.00    +0.000 OA
ATOM      3  N   SER A   3       2.555   7.583  19.101  0.00  0.00    +0.000 N 
ATOM      4  H   SER A   3       2.791   8.405  18.555  0.00  0.00    +0.000 HD
ENDROOT
BRANCH   1  11
ATOM      5  C   THR A   1       0.091  10.141  18.901  0.00  0.00    +0.000 C 
ATOM      6  O   THR A   1       1.092  10.329  18.208  0.00  0.00    +0.000 OA
ATOM      7  N   PRO A   2       0.189   9.559  20.165  0.00  0.00    +0.000 N 
ATOM      8  CD  PRO A   2      -0.883   9.215  21.081  0.00  0.00    +0.000 C 
ATOM      9  CG  PRO A   2      -0.254   9.525  22.428  0.00  0.00    +0.000 C 
ATOM     10  CB  PRO A   2       1.205   9.090  22.262  0.00  0.00    +0.000 C 
ATOM     11  CA  PRO A   2       1.468   9.118  20.741  0.00  0.00    +0.000 C 
BRANCH   5  12
ATOM     12  CA  THR A   1      -1.313  10.688  18.478  0.00  0.00    +0.000 C 
BRANCH  12  13
ATOM     13  N   THR A   1      -1.112  12.045  17.890  0.00  0.00    +0.000 NA
ATOM     14  H1  THR A   1      -1.540  12.705  18.550  0.00  0.00    +0.000 HD
ATOM     15  H2  THR A   1      -1.647  12.126  17.028  0.00  0.00    +0.000 HD
ENDBRANCH  12  13
BRANCH  12  17
ATOM     16  CG2 THR A   1      -2.376  10.532  16.110  0.00  0.00    +0.000 C 
ATOM     17  CB  THR A   1      -2.094   9.833  17.437  0.00  0.00    +0.000 C 
BRANCH  17  18
ATOM     18  OG1 THR A   1      -3.302   9.279  17.974  0.00  0.00    +0.000 OA
ATOM     19  HG1 THR A   1      -3.054   8.690  18.711  0.00  0.00    +0.000 HD
ENDBRANCH  17  18
ENDBRANCH  12  17
ENDBRANCH   5  12
ENDBRANCH   1  11
BRANCH   3  20
ATOM     20  CA  SER A   3       2.981   6.256  18.610  0.00  0.00    +0.000 C 
BRANCH  20  21
ATOM     21  C   SER A   3       4.220   6.401  17.677  0.00  0.00    +0.000 C 
ATOM     22  O   SER A   3       4.167   7.086  16.647  0.00  0.00    +0.000 OA
ATOM     23  N   PRO A   4       5.439   5.855  18.030  0.00  0.00    +0.000 N 
ATOM     24  CD  PRO A   4       5.780   5.052  19.191  0.00  0.00    +0.000 C 
ATOM     25  CG  PRO A   4       7.136   5.598  19.599  0.00  0.00    +0.000 C 
ATOM     26  CB  PRO A   4       7.821   5.891  18.270  0.00  0.00    +0.000 C 
ATOM     27  CA  PRO A   4       6.680   6.172  17.283  0.00  0.00    +0.000 C 
BRANCH  27  28
ATOM     28  C   PRO A   4       6.843   5.341  15.994  0.00  0.00    +0.000 C 
ATOM     29  O   PRO A   4       7.497   4.323  15.867  0.00  0.00    +0.000 OA
BRANCH  28  30
ATOM     30  OXT PRO A   4       6.208   5.919  14.932  0.00  0.00    +0.000 OA
ATOM     31  HXT PRO A   4       5.711   5.282  14.365  0.00  0.00    +0.000 HD
ENDBRANCH  28  30
ENDBRANCH  27  28
ENDBRANCH  20  21
BRANCH  20  32
ATOM     32  CB  SER A   3       1.809   5.548  17.900  0.00  0.00    +0.000 C 
BRANCH  32  33
ATOM     33  OG  SER A   3       1.674   4.180  18.280  0.00  0.00    +0.000 OA
ATOM     34  H   SER A   3       2.541   3.753  18.159  0.00  0.00    +0.000 HD
ENDBRANCH  32  33
ENDBRANCH  20  32
ENDBRANCH   3  20
TORSDOF 11
ENDMDL
MODEL 4
REMARK VINA RESULT:      -6.6      2.156      3.454
REMARK  Name = 
REMARK  12 active torsions:
REMARK  status: ('A' for Active; 'I' for Inactive)
REMARK    1  A    between atoms: CG2_1  and  CB_2
REMARK    2  A    between atoms: CB_2  and  OG1_3
REMARK    3  A    between atoms: CB_2  and  CA_4
REMARK    4  A    between atoms: CA_4  and  N_5
REMARK    5  A    between atoms: CA_4  and  C_6
REMARK    6  A    between atoms: CA_12  and  C_13
REMARK    7  A    between atoms: N_15  and  CA_16
REMARK    8  A    between atoms: CA_16  and  CB_17
REMARK    9  A    between atoms: CA_16  and  C_19
REMARK   10  A    between atoms: CB_17  and  OG_18
REMARK   11  A    between atoms: CA_25  and  C_26
REMARK   12  A    between atoms: C_26  and  OXT_28
REMARK                            x       y       z     vdW  Elec       q    Type
REMARK                         _______ _______ _______ _____ _____    ______ ____
ROOT
ATOM      1  C   PRO A   2       1.646   7.388  20.351  0.00  0.00    +0.000 C 
ATOM      2  O   PRO A   2       1.043   6.569  21.039  0.00  0.00    +0.000 OA
ATOM      3  N   SER A   3       2.492   6.983  19.326  0.00  0.00    +0.000 N 
ATOM      4  H   SER A   3       2.984   7.656  18.749  0.00  0.00    +0.000 HD
ENDROOT
BRANCH   1  11
ATOM      5  C   THR A   1       0.180   9.889  18.761  0.00  0.00    +0.000 C 
ATOM      6  O   THR A   1       1.114   9.804  17.963  0.00  0.00    +0.000 OA
ATOM      7  N   PRO A   2       0.326   9.483  20.087  0.00  0.00    +0.000 N 
ATOM      8  CD  PRO A   2      -0.677   9.460  21.136  0.00  0.00    +0.000 C 
ATOM      9  CG  PRO A   2       0.139   9.845  22.357  0.00  0.00    +0.000 C 
ATOM     10  CB  PRO A   2       1.485   9.148  22.135  0.00  0.00    +0.000 C 
ATOM     11  CA  PRO A   2       1.578   8.915  20.612  0.00  0.00    +0.000 C 
BRANCH   5  12
ATOM     12  CA  THR A   1      -1.160  10.603  18.381  0.00  0.00    +0.000 C 
BRANCH  12  13
ATOM     13  N   THR A   1      -0.819  11.957  17.854  0.00  0.00    +0.000 NA
ATOM     14  H1  THR A   1      -1.266  12.022  16.932  0.00  0.00    +0.000 HD
ATOM     15  H2  THR A   1       0.183  12.015  17.683  0.00  0.00    +0.000 HD
ENDBRANCH  12  13
BRANCH  12  17
ATOM     16  CG2 THR A   1      -2.410  10.744  16.105  0.00  0.00    +0.000 C 
ATOM     17  CB  THR A   1      -2.036   9.887  17.310  0.00  0.00    +0.000 C 
BRANCH  17  18
ATOM     18  OG1 THR A   1      -3.207   9.280  17.872  0.00  0.00    +0.000 OA
ATOM     19  HG1 THR A   1      -3.483   8.563  17.272  0.00  0.00    +0.000 HD
ENDBRANCH  17  18
ENDBRANCH  12  17
ENDBRANCH   5  12
ENDBRANCH   1  11
BRANCH   3  20
ATOM     20  CA  SER A   3       2.662   5.543  19.040  0.00  0.00    +0.000 C 
BRANCH  20  21
ATOM     21  C   SER A   3       4.176   5.186  18.957  0.00  0.00    +0.000 C 
ATOM     22  O   SER A   3       4.671   4.331  19.705  0.00  0.00    +0.000 OA
ATOM     23  N   PRO A   4       4.981   5.736  17.979  0.00  0.00    +0.000 N 
ATOM     24  CD  PRO A   4       4.646   6.718  16.964  0.00  0.00    +0.000 C 
ATOM     25  CG  PRO A   4       5.367   6.200  15.734  0.00  0.00    +0.000 C 
ATOM     26  CB  PRO A   4       6.674   5.647  16.288  0.00  0.00    +0.000 C 
ATOM     27  CA  PRO A   4       6.357   5.241  17.735  0.00  0.00    +0.000 C 
BRANCH  27  28
ATOM     28  C   PRO A   4       7.396   5.823  18.715  0.00  0.00    +0.000 C 
ATOM     29  O   PRO A   4       7.751   5.331  19.769  0.00  0.00    +0.000 OA
BRANCH  28  30
ATOM     30  OXT PRO A   4       7.856   7.041  18.304  0.00  0.00    +0.000 OA
ATOM     31  HXT PRO A   4       8.822   7.178  18.456  0.00  0.00    +0.000 HD
ENDBRANCH  28  30
ENDBRANCH  27  28
ENDBRANCH  20  21
BRANCH  20  32
ATOM     32  CB  SER A   3       1.912   5.163  17.747  0.00  0.00    +0.000 C 
BRANCH  32  33
ATOM     33  OG  SER A   3       1.477   3.805  17.735  0.00  0.00    +0.000 OA
ATOM     34  H   SER A   3       0.976   3.662  16.913  0.00  0.00    +0.000 HD
ENDBRANCH  32  33
ENDBRANCH  20  32
ENDBRANCH   3  20
TORSDOF 11
ENDMDL
MODEL 5
REMARK VINA RESULT:      -6.5      2.138      3.399
REMARK  Name = 
REMARK  12 active torsions:
REMARK  status: ('A' for Active; 'I' for Inactive)
REMARK    1  A    between atoms: CG2_1  and  CB_2
REMARK    2  A    between atoms: CB_2  and  OG1_3
REMARK    3  A    between atoms: CB_2  and  CA_4
REMARK    4  A    between atoms: CA_4  and  N_5
REMARK    5  A    between atoms: CA_4  and  C_6
REMARK    6  A    between atoms: CA_12  and  C_13
REMARK    7  A    between atoms: N_15  and  CA_16
REMARK    8  A    between atoms: CA_16  and  CB_17
REMARK    9  A    between atoms: CA_16  and  C_19
REMARK   10  A    between atoms: CB_17  and  OG_18
REMARK   11  A    between atoms: CA_25  and  C_26
REMARK   12  A    between atoms: C_26  and  OXT_28
REMARK                            x       y       z     vdW  Elec       q    Type
REMARK                         _______ _______ _______ _____ _____    ______ ____
ROOT
ATOM      1  C   PRO A   2       1.569   7.539  20.558  0.00  0.00    +0.000 C 
ATOM      2  O   PRO A   2       0.769   6.684  20.930  0.00  0.00    +0.000 OA
ATOM      3  N   SER A   3       2.649   7.208  19.748  0.00  0.00    +0.000 N 
ATOM      4  H   SER A   3       3.307   7.912  19.430  0.00  0.00    +0.000 HD
ENDROOT
BRANCH   1  11
ATOM      5  C   THR A   1      -0.101  10.165  19.444  0.00  0.00    +0.000 C 
ATOM      6  O   THR A   1       0.753  10.213  18.558  0.00  0.00    +0.000 OA
ATOM      7  N   PRO A   2       0.183   9.602  20.688  0.00  0.00    +0.000 N 
ATOM      8  CD  PRO A   2      -0.713   9.413  21.815  0.00  0.00    +0.000 C 
ATOM      9  CG  PRO A   2       0.209   9.671  22.993  0.00  0.00    +0.000 C 
ATOM     10  CB  PRO A   2       1.542   9.055  22.560  0.00  0.00    +0.000 C 
ATOM     11  CA  PRO A   2       1.492   9.018  21.017  0.00  0.00    +0.000 C 
BRANCH   5  12
ATOM     12  CA  THR A   1      -1.487  10.874  19.285  0.00  0.00    +0.000 C 
BRANCH  12  13
ATOM     13  N   THR A   1      -1.389  12.213  19.935  0.00  0.00    +0.000 NA
ATOM     14  H1  THR A   1      -0.385  12.404  20.038  0.00  0.00    +0.000 HD
ATOM     15  H2  THR A   1      -1.762  12.163  20.881  0.00  0.00    +0.000 HD
ENDBRANCH  12  13
BRANCH  12  17
ATOM     16  CG2 THR A   1      -2.033   9.834  16.965  0.00  0.00    +0.000 C 
ATOM     17  CB  THR A   1      -1.978  11.094  17.823  0.00  0.00    +0.000 C 
BRANCH  17  18
ATOM     18  OG1 THR A   1      -1.249  12.126  17.147  0.00  0.00    +0.000 OA
ATOM     19  HG1 THR A   1      -0.777  12.646  17.824  0.00  0.00    +0.000 HD
ENDBRANCH  17  18
ENDBRANCH  12  17
ENDBRANCH   5  12
ENDBRANCH   1  11
BRANCH   3  20
ATOM     20  CA  SER A   3       2.834   5.811  19.306  0.00  0.00    +0.000 C 
BRANCH  20  21
ATOM     21  C   SER A   3       4.351   5.458  19.256  0.00  0.00    +0.000 C 
ATOM     22  O   SER A   3       4.856   4.698  20.093  0.00  0.00    +0.000 OA
ATOM     23  N   PRO A   4       5.147   5.900  18.218  0.00  0.00    +0.000 N 
ATOM     24  CD  PRO A   4       4.799   6.759  17.099  0.00  0.00    +0.000 C 
ATOM     25  CG  PRO A   4       5.519   6.110  15.932  0.00  0.00    +0.000 C 
ATOM     26  CB  PRO A   4       6.834   5.634  16.539  0.00  0.00    +0.000 C 
ATOM     27  CA  PRO A   4       6.526   5.392  18.024  0.00  0.00    +0.000 C 
BRANCH  27  28
ATOM     28  C   PRO A   4       7.564   6.090  18.927  0.00  0.00    +0.000 C 
ATOM     29  O   PRO A   4       8.232   7.066  18.642  0.00  0.00    +0.000 OA
BRANCH  28  30
ATOM     30  OXT PRO A   4       7.725   5.437  20.115  0.00  0.00    +0.000 OA
ATOM     31  HXT PRO A   4       8.133   4.542  20.030  0.00  0.00    +0.000 HD
ENDBRANCH  28  30
ENDBRANCH  27  28
ENDBRANCH  20  21
BRANCH  20  32
ATOM     32  CB  SER A   3       2.149   5.586  17.942  0.00  0.00    +0.000 C 
BRANCH  32  33
ATOM     33  OG  SER A   3       2.030   4.207  17.600  0.00  0.00    +0.000 OA
ATOM     34  H   SER A   3       1.119   4.056  17.293  0.00  0.00    +0.000 HD
ENDBRANCH  32  33
ENDBRANCH  20  32
ENDBRANCH   3  20
TORSDOF 11
ENDMDL
MODEL 6
REMARK VINA RESULT:      -6.4      0.952      1.126
REMARK  Name = 
REMARK  12 active torsions:
REMARK  status: ('A' for Active; 'I' for Inactive)
REMARK    1  A    between atoms: CG2_1  and  CB_2
REMARK    2  A    between atoms: CB_2  and  OG1_3
REMARK    3  A    between atoms: CB_2  and  CA_4
REMARK    4  A    between atoms: CA_4  and  N_5
REMARK    5  A    between atoms: CA_4  and  C_6
REMARK    6  A    between atoms: CA_12  and  C_13
REMARK    7  A    between atoms: N_15  and  CA_16
REMARK    8  A    between atoms: CA_16  and  CB_17
REMARK    9  A    between atoms: CA_16  and  C_19
REMARK   10  A    between atoms: CB_17  and  OG_18
REMARK   11  A    between atoms: CA_25  and  C_26
REMARK   12  A    between atoms: C_26  and  OXT_28
REMARK                            x       y       z     vdW  Elec       q    Type
REMARK                         _______ _______ _______ _____ _____    ______ ____
ROOT
ATOM      1  C   PRO A   2       1.899   7.699  19.866  0.00  0.00    +0.000 C 
ATOM      2  O   PRO A   2       1.317   6.675  20.216  0.00  0.00    +0.000 OA
ATOM      3  N   SER A   3       2.789   7.689  18.798  0.00  0.00    +0.000 N 
ATOM      4  H   SER A   3       3.265   8.534  18.499  0.00  0.00    +0.000 HD
ENDROOT
BRANCH   1  11
ATOM      5  C   THR A   1       0.673  10.646  19.010  0.00  0.00    +0.000 C 
ATOM      6  O   THR A   1       1.730  10.803  18.398  0.00  0.00    +0.000 OA
ATOM      7  N   PRO A   2       0.600   9.807  20.121  0.00  0.00    +0.000 N 
ATOM      8  CD  PRO A   2      -0.566   9.466  20.916  0.00  0.00    +0.000 C 
ATOM      9  CG  PRO A   2       0.023   9.379  22.312  0.00  0.00    +0.000 C 
ATOM     10  CB  PRO A   2       1.401   8.747  22.092  0.00  0.00    +0.000 C 
ATOM     11  CA  PRO A   2       1.756   9.046  20.620  0.00  0.00    +0.000 C 
BRANCH   5  12
ATOM     12  CA  THR A   1      -0.598  11.499  18.680  0.00  0.00    +0.000 C 
BRANCH  12  13
ATOM     13  N   THR A   1      -0.136  12.825  18.176  0.00  0.00    +0.000 NA
ATOM     14  H1  THR A   1      -0.347  13.500  18.921  0.00  0.00    +0.000 HD
ATOM     15  H2  THR A   1      -0.703  13.104  17.378  0.00  0.00    +0.000 HD
ENDBRANCH  12  13
BRANCH  12  17
ATOM     16  CG2 THR A   1      -2.991  10.664  18.102  0.00  0.00    +0.000 C 
ATOM     17  CB  THR A   1      -1.565  10.901  17.616  0.00  0.00    +0.000 C 
BRANCH  17  18
ATOM     18  OG1 THR A   1      -1.044   9.714  17.004  0.00  0.00    +0.000 OA
ATOM     19  HG1 THR A   1      -1.503   8.951  17.402  0.00  0.00    +0.000 HD
ENDBRANCH  17  18
ENDBRANCH  12  17
ENDBRANCH   5  12
ENDBRANCH   1  11
BRANCH   3  20
ATOM     20  CA  SER A   3       3.031   6.436  18.054  0.00  0.00    +0.000 C 
BRANCH  20  21
ATOM     21  C   SER A   3       3.505   5.315  19.027  0.00  0.00    +0.000 C 
ATOM     22  O   SER A   3       4.508   5.471  19.738  0.00  0.00    +0.000 OA
ATOM     23  N   PRO A   4       2.761   4.165  19.198  0.00  0.00    +0.000 N 
ATOM     24  CD  PRO A   4       1.538   3.757  18.528  0.00  0.00    +0.000 C 
ATOM     25  CG  PRO A   4       0.716   3.154  19.652  0.00  0.00    +0.000 C 
ATOM     26  CB  PRO A   4       1.750   2.434  20.509  0.00  0.00    +0.000 C 
ATOM     27  CA  PRO A   4       3.064   3.196  20.279  0.00  0.00    +0.000 C 
BRANCH  27  28
ATOM     28  C   PRO A   4       4.212   2.229  19.925  0.00  0.00    +0.000 C 
ATOM     29  O   PRO A   4       5.213   2.021  20.585  0.00  0.00    +0.000 OA
BRANCH  28  30
ATOM     30  OXT PRO A   4       4.027   1.646  18.704  0.00  0.00    +0.000 OA
ATOM     31  HXT PRO A   4       4.861   1.511  18.193  0.00  0.00    +0.000 HD
ENDBRANCH  28  30
ENDBRANCH  27  28
ENDBRANCH  20  21
BRANCH  20  32
ATOM     32  CB  SER A   3       4.045   6.677  16.918  0.00  0.00    +0.000 C 
BRANCH  32  33
ATOM     33  OG  SER A   3       4.943   5.584  16.733  0.00  0.00    +0.000 OA
ATOM     34  H   SER A   3       4.891   5.312  15.800  0.00  0.00    +0.000 HD
ENDBRANCH  32  33
ENDBRANCH  20  32
ENDBRANCH   3  20
TORSDOF 11
ENDMDL
MODEL 7
REMARK VINA RESULT:      -6.4      1.087      1.129
REMARK  Name = 
REMARK  12 active torsions:
REMARK  status: ('A' for Active; 'I' for Inactive)
REMARK    1  A    between atoms: CG2_1  and  CB_2
REMARK    2  A    between atoms: CB_2  and  OG1_3
REMARK    3  A    between atoms: CB_2  and  CA_4
REMARK    4  A    between atoms: CA_4  and  N_5
REMARK    5  A    between atoms: CA_4  and  C_6
REMARK    6  A    between atoms: CA_12  and  C_13
REMARK    7  A    between atoms: N_15  and  CA_16
REMARK    8  A    between atoms: CA_16  and  CB_17
REMARK    9  A    between atoms: CA_16  and  C_19
REMARK   10  A    between atoms: CB_17  and  OG_18
REMARK   11  A    between atoms: CA_25  and  C_26
REMARK   12  A    between atoms: C_26  and  OXT_28
REMARK                            x       y       z     vdW  Elec       q    Type
REMARK                         _______ _______ _______ _____ _____    ______ ____
ROOT
ATOM      1  C   PRO A   2       1.746   7.737  20.075  0.00  0.00    +0.000 C 
ATOM      2  O   PRO A   2       1.205   6.708  20.473  0.00  0.00    +0.000 OA
ATOM      3  N   SER A   3       2.579   7.727  18.964  0.00  0.00    +0.000 N 
ATOM      4  H   SER A   3       3.020   8.576  18.626  0.00  0.00    +0.000 HD
ENDROOT
BRANCH   1  11
ATOM      5  C   THR A   1       0.065  10.506  19.418  0.00  0.00    +0.000 C 
ATOM      6  O   THR A   1       0.957  10.741  18.603  0.00  0.00    +0.000 OA
ATOM      7  N   PRO A   2       0.304   9.713  20.540  0.00  0.00    +0.000 N 
ATOM      8  CD  PRO A   2      -0.637   9.291  21.561  0.00  0.00    +0.000 C 
ATOM      9  CG  PRO A   2       0.222   9.324  22.812  0.00  0.00    +0.000 C 
ATOM     10  CB  PRO A   2       1.589   8.826  22.333  0.00  0.00    +0.000 C 
ATOM     11  CA  PRO A   2       1.611   9.094  20.812  0.00  0.00    +0.000 C 
BRANCH   5  12
ATOM     12  CA  THR A   1      -1.330  11.211  19.333  0.00  0.00    +0.000 C 
BRANCH  12  13
ATOM     13  N   THR A   1      -1.179  12.584  19.899  0.00  0.00    +0.000 NA
ATOM     14  H1  THR A   1      -1.940  13.142  19.492  0.00  0.00    +0.000 HD
ATOM     15  H2  THR A   1      -0.315  13.001  19.560  0.00  0.00    +0.000 HD
ENDBRANCH  12  13
BRANCH  12  17
ATOM     16  CG2 THR A   1      -2.099  10.044  17.141  0.00  0.00    +0.000 C 
ATOM     17  CB  THR A   1      -1.937  11.354  17.906  0.00  0.00    +0.000 C 
BRANCH  17  18
ATOM     18  OG1 THR A   1      -1.240  12.316  17.104  0.00  0.00    +0.000 OA
ATOM     19  HG1 THR A   1      -1.158  13.133  17.630  0.00  0.00    +0.000 HD
ENDBRANCH  17  18
ENDBRANCH  12  17
ENDBRANCH   5  12
ENDBRANCH   1  11
BRANCH   3  20
ATOM     20  CA  SER A   3       2.811   6.466  18.230  0.00  0.00    +0.000 C 
BRANCH  20  21
ATOM     21  C   SER A   3       3.382   5.381  19.191  0.00  0.00    +0.000 C 
ATOM     22  O   SER A   3       4.449   5.561  19.794  0.00  0.00    +0.000 OA
ATOM     23  N   PRO A   4       2.660   4.238  19.476  0.00  0.00    +0.000 N 
ATOM     24  CD  PRO A   4       1.379   3.808  18.945  0.00  0.00    +0.000 C 
ATOM     25  CG  PRO A   4       0.673   3.247  20.165  0.00  0.00    +0.000 C 
ATOM     26  CB  PRO A   4       1.788   2.557  20.942  0.00  0.00    +0.000 C 
ATOM     27  CA  PRO A   4       3.070   3.308  20.556  0.00  0.00    +0.000 C 
BRANCH  27  28
ATOM     28  C   PRO A   4       4.181   2.328  20.126  0.00  0.00    +0.000 C 
ATOM     29  O   PRO A   4       4.346   1.864  19.014  0.00  0.00    +0.000 OA
BRANCH  28  30
ATOM     30  OXT PRO A   4       4.963   1.952  21.180  0.00  0.00    +0.000 OA
ATOM     31  HXT PRO A   4       4.503   1.379  21.839  0.00  0.00    +0.000 HD
ENDBRANCH  28  30
ENDBRANCH  27  28
ENDBRANCH  20  21
BRANCH  20  32
ATOM     32  CB  SER A   3       3.741   6.712  17.025  0.00  0.00    +0.000 C 
BRANCH  32  33
ATOM     33  OG  SER A   3       4.549   5.580  16.707  0.00  0.00    +0.000 OA
ATOM     34  H   SER A   3       5.312   5.897  16.191  0.00  0.00    +0.000 HD
ENDBRANCH  32  33
ENDBRANCH  20  32
ENDBRANCH   3  20
TORSDOF 11
ENDMDL
MODEL 8
REMARK VINA RESULT:      -6.3      2.409      8.280
REMARK  Name = 
REMARK  12 active torsions:
REMARK  status: ('A' for Active; 'I' for Inactive)
REMARK    1  A    between atoms: CG2_1  and  CB_2
REMARK    2  A    between atoms: CB_2  and  OG1_3
REMARK    3  A    between atoms: CB_2  and  CA_4
REMARK    4  A    between atoms: CA_4  and  N_5
REMARK    5  A    between atoms: CA_4  and  C_6
REMARK    6  A    between atoms: CA_12  and  C_13
REMARK    7  A    between atoms: N_15  and  CA_16
REMARK    8  A    between atoms: CA_16  and  CB_17
REMARK    9  A    between atoms: CA_16  and  C_19
REMARK   10  A    between atoms: CB_17  and  OG_18
REMARK   11  A    between atoms: CA_25  and  C_26
REMARK   12  A    between atoms: C_26  and  OXT_28
REMARK                            x       y       z     vdW  Elec       q    Type
REMARK                         _______ _______ _______ _____ _____    ______ ____
ROOT
ATOM      1  C   PRO A   2       2.289   5.822  18.610  0.00  0.00    +0.000 C 
ATOM      2  O   PRO A   2       1.761   5.396  19.635  0.00  0.00    +0.000 OA
ATOM      3  N   SER A   3       2.217   7.168  18.271  0.00  0.00    +0.000 N 
ATOM      4  H   SER A   3       2.660   7.525  17.431  0.00  0.00    +0.000 HD
ENDROOT
BRANCH   1  11
ATOM      5  C   THR A   1       5.311   5.835  17.272  0.00  0.00    +0.000 C 
ATOM      6  O   THR A   1       4.886   6.741  16.555  0.00  0.00    +0.000 OA
ATOM      7  N   PRO A   2       4.451   4.880  17.813  0.00  0.00    +0.000 N 
ATOM      8  CD  PRO A   2       4.771   3.790  18.716  0.00  0.00    +0.000 C 
ATOM      9  CG  PRO A   2       3.840   2.695  18.227  0.00  0.00    +0.000 C 
ATOM     10  CB  PRO A   2       2.557   3.443  17.851  0.00  0.00    +0.000 C 
ATOM     11  CA  PRO A   2       2.997   4.899  17.586  0.00  0.00    +0.000 C 
BRANCH   5  12
ATOM     12  CA  THR A   1       6.846   5.607  17.482  0.00  0.00    +0.000 C 
BRANCH  12  13
ATOM     13  N   THR A   1       7.549   6.111  16.267  0.00  0.00    +0.000 NA
ATOM     14  H1  THR A   1       7.308   7.107  16.193  0.00  0.00    +0.000 HD
ATOM     15  H2  THR A   1       7.160   5.668  15.438  0.00  0.00    +0.000 HD
ENDBRANCH  12  13
BRANCH  12  17
ATOM     16  CG2 THR A   1       8.250   7.590  18.408  0.00  0.00    +0.000 C 
ATOM     17  CB  THR A   1       7.478   6.312  18.719  0.00  0.00    +0.000 C 
BRANCH  17  18
ATOM     18  OG1 THR A   1       8.280   5.424  19.509  0.00  0.00    +0.000 OA
ATOM     19  HG1 THR A   1       7.819   5.287  20.357  0.00  0.00    +0.000 HD
ENDBRANCH  17  18
ENDBRANCH  12  17
ENDBRANCH   5  12
ENDBRANCH   1  11
BRANCH   3  20
ATOM     20  CA  SER A   3       1.514   8.113  19.162  0.00  0.00    +0.000 C 
BRANCH  20  21
ATOM     21  C   SER A   3       1.501   9.538  18.531  0.00  0.00    +0.000 C 
ATOM     22  O   SER A   3       2.070   9.764  17.455  0.00  0.00    +0.000 OA
ATOM     23  N   PRO A   4       0.765  10.558  19.102  0.00  0.00    +0.000 N 
ATOM     24  CD  PRO A   4      -0.018  10.548  20.325  0.00  0.00    +0.000 C 
ATOM     25  CG  PRO A   4      -1.257  11.336  19.945  0.00  0.00    +0.000 C 
ATOM     26  CB  PRO A   4      -0.722  12.434  19.034  0.00  0.00    +0.000 C 
ATOM     27  CA  PRO A   4       0.549  11.848  18.403  0.00  0.00    +0.000 C 
BRANCH  27  28
ATOM     28  C   PRO A   4       1.738  12.821  18.540  0.00  0.00    +0.000 C 
ATOM     29  O   PRO A   4       1.928  13.608  19.448  0.00  0.00    +0.000 OA
BRANCH  28  30
ATOM     30  OXT PRO A   4       2.568  12.765  17.457  0.00  0.00    +0.000 OA
ATOM     31  HXT PRO A   4       3.298  12.106  17.544  0.00  0.00    +0.000 HD
ENDBRANCH  28  30
ENDBRANCH  27  28
ENDBRANCH  20  21
BRANCH  20  32
ATOM     32  CB  SER A   3       2.161   8.112  20.561  0.00  0.00    +0.000 C 
BRANCH  32  33
ATOM     33  OG  SER A   3       1.299   7.591  21.572  0.00  0.00    +0.000 OA
ATOM     34  H   SER A   3       1.856   7.305  22.317  0.00  0.00    +0.000 HD
ENDBRANCH  32  33
ENDBRANCH  20  32
ENDBRANCH   3  20
TORSDOF 11
ENDMDL
MODEL 9
REMARK VINA RESULT:      -6.2      2.185      3.502
REMARK  Name = 
REMARK  12 active torsions:
REMARK  status: ('A' for Active; 'I' for Inactive)
REMARK    1  A    between atoms: CG2_1  and  CB_2
REMARK    2  A    between atoms: CB_2  and  OG1_3
REMARK    3  A    between atoms: CB_2  and  CA_4
REMARK    4  A    between atoms: CA_4  and  N_5
REMARK    5  A    between atoms: CA_4  and  C_6
REMARK    6  A    between atoms: CA_12  and  C_13
REMARK    7  A    between atoms: N_15  and  CA_16
REMARK    8  A    between atoms: CA_16  and  CB_17
REMARK    9  A    between atoms: CA_16  and  C_19
REMARK   10  A    between atoms: CB_17  and  OG_18
REMARK   11  A    between atoms: CA_25  and  C_26
REMARK   12  A    between atoms: C_26  and  OXT_28
REMARK                            x       y       z     vdW  Elec       q    Type
REMARK                         _______ _______ _______ _____ _____    ______ ____
ROOT
ATOM      1  C   PRO A   2       1.755   7.479  20.447  0.00  0.00    +0.000 C 
ATOM      2  O   PRO A   2       1.178   6.653  21.149  0.00  0.00    +0.000 OA
ATOM      3  N   SER A   3       2.635   7.081  19.447  0.00  0.00    +0.000 N 
ATOM      4  H   SER A   3       3.107   7.760  18.858  0.00  0.00    +0.000 HD
ENDROOT
BRANCH   1  11
ATOM      5  C   THR A   1       0.522   9.921  18.592  0.00  0.00    +0.000 C 
ATOM      6  O   THR A   1       1.575   9.842  17.957  0.00  0.00    +0.000 OA
ATOM      7  N   PRO A   2       0.458   9.540  19.931  0.00  0.00    +0.000 N 
ATOM      8  CD  PRO A   2      -0.701   9.513  20.805  0.00  0.00    +0.000 C 
ATOM      9  CG  PRO A   2      -0.101   9.935  22.134  0.00  0.00    +0.000 C 
ATOM     10  CB  PRO A   2       1.274   9.263  22.147  0.00  0.00    +0.000 C 
ATOM     11  CA  PRO A   2       1.618   9.008  20.664  0.00  0.00    +0.000 C 
BRANCH   5  12
ATOM     12  CA  THR A   1      -0.751  10.600  17.985  0.00  0.00    +0.000 C 
BRANCH  12  13
ATOM     13  N   THR A   1      -1.913   9.701  18.247  0.00  0.00    +0.000 NA
ATOM     14  H1  THR A   1      -2.477   9.712  17.389  0.00  0.00    +0.000 HD
ATOM     15  H2  THR A   1      -2.501  10.105  18.973  0.00  0.00    +0.000 HD
ENDBRANCH  12  13
BRANCH  12  17
ATOM     16  CG2 THR A   1      -2.484  12.113  19.198  0.00  0.00    +0.000 C 
ATOM     17  CB  THR A   1      -1.107  12.008  18.549  0.00  0.00    +0.000 C 
BRANCH  17  18
ATOM     18  OG1 THR A   1      -0.933  13.050  17.580  0.00  0.00    +0.000 OA
ATOM     19  HG1 THR A   1      -1.631  13.713  17.731  0.00  0.00    +0.000 HD
ENDBRANCH  17  18
ENDBRANCH  12  17
ENDBRANCH   5  12
ENDBRANCH   1  11
BRANCH   3  20
ATOM     20  CA  SER A   3       2.871   5.643  19.204  0.00  0.00    +0.000 C 
BRANCH  20  21
ATOM     21  C   SER A   3       4.400   5.344  19.188  0.00  0.00    +0.000 C 
ATOM     22  O   SER A   3       4.915   4.611  20.044  0.00  0.00    +0.000 OA
ATOM     23  N   PRO A   4       5.200   5.801  18.159  0.00  0.00    +0.000 N 
ATOM     24  CD  PRO A   4       4.843   6.632  17.023  0.00  0.00    +0.000 C 
ATOM     25  CG  PRO A   4       5.608   5.994  15.879  0.00  0.00    +0.000 C 
ATOM     26  CB  PRO A   4       6.927   5.573  16.516  0.00  0.00    +0.000 C 
ATOM     27  CA  PRO A   4       6.599   5.339  17.998  0.00  0.00    +0.000 C 
BRANCH  27  28
ATOM     28  C   PRO A   4       7.595   6.083  18.911  0.00  0.00    +0.000 C 
ATOM     29  O   PRO A   4       8.238   7.075  18.624  0.00  0.00    +0.000 OA
BRANCH  28  30
ATOM     30  OXT PRO A   4       7.749   5.455  20.114  0.00  0.00    +0.000 OA
ATOM     31  HXT PRO A   4       7.078   4.753  20.289  0.00  0.00    +0.000 HD
ENDBRANCH  28  30
ENDBRANCH  27  28
ENDBRANCH  20  21
BRANCH  20  32
ATOM     32  CB  SER A   3       2.186   5.203  17.894  0.00  0.00    +0.000 C 
BRANCH  32  33
ATOM     33  OG  SER A   3       2.420   3.832  17.578  0.00  0.00    +0.000 OA
ATOM     34  H   SER A   3       1.761   3.566  16.913  0.00  0.00    +0.000 HD
ENDBRANCH  32  33
ENDBRANCH  20  32
ENDBRANCH   3  20
TORSDOF 11
ENDMDL
