MODEL 1
REMARK VINA RESULT:      -8.3      0.000      0.000
REMARK  Name = 
REMARK  9 active torsions:
REMARK  status: ('A' for Active; 'I' for Inactive)
REMARK    1  A    between atoms: C_1  and  C_2
REMARK    2  A    between atoms: N_4  and  C_5
REMARK    3  A    between atoms: C_5  and  CA_6
REMARK    4  A    between atoms: CA_6  and  N_7
REMARK    5  A    between atoms: CA_6  and  C_18
REMARK    6  A    between atoms: C_8  and  O_10
REMARK    7  A    between atoms: O_10  and  C_11
REMARK    8  A    between atoms: C_11  and  C_12
REMARK    9  A    between atoms: C_18  and  OXT_20
REMARK                            x       y       z     vdW  Elec       q    Type
REMARK                         _______ _______ _______ _____ _____    ______ ____
ROOT
ATOM      1  C   UNL     1       2.682   9.043  17.869  0.00  0.00    +0.000 C 
ATOM      2  C   UNL     1       2.322   7.803  18.617  0.00  0.00    +0.000 A 
ATOM      3  C   UNL     1       2.747   6.587  18.273  0.00  0.00    +0.000 A 
ATOM      4  N   UNL     1       2.510   5.482  19.061  0.00  0.00    +0.000 N 
ATOM      5  C   UNL     1       1.859   5.604  20.288  0.00  0.00    +0.000 A 
ATOM      6  O   UNL     1       1.710   4.612  21.003  0.00  0.00    +0.000 OA
ATOM      7  N   UNL     1       1.378   6.835  20.659  0.00  0.00    +0.000 NA
ATOM      8  C   UNL     1       1.531   7.873  19.883  0.00  0.00    +0.000 A 
ATOM      9  N   UNL     1       0.929   9.057  20.289  0.00  0.00    +0.000 N 
ATOM     10  C   UNL     1      -0.058   9.793  19.470  0.00  0.00    +0.000 C 
ATOM     11  C   UNL     1      -1.148  10.475  20.350  0.00  0.00    +0.000 C 
ATOM     12  N   UNL     1      -0.537  11.255  21.432  0.00  0.00    +0.000 N 
ATOM     13  C   UNL     1      -0.893  12.555  21.731  0.00  0.00    +0.000 A 
ATOM     14  C   UNL     1      -2.204  13.003  21.551  0.00  0.00    +0.000 A 
ATOM     15  C   UNL     1      -2.535  14.335  21.803  0.00  0.00    +0.000 A 
ATOM     16  C   UNL     1      -1.546  15.210  22.218  0.00  0.00    +0.000 A 
ATOM     17  C   UNL     1      -0.273  14.702  22.395  0.00  0.00    +0.000 A 
ATOM     18  N   UNL     1       0.061  13.407  22.180  0.00  0.00    +0.000 NA
ATOM     19  C   UNL     1       0.499  10.566  22.214  0.00  0.00    +0.000 C 
ATOM     20  C   UNL     1       1.564   9.918  21.308  0.00  0.00    +0.000 C 
ENDROOT
BRANCH   4  21
ATOM     21  C   UNL     1       3.095   4.187  18.679  0.00  0.00    +0.000 C 
BRANCH  21  22
ATOM     22  CA  UNL     1       4.438   3.817  19.347  0.00  0.00    +0.000 C 
BRANCH  22  23
ATOM     23  N   UNL     1       5.509   3.737  18.347  0.00  0.00    +0.000 N 
ATOM     24  C   UNL     1       6.507   4.663  18.282  0.00  0.00    +0.000 C 
ATOM     25  O   UNL     1       6.668   5.541  19.117  0.00  0.00    +0.000 OA
ATOM     26  H   UNL     1       5.373   3.212  17.493  0.00  0.00    +0.000 HD
BRANCH  24  27
ATOM     27  O   UNL     1       7.204   4.489  17.137  0.00  0.00    +0.000 OA
BRANCH  27  28
ATOM     28  C   UNL     1       7.026   5.482  16.119  0.00  0.00    +0.000 C 
BRANCH  28  29
ATOM     29  C   UNL     1       6.865   4.872  14.749  0.00  0.00    +0.000 A 
ATOM     30  C   UNL     1       5.838   3.954  14.476  0.00  0.00    +0.000 A 
ATOM     31  C   UNL     1       5.666   3.440  13.188  0.00  0.00    +0.000 A 
ATOM     32  C   UNL     1       6.524   3.830  12.160  0.00  0.00    +0.000 A 
ATOM     33  C   UNL     1       7.555   4.731  12.422  0.00  0.00    +0.000 A 
ATOM     34  C   UNL     1       7.726   5.246  13.709  0.00  0.00    +0.000 A 
ENDBRANCH  28  29
ENDBRANCH  27  28
ENDBRANCH  24  27
ENDBRANCH  22  23
BRANCH  22  35
ATOM     35  C   UNL     1       4.303   2.453  20.033  0.00  0.00    +0.000 C 
ATOM     36  O   UNL     1       5.247   1.789  20.446  0.00  0.00    +0.000 OA
BRANCH  35  37
ATOM     37  OXT UNL     1       3.019   2.071  20.243  0.00  0.00    +0.000 OA
ATOM     38  HXT UNL     1       2.911   1.547  21.069  0.00  0.00    +0.000 HD
ENDBRANCH  35  37
ENDBRANCH  22  35
ENDBRANCH  21  22
ENDBRANCH   4  21
TORSDOF 8
ENDMDL
MODEL 2
REMARK VINA RESULT:      -8.2      0.651      1.024
REMARK  Name = 
REMARK  9 active torsions:
REMARK  status: ('A' for Active; 'I' for Inactive)
REMARK    1  A    between atoms: C_1  and  C_2
REMARK    2  A    between atoms: N_4  and  C_5
REMARK    3  A    between atoms: C_5  and  CA_6
REMARK    4  A    between atoms: CA_6  and  N_7
REMARK    5  A    between atoms: CA_6  and  C_18
REMARK    6  A    between atoms: C_8  and  O_10
REMARK    7  A    between atoms: O_10  and  C_11
REMARK    8  A    between atoms: C_11  and  C_12
REMARK    9  A    between atoms: C_18  and  OXT_20
REMARK                            x       y       z     vdW  Elec       q    Type
REMARK                         _______ _______ _______ _____ _____    ______ ____
ROOT
ATOM      1  C   UNL     1       2.749   8.594  17.850  0.00  0.00    +0.000 C 
ATOM      2  C   UNL     1       2.345   7.432  18.695  0.00  0.00    +0.000 A 
ATOM      3  C   UNL     1       2.700   6.174  18.433  0.00  0.00    +0.000 A 
ATOM      4  N   UNL     1       2.426   5.143  19.305  0.00  0.00    +0.000 N 
ATOM      5  C   UNL     1       1.811   5.388  20.533  0.00  0.00    +0.000 A 
ATOM      6  O   UNL     1       1.629   4.459  21.321  0.00  0.00    +0.000 OA
ATOM      7  N   UNL     1       1.400   6.665  20.821  0.00  0.00    +0.000 NA
ATOM      8  C   UNL     1       1.587   7.635  19.967  0.00  0.00    +0.000 A 
ATOM      9  N   UNL     1       1.055   8.875  20.297  0.00  0.00    +0.000 N 
ATOM     10  C   UNL     1       0.088   9.599  19.446  0.00  0.00    +0.000 C 
ATOM     11  C   UNL     1      -0.945  10.399  20.294  0.00  0.00    +0.000 C 
ATOM     12  N   UNL     1      -0.272  11.223  21.303  0.00  0.00    +0.000 N 
ATOM     13  C   UNL     1      -0.555  12.558  21.512  0.00  0.00    +0.000 A 
ATOM     14  C   UNL     1      -1.845  13.059  21.326  0.00  0.00    +0.000 A 
ATOM     15  C   UNL     1      -2.103  14.422  21.485  0.00  0.00    +0.000 A 
ATOM     16  C   UNL     1      -1.062  15.272  21.815  0.00  0.00    +0.000 A 
ATOM     17  C   UNL     1       0.188  14.713  22.003  0.00  0.00    +0.000 A 
ATOM     18  N   UNL     1       0.451  13.390  21.878  0.00  0.00    +0.000 NA
ATOM     19  C   UNL     1       0.747  10.541  22.113  0.00  0.00    +0.000 C 
ATOM     20  C   UNL     1       1.756   9.774  21.237  0.00  0.00    +0.000 C 
ENDROOT
BRANCH   4  21
ATOM     21  C   UNL     1       2.936   3.795  19.008  0.00  0.00    +0.000 C 
BRANCH  21  22
ATOM     22  CA  UNL     1       4.434   3.550  19.297  0.00  0.00    +0.000 C 
BRANCH  22  23
ATOM     23  N   UNL     1       5.225   3.678  18.067  0.00  0.00    +0.000 N 
ATOM     24  C   UNL     1       6.350   4.444  18.008  0.00  0.00    +0.000 C 
ATOM     25  O   UNL     1       6.861   4.968  18.987  0.00  0.00    +0.000 OA
ATOM     26  H   UNL     1       4.805   3.486  17.166  0.00  0.00    +0.000 HD
BRANCH  24  27
ATOM     27  O   UNL     1       6.733   4.577  16.719  0.00  0.00    +0.000 OA
BRANCH  27  28
ATOM     28  C   UNL     1       5.938   3.896  15.739  0.00  0.00    +0.000 C 
BRANCH  28  29
ATOM     29  C   UNL     1       6.413   4.163  14.333  0.00  0.00    +0.000 A 
ATOM     30  C   UNL     1       7.436   5.089  14.073  0.00  0.00    +0.000 A 
ATOM     31  C   UNL     1       7.904   5.285  12.771  0.00  0.00    +0.000 A 
ATOM     32  C   UNL     1       7.351   4.565  11.713  0.00  0.00    +0.000 A 
ATOM     33  C   UNL     1       6.326   3.652  11.958  0.00  0.00    +0.000 A 
ATOM     34  C   UNL     1       5.857   3.455  13.259  0.00  0.00    +0.000 A 
ENDBRANCH  28  29
ENDBRANCH  27  28
ENDBRANCH  24  27
ENDBRANCH  22  23
BRANCH  22  35
ATOM     35  C   UNL     1       4.617   2.134  19.854  0.00  0.00    +0.000 C 
ATOM     36  O   UNL     1       4.952   1.881  21.006  0.00  0.00    +0.000 OA
BRANCH  35  37
ATOM     37  OXT UNL     1       4.276   1.154  18.981  0.00  0.00    +0.000 OA
ATOM     38  HXT UNL     1       4.960   1.011  18.288  0.00  0.00    +0.000 HD
ENDBRANCH  35  37
ENDBRANCH  22  35
ENDBRANCH  21  22
ENDBRANCH   4  21
TORSDOF 8
ENDMDL
MODEL 3
REMARK VINA RESULT:      -7.5      3.374      4.537
REMARK  Name = 
REMARK  9 active torsions:
REMARK  status: ('A' for Active; 'I' for Inactive)
REMARK    1  A    between atoms: C_1  and  C_2
REMARK    2  A    between atoms: N_4  and  C_5
REMARK    3  A    between atoms: C_5  and  CA_6
REMARK    4  A    between atoms: CA_6  and  N_7
REMARK    5  A    between atoms: CA_6  and  C_18
REMARK    6  A    between atoms: C_8  and  O_10
REMARK    7  A    between atoms: O_10  and  C_11
REMARK    8  A    between atoms: C_11  and  C_12
REMARK    9  A    between atoms: C_18  and  OXT_20
REMARK                            x       y       z     vdW  Elec       q    Type
REMARK                         _______ _______ _______ _____ _____    ______ ____
ROOT
ATOM      1  C   UNL     1       2.420  10.853  17.802  0.00  0.00    +0.000 C 
ATOM      2  C   UNL     1       2.399   9.410  18.180  0.00  0.00    +0.000 A 
ATOM      3  C   UNL     1       3.099   8.471  17.542  0.00  0.00    +0.000 A 
ATOM      4  N   UNL     1       3.165   7.174  18.000  0.00  0.00    +0.000 N 
ATOM      5  C   UNL     1       2.543   6.802  19.190  0.00  0.00    +0.000 A 
ATOM      6  O   UNL     1       2.664   5.650  19.610  0.00  0.00    +0.000 OA
ATOM      7  N   UNL     1       1.785   7.732  19.857  0.00  0.00    +0.000 NA
ATOM      8  C   UNL     1       1.655   8.944  19.389  0.00  0.00    +0.000 A 
ATOM      9  N   UNL     1       0.793   9.793  20.073  0.00  0.00    +0.000 N 
ATOM     10  C   UNL     1      -0.369  10.455  19.443  0.00  0.00    +0.000 C 
ATOM     11  C   UNL     1      -1.566  10.590  20.432  0.00  0.00    +0.000 C 
ATOM     12  N   UNL     1      -1.133  11.179  21.703  0.00  0.00    +0.000 N 
ATOM     13  C   UNL     1      -1.788  12.224  22.323  0.00  0.00    +0.000 A 
ATOM     14  C   UNL     1      -3.173  12.369  22.221  0.00  0.00    +0.000 A 
ATOM     15  C   UNL     1      -3.814  13.463  22.805  0.00  0.00    +0.000 A 
ATOM     16  C   UNL     1      -3.058  14.410  23.473  0.00  0.00    +0.000 A 
ATOM     17  C   UNL     1      -1.694  14.201  23.555  0.00  0.00    +0.000 A 
ATOM     18  N   UNL     1      -1.059  13.132  23.017  0.00  0.00    +0.000 NA
ATOM     19  C   UNL     1       0.064  10.583  22.312  0.00  0.00    +0.000 C 
ATOM     20  C   UNL     1       1.228  10.480  21.307  0.00  0.00    +0.000 C 
ENDROOT
BRANCH   4  21
ATOM     21  C   UNL     1       4.039   6.211  17.309  0.00  0.00    +0.000 C 
BRANCH  21  22
ATOM     22  CA  UNL     1       5.468   6.056  17.873  0.00  0.00    +0.000 C 
BRANCH  22  23
ATOM     23  N   UNL     1       6.362   7.072  17.302  0.00  0.00    +0.000 N 
ATOM     24  C   UNL     1       7.574   7.359  17.855  0.00  0.00    +0.000 C 
ATOM     25  O   UNL     1       8.069   6.714  18.768  0.00  0.00    +0.000 OA
ATOM     26  H   UNL     1       5.993   7.803  16.708  0.00  0.00    +0.000 HD
BRANCH  24  27
ATOM     27  O   UNL     1       8.070   8.480  17.286  0.00  0.00    +0.000 OA
BRANCH  27  28
ATOM     28  C   UNL     1       7.797   9.716  17.959  0.00  0.00    +0.000 C 
BRANCH  28  29
ATOM     29  C   UNL     1       9.054  10.385  18.456  0.00  0.00    +0.000 A 
ATOM     30  C   UNL     1       9.981  10.949  17.564  0.00  0.00    +0.000 A 
ATOM     31  C   UNL     1      11.112  11.615  18.041  0.00  0.00    +0.000 A 
ATOM     32  C   UNL     1      11.336  11.718  19.414  0.00  0.00    +0.000 A 
ATOM     33  C   UNL     1      10.429  11.152  20.308  0.00  0.00    +0.000 A 
ATOM     34  C   UNL     1       9.297  10.487  19.832  0.00  0.00    +0.000 A 
ENDBRANCH  28  29
ENDBRANCH  27  28
ENDBRANCH  24  27
ENDBRANCH  22  23
BRANCH  22  35
ATOM     35  C   UNL     1       6.008   4.668  17.511  0.00  0.00    +0.000 C 
ATOM     36  O   UNL     1       5.972   4.183  16.386  0.00  0.00    +0.000 OA
BRANCH  35  37
ATOM     37  OXT UNL     1       6.633   4.040  18.537  0.00  0.00    +0.000 OA
ATOM     38  HXT UNL     1       6.001   3.656  19.186  0.00  0.00    +0.000 HD
ENDBRANCH  35  37
ENDBRANCH  22  35
ENDBRANCH  21  22
ENDBRANCH   4  21
TORSDOF 8
ENDMDL
MODEL 4
REMARK VINA RESULT:      -7.4      4.822     11.518
REMARK  Name = 
REMARK  9 active torsions:
REMARK  status: ('A' for Active; 'I' for Inactive)
REMARK    1  A    between atoms: C_1  and  C_2
REMARK    2  A    between atoms: N_4  and  C_5
REMARK    3  A    between atoms: C_5  and  CA_6
REMARK    4  A    between atoms: CA_6  and  N_7
REMARK    5  A    between atoms: CA_6  and  C_18
REMARK    6  A    between atoms: C_8  and  O_10
REMARK    7  A    between atoms: O_10  and  C_11
REMARK    8  A    between atoms: C_11  and  C_12
REMARK    9  A    between atoms: C_18  and  OXT_20
REMARK                            x       y       z     vdW  Elec       q    Type
REMARK                         _______ _______ _______ _____ _____    ______ ____
ROOT
ATOM      1  C   UNL     1      -1.692  10.427  18.266  0.00  0.00    +0.000 C 
ATOM      2  C   UNL     1      -0.836  11.347  19.070  0.00  0.00    +0.000 A 
ATOM      3  C   UNL     1      -1.193  12.592  19.391  0.00  0.00    +0.000 A 
ATOM      4  N   UNL     1      -0.443  13.367  20.248  0.00  0.00    +0.000 N 
ATOM      5  C   UNL     1       0.699  12.855  20.862  0.00  0.00    +0.000 A 
ATOM      6  O   UNL     1       1.322  13.547  21.669  0.00  0.00    +0.000 OA
ATOM      7  N   UNL     1       1.116  11.591  20.530  0.00  0.00    +0.000 NA
ATOM      8  C   UNL     1       0.454  10.877  19.661  0.00  0.00    +0.000 A 
ATOM      9  N   UNL     1       0.998   9.648  19.310  0.00  0.00    +0.000 N 
ATOM     10  C   UNL     1       1.339   9.274  17.921  0.00  0.00    +0.000 C 
ATOM     11  C   UNL     1       2.608   8.372  17.858  0.00  0.00    +0.000 C 
ATOM     12  N   UNL     1       2.499   7.246  18.792  0.00  0.00    +0.000 N 
ATOM     13  C   UNL     1       2.762   5.937  18.444  0.00  0.00    +0.000 A 
ATOM     14  C   UNL     1       3.736   5.626  17.493  0.00  0.00    +0.000 A 
ATOM     15  C   UNL     1       3.951   4.301  17.109  0.00  0.00    +0.000 A 
ATOM     16  C   UNL     1       3.176   3.301  17.672  0.00  0.00    +0.000 A 
ATOM     17  C   UNL     1       2.241   3.671  18.621  0.00  0.00    +0.000 A 
ATOM     18  N   UNL     1       2.038   4.948  19.024  0.00  0.00    +0.000 NA
ATOM     19  C   UNL     1       2.090   7.587  20.162  0.00  0.00    +0.000 C 
ATOM     20  C   UNL     1       0.826   8.467  20.181  0.00  0.00    +0.000 C 
ENDROOT
BRANCH   4  21
ATOM     21  C   UNL     1      -0.945  14.692  20.644  0.00  0.00    +0.000 C 
BRANCH  21  22
ATOM     22  CA  UNL     1      -1.446  14.829  22.099  0.00  0.00    +0.000 C 
BRANCH  22  23
ATOM     23  N   UNL     1      -2.899  14.629  22.167  0.00  0.00    +0.000 N 
ATOM     24  C   UNL     1      -3.450  13.405  22.399  0.00  0.00    +0.000 C 
ATOM     25  O   UNL     1      -2.796  12.417  22.702  0.00  0.00    +0.000 OA
ATOM     26  H   UNL     1      -3.527  15.291  21.729  0.00  0.00    +0.000 HD
BRANCH  24  27
ATOM     27  O   UNL     1      -4.780  13.462  22.169  0.00  0.00    +0.000 OA
BRANCH  27  28
ATOM     28  C   UNL     1      -5.188  13.725  20.820  0.00  0.00    +0.000 C 
BRANCH  28  29
ATOM     29  C   UNL     1      -5.734  12.495  20.139  0.00  0.00    +0.000 A 
ATOM     30  C   UNL     1      -5.161  12.002  18.956  0.00  0.00    +0.000 A 
ATOM     31  C   UNL     1      -5.641  10.829  18.368  0.00  0.00    +0.000 A 
ATOM     32  C   UNL     1      -6.704  10.140  18.950  0.00  0.00    +0.000 A 
ATOM     33  C   UNL     1      -7.289  10.627  20.118  0.00  0.00    +0.000 A 
ATOM     34  C   UNL     1      -6.809  11.799  20.707  0.00  0.00    +0.000 A 
ENDBRANCH  28  29
ENDBRANCH  27  28
ENDBRANCH  24  27
ENDBRANCH  22  23
BRANCH  22  35
ATOM     35  C   UNL     1      -1.118  16.233  22.618  0.00  0.00    +0.000 C 
ATOM     36  O   UNL     1      -0.046  16.554  23.118  0.00  0.00    +0.000 OA
BRANCH  35  37
ATOM     37  OXT UNL     1      -2.096  17.144  22.387  0.00  0.00    +0.000 OA
ATOM     38  HXT UNL     1      -2.063  17.901  23.015  0.00  0.00    +0.000 HD
ENDBRANCH  35  37
ENDBRANCH  22  35
ENDBRANCH  21  22
ENDBRANCH   4  21
TORSDOF 8
ENDMDL
MODEL 5
REMARK VINA RESULT:      -7.4      5.180     11.850
REMARK  Name = 
REMARK  9 active torsions:
REMARK  status: ('A' for Active; 'I' for Inactive)
REMARK    1  A    between atoms: C_1  and  C_2
REMARK    2  A    between atoms: N_4  and  C_5
REMARK    3  A    between atoms: C_5  and  CA_6
REMARK    4  A    between atoms: CA_6  and  N_7
REMARK    5  A    between atoms: CA_6  and  C_18
REMARK    6  A    between atoms: C_8  and  O_10
REMARK    7  A    between atoms: O_10  and  C_11
REMARK    8  A    between atoms: C_11  and  C_12
REMARK    9  A    between atoms: C_18  and  OXT_20
REMARK                            x       y       z     vdW  Elec       q    Type
REMARK                         _______ _______ _______ _____ _____    ______ ____
ROOT
ATOM      1  C   UNL     1      -1.605  10.371  17.867  0.00  0.00    +0.000 C 
ATOM      2  C   UNL     1      -0.857  11.284  18.779  0.00  0.00    +0.000 A 
ATOM      3  C   UNL     1      -1.272  12.512  19.093  0.00  0.00    +0.000 A 
ATOM      4  N   UNL     1      -0.631  13.277  20.042  0.00  0.00    +0.000 N 
ATOM      5  C   UNL     1       0.453  12.770  20.759  0.00  0.00    +0.000 A 
ATOM      6  O   UNL     1       0.974  13.451  21.643  0.00  0.00    +0.000 OA
ATOM      7  N   UNL     1       0.929  11.523  20.439  0.00  0.00    +0.000 NA
ATOM      8  C   UNL     1       0.375  10.822  19.488  0.00  0.00    +0.000 A 
ATOM      9  N   UNL     1       0.979   9.613  19.164  0.00  0.00    +0.000 N 
ATOM     10  C   UNL     1       1.469   9.284  17.808  0.00  0.00    +0.000 C 
ATOM     11  C   UNL     1       2.757   8.408  17.855  0.00  0.00    +0.000 C 
ATOM     12  N   UNL     1       2.576   7.255  18.743  0.00  0.00    +0.000 N 
ATOM     13  C   UNL     1       2.902   5.961  18.391  0.00  0.00    +0.000 A 
ATOM     14  C   UNL     1       3.975   5.695  17.538  0.00  0.00    +0.000 A 
ATOM     15  C   UNL     1       4.257   4.385  17.145  0.00  0.00    +0.000 A 
ATOM     16  C   UNL     1       3.450   3.356  17.599  0.00  0.00    +0.000 A 
ATOM     17  C   UNL     1       2.415   3.682  18.455  0.00  0.00    +0.000 A 
ATOM     18  N   UNL     1       2.143   4.944  18.867  0.00  0.00    +0.000 NA
ATOM     19  C   UNL     1       2.021   7.550  20.072  0.00  0.00    +0.000 C 
ATOM     20  C   UNL     1       0.743   8.406  19.982  0.00  0.00    +0.000 C 
ENDROOT
BRANCH   4  21
ATOM     21  C   UNL     1      -1.199  14.582  20.418  0.00  0.00    +0.000 C 
BRANCH  21  22
ATOM     22  CA  UNL     1      -2.433  14.550  21.347  0.00  0.00    +0.000 C 
BRANCH  22  23
ATOM     23  N   UNL     1      -3.672  14.529  20.559  0.00  0.00    +0.000 N 
ATOM     24  C   UNL     1      -4.801  13.908  21.004  0.00  0.00    +0.000 C 
ATOM     25  O   UNL     1      -4.917  13.446  22.130  0.00  0.00    +0.000 OA
ATOM     26  H   UNL     1      -3.645  14.673  19.558  0.00  0.00    +0.000 HD
BRANCH  24  27
ATOM     27  O   UNL     1      -5.697  13.834  19.996  0.00  0.00    +0.000 OA
BRANCH  27  28
ATOM     28  C   UNL     1      -7.007  13.358  20.335  0.00  0.00    +0.000 C 
BRANCH  28  29
ATOM     29  C   UNL     1      -7.110  11.857  20.241  0.00  0.00    +0.000 A 
ATOM     30  C   UNL     1      -7.780  11.110  21.223  0.00  0.00    +0.000 A 
ATOM     31  C   UNL     1      -7.917   9.725  21.093  0.00  0.00    +0.000 A 
ATOM     32  C   UNL     1      -7.379   9.070  19.986  0.00  0.00    +0.000 A 
ATOM     33  C   UNL     1      -6.701   9.800  19.011  0.00  0.00    +0.000 A 
ATOM     34  C   UNL     1      -6.565  11.184  19.139  0.00  0.00    +0.000 A 
ENDBRANCH  28  29
ENDBRANCH  27  28
ENDBRANCH  24  27
ENDBRANCH  22  23
BRANCH  22  35
ATOM     35  C   UNL     1      -2.434  15.801  22.232  0.00  0.00    +0.000 C 
ATOM     36  O   UNL     1      -2.046  15.827  23.394  0.00  0.00    +0.000 OA
BRANCH  35  37
ATOM     37  OXT UNL     1      -2.815  16.929  21.584  0.00  0.00    +0.000 OA
ATOM     38  HXT UNL     1      -3.258  17.576  22.179  0.00  0.00    +0.000 HD
ENDBRANCH  35  37
ENDBRANCH  22  35
ENDBRANCH  21  22
ENDBRANCH   4  21
TORSDOF 8
ENDMDL
MODEL 6
REMARK VINA RESULT:      -7.4      1.805      2.748
REMARK  Name = 
REMARK  9 active torsions:
REMARK  status: ('A' for Active; 'I' for Inactive)
REMARK    1  A    between atoms: C_1  and  C_2
REMARK    2  A    between atoms: N_4  and  C_5
REMARK    3  A    between atoms: C_5  and  CA_6
REMARK    4  A    between atoms: CA_6  and  N_7
REMARK    5  A    between atoms: CA_6  and  C_18
REMARK    6  A    between atoms: C_8  and  O_10
REMARK    7  A    between atoms: O_10  and  C_11
REMARK    8  A    between atoms: C_11  and  C_12
REMARK    9  A    between atoms: C_18  and  OXT_20
REMARK                            x       y       z     vdW  Elec       q    Type
REMARK                         _______ _______ _______ _____ _____    ______ ____
ROOT
ATOM      1  C   UNL     1       0.686   7.884  21.525  0.00  0.00    +0.000 C 
ATOM      2  C   UNL     1       1.501   7.898  20.275  0.00  0.00    +0.000 A 
ATOM      3  C   UNL     1       2.251   6.870  19.874  0.00  0.00    +0.000 A 
ATOM      4  N   UNL     1       2.882   6.863  18.650  0.00  0.00    +0.000 N 
ATOM      5  C   UNL     1       2.713   7.915  17.750  0.00  0.00    +0.000 A 
ATOM      6  O   UNL     1       3.240   7.860  16.638  0.00  0.00    +0.000 OA
ATOM      7  N   UNL     1       1.977   9.005  18.142  0.00  0.00    +0.000 NA
ATOM      8  C   UNL     1       1.438   9.054  19.330  0.00  0.00    +0.000 A 
ATOM      9  N   UNL     1       0.792  10.233  19.680  0.00  0.00    +0.000 N 
ATOM     10  C   UNL     1       1.156  11.043  20.862  0.00  0.00    +0.000 C 
ATOM     11  C   UNL     1       0.977  12.567  20.598  0.00  0.00    +0.000 C 
ATOM     12  N   UNL     1      -0.349  12.852  20.039  0.00  0.00    +0.000 N 
ATOM     13  C   UNL     1      -1.182  13.844  20.514  0.00  0.00    +0.000 A 
ATOM     14  C   UNL     1      -0.664  15.029  21.040  0.00  0.00    +0.000 A 
ATOM     15  C   UNL     1      -1.517  15.999  21.571  0.00  0.00    +0.000 A 
ATOM     16  C   UNL     1      -2.880  15.765  21.582  0.00  0.00    +0.000 A 
ATOM     17  C   UNL     1      -3.333  14.581  21.031  0.00  0.00    +0.000 A 
ATOM     18  N   UNL     1      -2.522  13.640  20.489  0.00  0.00    +0.000 NA
ATOM     19  C   UNL     1      -0.762  12.010  18.907  0.00  0.00    +0.000 C 
ATOM     20  C   UNL     1      -0.582  10.510  19.214  0.00  0.00    +0.000 C 
ENDROOT
BRANCH   4  21
ATOM     21  C   UNL     1       3.609   5.657  18.222  0.00  0.00    +0.000 C 
BRANCH  21  22
ATOM     22  CA  UNL     1       5.146   5.778  18.132  0.00  0.00    +0.000 C 
BRANCH  22  23
ATOM     23  N   UNL     1       5.629   5.281  16.838  0.00  0.00    +0.000 N 
ATOM     24  C   UNL     1       6.720   5.817  16.221  0.00  0.00    +0.000 C 
ATOM     25  O   UNL     1       7.454   6.643  16.744  0.00  0.00    +0.000 OA
ATOM     26  H   UNL     1       5.008   4.776  16.219  0.00  0.00    +0.000 HD
BRANCH  24  27
ATOM     27  O   UNL     1       6.793   5.346  14.956  0.00  0.00    +0.000 OA
BRANCH  27  28
ATOM     28  C   UNL     1       5.549   5.062  14.303  0.00  0.00    +0.000 C 
BRANCH  28  29
ATOM     29  C   UNL     1       5.700   4.038  13.207  0.00  0.00    +0.000 A 
ATOM     30  C   UNL     1       4.583   3.528  12.527  0.00  0.00    +0.000 A 
ATOM     31  C   UNL     1       4.743   2.622  11.475  0.00  0.00    +0.000 A 
ATOM     32  C   UNL     1       6.020   2.209  11.096  0.00  0.00    +0.000 A 
ATOM     33  C   UNL     1       7.136   2.700  11.772  0.00  0.00    +0.000 A 
ATOM     34  C   UNL     1       6.977   3.606  12.823  0.00  0.00    +0.000 A 
ENDBRANCH  28  29
ENDBRANCH  27  28
ENDBRANCH  24  27
ENDBRANCH  22  23
BRANCH  22  35
ATOM     35  C   UNL     1       5.786   4.945  19.249  0.00  0.00    +0.000 C 
ATOM     36  O   UNL     1       5.400   3.834  19.592  0.00  0.00    +0.000 OA
BRANCH  35  37
ATOM     37  OXT UNL     1       6.903   5.505  19.776  0.00  0.00    +0.000 OA
ATOM     38  HXT UNL     1       7.269   6.223  19.210  0.00  0.00    +0.000 HD
ENDBRANCH  35  37
ENDBRANCH  22  35
ENDBRANCH  21  22
ENDBRANCH   4  21
TORSDOF 8
ENDMDL
MODEL 7
REMARK VINA RESULT:      -7.4      1.462      2.042
REMARK  Name = 
REMARK  9 active torsions:
REMARK  status: ('A' for Active; 'I' for Inactive)
REMARK    1  A    between atoms: C_1  and  C_2
REMARK    2  A    between atoms: N_4  and  C_5
REMARK    3  A    between atoms: C_5  and  CA_6
REMARK    4  A    between atoms: CA_6  and  N_7
REMARK    5  A    between atoms: CA_6  and  C_18
REMARK    6  A    between atoms: C_8  and  O_10
REMARK    7  A    between atoms: O_10  and  C_11
REMARK    8  A    between atoms: C_11  and  C_12
REMARK    9  A    between atoms: C_18  and  OXT_20
REMARK                            x       y       z     vdW  Elec       q    Type
REMARK                         _______ _______ _______ _____ _____    ______ ____
ROOT
ATOM      1  C   UNL     1       2.363  10.120  17.714  0.00  0.00    +0.000 C 
ATOM      2  C   UNL     1       2.138   8.869  18.496  0.00  0.00    +0.000 A 
ATOM      3  C   UNL     1       2.747   7.714  18.226  0.00  0.00    +0.000 A 
ATOM      4  N   UNL     1       2.622   6.616  19.048  0.00  0.00    +0.000 N 
ATOM      5  C   UNL     1       1.894   6.688  20.235  0.00  0.00    +0.000 A 
ATOM      6  O   UNL     1       1.845   5.711  20.983  0.00  0.00    +0.000 OA
ATOM      7  N   UNL     1       1.226   7.851  20.528  0.00  0.00    +0.000 NA
ATOM      8  C   UNL     1       1.276   8.871  19.716  0.00  0.00    +0.000 A 
ATOM      9  N   UNL     1       0.493   9.973  20.041  0.00  0.00    +0.000 N 
ATOM     10  C   UNL     1      -0.540  10.532  19.143  0.00  0.00    +0.000 C 
ATOM     11  C   UNL     1      -1.761  11.084  19.937  0.00  0.00    +0.000 C 
ATOM     12  N   UNL     1      -1.326  11.981  21.013  0.00  0.00    +0.000 N 
ATOM     13  C   UNL     1      -1.876  13.227  21.238  0.00  0.00    +0.000 A 
ATOM     14  C   UNL     1      -3.223  13.478  20.974  0.00  0.00    +0.000 A 
ATOM     15  C   UNL     1      -3.751  14.758  21.152  0.00  0.00    +0.000 A 
ATOM     16  C   UNL     1      -2.918  15.778  21.578  0.00  0.00    +0.000 A 
ATOM     17  C   UNL     1      -1.598  15.462  21.839  0.00  0.00    +0.000 A 
ATOM     18  N   UNL     1      -1.076  14.220  21.697  0.00  0.00    +0.000 NA
ATOM     19  C   UNL     1      -0.249  11.473  21.875  0.00  0.00    +0.000 C 
ATOM     20  C   UNL     1       0.945  10.950  21.052  0.00  0.00    +0.000 C 
ENDROOT
BRANCH   4  21
ATOM     21  C   UNL     1       3.402   5.403  18.752  0.00  0.00    +0.000 C 
BRANCH  21  22
ATOM     22  CA  UNL     1       4.792   5.621  18.114  0.00  0.00    +0.000 C 
BRANCH  22  23
ATOM     23  N   UNL     1       4.845   5.029  16.772  0.00  0.00    +0.000 N 
ATOM     24  C   UNL     1       5.817   5.359  15.875  0.00  0.00    +0.000 C 
ATOM     25  O   UNL     1       6.784   6.054  16.152  0.00  0.00    +0.000 OA
ATOM     26  H   UNL     1       4.013   4.630  16.356  0.00  0.00    +0.000 HD
BRANCH  24  27
ATOM     27  O   UNL     1       5.490   4.863  14.661  0.00  0.00    +0.000 OA
BRANCH  27  28
ATOM     28  C   UNL     1       6.531   4.842  13.675  0.00  0.00    +0.000 C 
BRANCH  28  29
ATOM     29  C   UNL     1       6.363   3.710  12.693  0.00  0.00    +0.000 A 
ATOM     30  C   UNL     1       5.090   3.253  12.318  0.00  0.00    +0.000 A 
ATOM     31  C   UNL     1       4.949   2.242  11.364  0.00  0.00    +0.000 A 
ATOM     32  C   UNL     1       6.079   1.669  10.780  0.00  0.00    +0.000 A 
ATOM     33  C   UNL     1       7.349   2.107  11.154  0.00  0.00    +0.000 A 
ATOM     34  C   UNL     1       7.490   3.118  12.107  0.00  0.00    +0.000 A 
ENDBRANCH  28  29
ENDBRANCH  27  28
ENDBRANCH  24  27
ENDBRANCH  22  23
BRANCH  22  35
ATOM     35  C   UNL     1       5.861   4.954  18.988  0.00  0.00    +0.000 C 
ATOM     36  O   UNL     1       6.590   5.554  19.770  0.00  0.00    +0.000 OA
BRANCH  35  37
ATOM     37  OXT UNL     1       5.871   3.601  18.901  0.00  0.00    +0.000 OA
ATOM     38  HXT UNL     1       5.542   3.168  19.722  0.00  0.00    +0.000 HD
ENDBRANCH  35  37
ENDBRANCH  22  35
ENDBRANCH  21  22
ENDBRANCH   4  21
TORSDOF 8
ENDMDL
MODEL 8
REMARK VINA RESULT:      -7.3      6.054     10.579
REMARK  Name = 
REMARK  9 active torsions:
REMARK  status: ('A' for Active; 'I' for Inactive)
REMARK    1  A    between atoms: C_1  and  C_2
REMARK    2  A    between atoms: N_4  and  C_5
REMARK    3  A    between atoms: C_5  and  CA_6
REMARK    4  A    between atoms: CA_6  and  N_7
REMARK    5  A    between atoms: CA_6  and  C_18
REMARK    6  A    between atoms: C_8  and  O_10
REMARK    7  A    between atoms: O_10  and  C_11
REMARK    8  A    between atoms: C_11  and  C_12
REMARK    9  A    between atoms: C_18  and  OXT_20
REMARK                            x       y       z     vdW  Elec       q    Type
REMARK                         _______ _______ _______ _____ _____    ______ ____
ROOT
ATOM      1  C   UNL     1      -1.694  10.735  18.483  0.00  0.00    +0.000 C 
ATOM      2  C   UNL     1      -0.712  11.712  19.037  0.00  0.00    +0.000 A 
ATOM      3  C   UNL     1      -0.905  13.032  19.034  0.00  0.00    +0.000 A 
ATOM      4  N   UNL     1      -0.044  13.895  19.674  0.00  0.00    +0.000 N 
ATOM      5  C   UNL     1       1.042  13.414  20.404  0.00  0.00    +0.000 A 
ATOM      6  O   UNL     1       1.765  14.202  21.016  0.00  0.00    +0.000 OA
ATOM      7  N   UNL     1       1.292  12.064  20.401  0.00  0.00    +0.000 NA
ATOM      8  C   UNL     1       0.525  11.246  19.734  0.00  0.00    +0.000 A 
ATOM      9  N   UNL     1       0.906   9.909  19.705  0.00  0.00    +0.000 N 
ATOM     10  C   UNL     1       1.162   9.162  18.456  0.00  0.00    +0.000 C 
ATOM     11  C   UNL     1       2.309   8.121  18.629  0.00  0.00    +0.000 C 
ATOM     12  N   UNL     1       2.086   7.286  19.815  0.00  0.00    +0.000 N 
ATOM     13  C   UNL     1       2.178   5.909  19.807  0.00  0.00    +0.000 A 
ATOM     14  C   UNL     1       3.081   5.251  18.970  0.00  0.00    +0.000 A 
ATOM     15  C   UNL     1       3.122   3.856  18.932  0.00  0.00    +0.000 A 
ATOM     16  C   UNL     1       2.245   3.134  19.722  0.00  0.00    +0.000 A 
ATOM     17  C   UNL     1       1.387   3.842  20.542  0.00  0.00    +0.000 A 
ATOM     18  N   UNL     1       1.352   5.195  20.611  0.00  0.00    +0.000 NA
ATOM     19  C   UNL     1       1.757   8.006  21.053  0.00  0.00    +0.000 C 
ATOM     20  C   UNL     1       0.611   9.014  20.843  0.00  0.00    +0.000 C 
ENDROOT
BRANCH   4  21
ATOM     21  C   UNL     1      -0.369  15.330  19.723  0.00  0.00    +0.000 C 
BRANCH  21  22
ATOM     22  CA  UNL     1       0.258  16.212  18.620  0.00  0.00    +0.000 C 
BRANCH  22  23
ATOM     23  N   UNL     1       1.449  16.905  19.126  0.00  0.00    +0.000 N 
ATOM     24  C   UNL     1       2.623  16.923  18.434  0.00  0.00    +0.000 C 
ATOM     25  O   UNL     1       2.741  16.492  17.296  0.00  0.00    +0.000 OA
ATOM     26  H   UNL     1       1.546  17.100  20.115  0.00  0.00    +0.000 HD
BRANCH  24  27
ATOM     27  O   UNL     1       3.602  17.411  19.228  0.00  0.00    +0.000 OA
BRANCH  27  28
ATOM     28  C   UNL     1       4.444  16.447  19.875  0.00  0.00    +0.000 C 
BRANCH  28  29
ATOM     29  C   UNL     1       5.734  16.224  19.127  0.00  0.00    +0.000 A 
ATOM     30  C   UNL     1       6.783  17.155  19.189  0.00  0.00    +0.000 A 
ATOM     31  C   UNL     1       7.993  16.908  18.537  0.00  0.00    +0.000 A 
ATOM     32  C   UNL     1       8.167  15.732  17.808  0.00  0.00    +0.000 A 
ATOM     33  C   UNL     1       7.128  14.805  17.729  0.00  0.00    +0.000 A 
ATOM     34  C   UNL     1       5.918  15.052  18.381  0.00  0.00    +0.000 A 
ENDBRANCH  28  29
ENDBRANCH  27  28
ENDBRANCH  24  27
ENDBRANCH  22  23
BRANCH  22  35
ATOM     35  C   UNL     1      -0.766  17.260  18.168  0.00  0.00    +0.000 C 
ATOM     36  O   UNL     1      -0.581  18.061  17.259  0.00  0.00    +0.000 OA
BRANCH  35  37
ATOM     37  OXT UNL     1      -1.960  17.167  18.803  0.00  0.00    +0.000 OA
ATOM     38  HXT UNL     1      -2.045  17.809  19.544  0.00  0.00    +0.000 HD
ENDBRANCH  35  37
ENDBRANCH  22  35
ENDBRANCH  21  22
ENDBRANCH   4  21
TORSDOF 8
ENDMDL
MODEL 9
REMARK VINA RESULT:      -7.3      1.256      1.969
REMARK  Name = 
REMARK  9 active torsions:
REMARK  status: ('A' for Active; 'I' for Inactive)
REMARK    1  A    between atoms: C_1  and  C_2
REMARK    2  A    between atoms: N_4  and  C_5
REMARK    3  A    between atoms: C_5  and  CA_6
REMARK    4  A    between atoms: CA_6  and  N_7
REMARK    5  A    between atoms: CA_6  and  C_18
REMARK    6  A    between atoms: C_8  and  O_10
REMARK    7  A    between atoms: O_10  and  C_11
REMARK    8  A    between atoms: C_11  and  C_12
REMARK    9  A    between atoms: C_18  and  OXT_20
REMARK                            x       y       z     vdW  Elec       q    Type
REMARK                         _______ _______ _______ _____ _____    ______ ____
ROOT
ATOM      1  C   UNL     1       2.605   9.829  17.576  0.00  0.00    +0.000 C 
ATOM      2  C   UNL     1       2.438   8.525  18.282  0.00  0.00    +0.000 A 
ATOM      3  C   UNL     1       3.068   7.407  17.922  0.00  0.00    +0.000 A 
ATOM      4  N   UNL     1       2.997   6.256  18.675  0.00  0.00    +0.000 N 
ATOM      5  C   UNL     1       2.304   6.233  19.884  0.00  0.00    +0.000 A 
ATOM      6  O   UNL     1       2.303   5.209  20.570  0.00  0.00    +0.000 OA
ATOM      7  N   UNL     1       1.614   7.355  20.270  0.00  0.00    +0.000 NA
ATOM      8  C   UNL     1       1.613   8.426  19.524  0.00  0.00    +0.000 A 
ATOM      9  N   UNL     1       0.812   9.482  19.941  0.00  0.00    +0.000 N 
ATOM     10  C   UNL     1      -0.262  10.068  19.111  0.00  0.00    +0.000 C 
ATOM     11  C   UNL     1      -1.473  10.534  19.973  0.00  0.00    +0.000 C 
ATOM     12  N   UNL     1      -1.029  11.373  21.091  0.00  0.00    +0.000 N 
ATOM     13  C   UNL     1      -1.604  12.586  21.411  0.00  0.00    +0.000 A 
ATOM     14  C   UNL     1      -2.966  12.816  21.202  0.00  0.00    +0.000 A 
ATOM     15  C   UNL     1      -3.521  14.067  21.476  0.00  0.00    +0.000 A 
ATOM     16  C   UNL     1      -2.703  15.081  21.943  0.00  0.00    +0.000 A 
ATOM     17  C   UNL     1      -1.367  14.786  22.146  0.00  0.00    +0.000 A 
ATOM     18  N   UNL     1      -0.817  13.571  21.910  0.00  0.00    +0.000 NA
ATOM     19  C   UNL     1       0.086  10.843  21.888  0.00  0.00    +0.000 C 
ATOM     20  C   UNL     1       1.268  10.406  20.999  0.00  0.00    +0.000 C 
ENDROOT
BRANCH   4  21
ATOM     21  C   UNL     1       3.800   5.087  18.279  0.00  0.00    +0.000 C 
BRANCH  21  22
ATOM     22  CA  UNL     1       5.311   5.331  18.072  0.00  0.00    +0.000 C 
BRANCH  22  23
ATOM     23  N   UNL     1       5.828   4.486  16.989  0.00  0.00    +0.000 N 
ATOM     24  C   UNL     1       6.742   4.946  16.089  0.00  0.00    +0.000 C 
ATOM     25  O   UNL     1       7.300   6.029  16.187  0.00  0.00    +0.000 OA
ATOM     26  H   UNL     1       5.304   3.680  16.674  0.00  0.00    +0.000 HD
BRANCH  24  27
ATOM     27  O   UNL     1       6.855   4.059  15.075  0.00  0.00    +0.000 OA
BRANCH  27  28
ATOM     28  C   UNL     1       6.957   4.604  13.753  0.00  0.00    +0.000 C 
BRANCH  28  29
ATOM     29  C   UNL     1       6.295   3.726  12.722  0.00  0.00    +0.000 A 
ATOM     30  C   UNL     1       6.998   2.689  12.087  0.00  0.00    +0.000 A 
ATOM     31  C   UNL     1       6.355   1.848  11.176  0.00  0.00    +0.000 A 
ATOM     32  C   UNL     1       5.005   2.038  10.880  0.00  0.00    +0.000 A 
ATOM     33  C   UNL     1       4.300   3.072  11.495  0.00  0.00    +0.000 A 
ATOM     34  C   UNL     1       4.942   3.913  12.407  0.00  0.00    +0.000 A 
ENDBRANCH  28  29
ENDBRANCH  27  28
ENDBRANCH  24  27
ENDBRANCH  22  23
BRANCH  22  35
ATOM     35  C   UNL     1       6.061   4.988  19.364  0.00  0.00    +0.000 C 
ATOM     36  O   UNL     1       7.042   5.595  19.778  0.00  0.00    +0.000 OA
BRANCH  35  37
ATOM     37  OXT UNL     1       5.482   3.995  20.085  0.00  0.00    +0.000 OA
ATOM     38  HXT UNL     1       4.636   4.276  20.502  0.00  0.00    +0.000 HD
ENDBRANCH  35  37
ENDBRANCH  22  35
ENDBRANCH  21  22
ENDBRANCH   4  21
TORSDOF 8
ENDMDL
