MODEL 1
REMARK VINA RESULT:      -8.5      0.000      0.000
REMARK  Name = 
REMARK  6 active torsions:
REMARK  status: ('A' for Active; 'I' for Inactive)
REMARK    1  A    between atoms: C_2  and  C_3
REMARK    2  A    between atoms: C_3  and  N_4
REMARK    3  A    between atoms: C_5  and  S_6
REMARK    4  A    between atoms: S_6  and  C_7
REMARK    5  A    between atoms: C_7  and  C_8
REMARK    6  A    between atoms: C_14  and  C_15
REMARK                            x       y       z     vdW  Elec       q    Type
REMARK                         _______ _______ _______ _____ _____    ______ ____
ROOT
ATOM      1  S   UNL     1      -0.112  12.195  21.403  0.00  0.00    +0.000 S 
ENDROOT
BRANCH   1   3
ATOM      2  N   UNL     1      -2.718  12.662  20.826  0.00  0.00    +0.000 N 
ATOM      3  C   UNL     1      -1.518  12.152  20.349  0.00  0.00    +0.000 A 
ATOM      4  N   UNL     1      -1.357  11.659  19.162  0.00  0.00    +0.000 NA
ATOM      5  C   UNL     1      -2.468  11.571  18.315  0.00  0.00    +0.000 A 
ATOM      6  C   UNL     1      -2.300  11.075  17.020  0.00  0.00    +0.000 A 
ATOM      7  C   UNL     1      -3.401  10.935  16.172  0.00  0.00    +0.000 A 
ATOM      8 CL   UNL     1      -3.180  10.326  14.578  0.00  0.00    +0.000 Cl
ATOM      9  C   UNL     1      -4.680  11.282  16.603  0.00  0.00    +0.000 A 
ATOM     10  C   UNL     1      -4.854  11.792  17.890  0.00  0.00    +0.000 A 
ATOM     11  C   UNL     1      -3.743  11.939  18.731  0.00  0.00    +0.000 A 
ATOM     12  C   UNL     1      -3.884  12.517  20.075  0.00  0.00    +0.000 A 
ATOM     13  O   UNL     1      -5.005  12.846  20.457  0.00  0.00    +0.000 OA
BRANCH   2  14
ATOM     14  C   UNL     1      -2.878  13.347  22.113  0.00  0.00    +0.000 C 
BRANCH  14  16
ATOM     15  C   UNL     1      -3.938  12.675  24.301  0.00  0.00    +0.000 C 
ATOM     16  C   UNL     1      -3.284  12.356  23.174  0.00  0.00    +0.000 C 
ENDBRANCH  14  16
ENDBRANCH   2  14
ENDBRANCH   1   3
BRANCH   1  17
ATOM     17  C   UNL     1      -0.080  10.505  22.058  0.00  0.00    +0.000 C 
BRANCH  17  18
ATOM     18  C   UNL     1       0.853   9.551  21.314  0.00  0.00    +0.000 C 
ATOM     19  O   UNL     1       1.441   8.616  21.848  0.00  0.00    +0.000 OA
ATOM     20  N   UNL     1       0.954   9.894  19.974  0.00  0.00    +0.000 N 
ATOM     21  C   UNL     1       1.610   9.129  19.050  0.00  0.00    +0.000 A 
ATOM     22  N   UNL     1       1.841   9.449  17.794  0.00  0.00    +0.000 NA
ATOM     23  N   UNL     1       2.464   8.353  17.223  0.00  0.00    +0.000 NA
ATOM     24  C   UNL     1       2.539   7.435  18.167  0.00  0.00    +0.000 A 
ATOM     25  O   UNL     1       2.028   7.874  19.360  0.00  0.00    +0.000 OA
ATOM     26  H   UNL     1       0.579  10.762  19.618  0.00  0.00    +0.000 HD
BRANCH  24  27
ATOM     27  C   UNL     1       3.017   6.058  18.123  0.00  0.00    +0.000 A 
ATOM     28  C   UNL     1       2.123   5.001  17.888  0.00  0.00    +0.000 A 
ATOM     29  C   UNL     1       2.571   3.677  17.878  0.00  0.00    +0.000 A 
ATOM     30  C   UNL     1       3.917   3.393  18.108  0.00  0.00    +0.000 A 
ATOM     31  C   UNL     1       4.817   4.431  18.339  0.00  0.00    +0.000 A 
ATOM     32  C   UNL     1       4.371   5.754  18.342  0.00  0.00    +0.000 A 
ENDBRANCH  24  27
ENDBRANCH  17  18
ENDBRANCH   1  17
TORSDOF 6
ENDMDL
MODEL 2
REMARK VINA RESULT:      -8.5      1.755      2.037
REMARK  Name = 
REMARK  6 active torsions:
REMARK  status: ('A' for Active; 'I' for Inactive)
REMARK    1  A    between atoms: C_2  and  C_3
REMARK    2  A    between atoms: C_3  and  N_4
REMARK    3  A    between atoms: C_5  and  S_6
REMARK    4  A    between atoms: S_6  and  C_7
REMARK    5  A    between atoms: C_7  and  C_8
REMARK    6  A    between atoms: C_14  and  C_15
REMARK                            x       y       z     vdW  Elec       q    Type
REMARK                         _______ _______ _______ _____ _____    ______ ____
ROOT
ATOM      1  S   UNL     1       0.627  11.582  20.869  0.00  0.00    +0.000 S 
ENDROOT
BRANCH   1   3
ATOM      2  N   UNL     1      -1.956  12.351  20.589  0.00  0.00    +0.000 N 
ATOM      3  C   UNL     1      -0.884  11.711  19.981  0.00  0.00    +0.000 A 
ATOM      4  N   UNL     1      -0.916  11.214  18.785  0.00  0.00    +0.000 NA
ATOM      5  C   UNL     1      -2.119  11.262  18.071  0.00  0.00    +0.000 A 
ATOM      6  C   UNL     1      -2.157  10.763  16.766  0.00  0.00    +0.000 A 
ATOM      7  C   UNL     1      -3.355  10.759  16.049  0.00  0.00    +0.000 A 
ATOM      8 CL   UNL     1      -3.388  10.143  14.442  0.00  0.00    +0.000 Cl
ATOM      9  C   UNL     1      -4.528  11.246  16.621  0.00  0.00    +0.000 A 
ATOM     10  C   UNL     1      -4.496  11.761  17.917  0.00  0.00    +0.000 A 
ATOM     11  C   UNL     1      -3.288  11.771  18.627  0.00  0.00    +0.000 A 
ATOM     12  C   UNL     1      -3.208  12.349  19.975  0.00  0.00    +0.000 A 
ATOM     13  O   UNL     1      -4.233  12.801  20.481  0.00  0.00    +0.000 OA
BRANCH   2  14
ATOM     14  C   UNL     1      -1.889  13.039  21.883  0.00  0.00    +0.000 C 
BRANCH  14  16
ATOM     15  C   UNL     1      -3.345  12.247  23.785  0.00  0.00    +0.000 C 
ATOM     16  C   UNL     1      -2.278  12.088  22.988  0.00  0.00    +0.000 C 
ENDBRANCH  14  16
ENDBRANCH   2  14
ENDBRANCH   1   3
BRANCH   1  17
ATOM     17  C   UNL     1       0.592   9.856  21.424  0.00  0.00    +0.000 C 
BRANCH  17  18
ATOM     18  C   UNL     1       1.138   8.850  20.411  0.00  0.00    +0.000 C 
ATOM     19  O   UNL     1       1.328   9.109  19.228  0.00  0.00    +0.000 OA
ATOM     20  N   UNL     1       1.369   7.619  21.005  0.00  0.00    +0.000 N 
ATOM     21  C   UNL     1       1.986   6.580  20.366  0.00  0.00    +0.000 A 
ATOM     22  N   UNL     1       2.135   5.356  20.826  0.00  0.00    +0.000 NA
ATOM     23  N   UNL     1       2.877   4.672  19.880  0.00  0.00    +0.000 NA
ATOM     24  C   UNL     1       3.150   5.540  18.925  0.00  0.00    +0.000 A 
ATOM     25  O   UNL     1       2.596   6.768  19.167  0.00  0.00    +0.000 OA
ATOM     26  H   UNL     1       1.049   7.411  21.941  0.00  0.00    +0.000 HD
BRANCH  24  27
ATOM     27  C   UNL     1       3.966   5.410  17.723  0.00  0.00    +0.000 A 
ATOM     28  C   UNL     1       4.338   4.143  17.248  0.00  0.00    +0.000 A 
ATOM     29  C   UNL     1       5.147   4.014  16.115  0.00  0.00    +0.000 A 
ATOM     30  C   UNL     1       5.599   5.152  15.448  0.00  0.00    +0.000 A 
ATOM     31  C   UNL     1       5.236   6.416  15.904  0.00  0.00    +0.000 A 
ATOM     32  C   UNL     1       4.422   6.544  17.031  0.00  0.00    +0.000 A 
ENDBRANCH  24  27
ENDBRANCH  17  18
ENDBRANCH   1  17
TORSDOF 6
ENDMDL
MODEL 3
REMARK VINA RESULT:      -8.2      2.241      2.990
REMARK  Name = 
REMARK  6 active torsions:
REMARK  status: ('A' for Active; 'I' for Inactive)
REMARK    1  A    between atoms: C_2  and  C_3
REMARK    2  A    between atoms: C_3  and  N_4
REMARK    3  A    between atoms: C_5  and  S_6
REMARK    4  A    between atoms: S_6  and  C_7
REMARK    5  A    between atoms: C_7  and  C_8
REMARK    6  A    between atoms: C_14  and  C_15
REMARK                            x       y       z     vdW  Elec       q    Type
REMARK                         _______ _______ _______ _____ _____    ______ ____
ROOT
ATOM      1  S   UNL     1       1.235  10.608  19.935  0.00  0.00    +0.000 S 
ENDROOT
BRANCH   1   3
ATOM      2  N   UNL     1      -1.206  11.772  20.090  0.00  0.00    +0.000 N 
ATOM      3  C   UNL     1      -0.361  10.996  19.309  0.00  0.00    +0.000 A 
ATOM      4  N   UNL     1      -0.664  10.547  18.132  0.00  0.00    +0.000 NA
ATOM      5  C   UNL     1      -1.944  10.802  17.626  0.00  0.00    +0.000 A 
ATOM      6  C   UNL     1      -2.270  10.356  16.342  0.00  0.00    +0.000 A 
ATOM      7  C   UNL     1      -3.554  10.558  15.832  0.00  0.00    +0.000 A 
ATOM      8 CL   UNL     1      -3.943  10.007  14.249  0.00  0.00    +0.000 Cl
ATOM      9  C   UNL     1      -4.529  11.201  16.594  0.00  0.00    +0.000 A 
ATOM     10  C   UNL     1      -4.206  11.663  17.869  0.00  0.00    +0.000 A 
ATOM     11  C   UNL     1      -2.913  11.465  18.370  0.00  0.00    +0.000 A 
ATOM     12  C   UNL     1      -2.526  11.981  19.691  0.00  0.00    +0.000 A 
ATOM     13  O   UNL     1      -3.373  12.568  20.362  0.00  0.00    +0.000 OA
BRANCH   2  14
ATOM     14  C   UNL     1      -0.825  12.399  21.359  0.00  0.00    +0.000 C 
BRANCH  14  16
ATOM     15  C   UNL     1      -0.800  10.574  23.101  0.00  0.00    +0.000 C 
ATOM     16  C   UNL     1      -1.404  11.617  22.511  0.00  0.00    +0.000 C 
ENDBRANCH  14  16
ENDBRANCH   2  14
ENDBRANCH   1   3
BRANCH   1  17
ATOM     17  C   UNL     1       1.050   8.862  20.387  0.00  0.00    +0.000 C 
BRANCH  17  18
ATOM     18  C   UNL     1       1.800   7.886  19.483  0.00  0.00    +0.000 C 
ATOM     19  O   UNL     1       2.034   8.097  18.297  0.00  0.00    +0.000 OA
ATOM     20  N   UNL     1       2.159   6.739  20.174  0.00  0.00    +0.000 N 
ATOM     21  C   UNL     1       2.958   5.763  19.647  0.00  0.00    +0.000 A 
ATOM     22  N   UNL     1       3.244   4.603  20.200  0.00  0.00    +0.000 NA
ATOM     23  N   UNL     1       4.139   3.977  19.351  0.00  0.00    +0.000 NA
ATOM     24  C   UNL     1       4.354   4.816  18.356  0.00  0.00    +0.000 A 
ATOM     25  O   UNL     1       3.619   5.965  18.477  0.00  0.00    +0.000 OA
ATOM     26  H   UNL     1       1.806   6.544  21.100  0.00  0.00    +0.000 HD
BRANCH  24  27
ATOM     27  C   UNL     1       5.262   4.733  17.218  0.00  0.00    +0.000 A 
ATOM     28  C   UNL     1       6.529   5.335  17.271  0.00  0.00    +0.000 A 
ATOM     29  C   UNL     1       7.390   5.285  16.170  0.00  0.00    +0.000 A 
ATOM     30  C   UNL     1       6.991   4.638  15.001  0.00  0.00    +0.000 A 
ATOM     31  C   UNL     1       5.739   4.033  14.934  0.00  0.00    +0.000 A 
ATOM     32  C   UNL     1       4.882   4.076  16.035  0.00  0.00    +0.000 A 
ENDBRANCH  24  27
ENDBRANCH  17  18
ENDBRANCH   1  17
TORSDOF 6
ENDMDL
MODEL 4
REMARK VINA RESULT:      -8.1      2.081      2.772
REMARK  Name = 
REMARK  6 active torsions:
REMARK  status: ('A' for Active; 'I' for Inactive)
REMARK    1  A    between atoms: C_2  and  C_3
REMARK    2  A    between atoms: C_3  and  N_4
REMARK    3  A    between atoms: C_5  and  S_6
REMARK    4  A    between atoms: S_6  and  C_7
REMARK    5  A    between atoms: C_7  and  C_8
REMARK    6  A    between atoms: C_14  and  C_15
REMARK                            x       y       z     vdW  Elec       q    Type
REMARK                         _______ _______ _______ _____ _____    ______ ____
ROOT
ATOM      1  S   UNL     1       1.029  10.911  20.382  0.00  0.00    +0.000 S 
ENDROOT
BRANCH   1   3
ATOM      2  N   UNL     1      -1.455  11.989  20.343  0.00  0.00    +0.000 N 
ATOM      3  C   UNL     1      -0.532  11.228  19.640  0.00  0.00    +0.000 A 
ATOM      4  N   UNL     1      -0.736  10.745  18.454  0.00  0.00    +0.000 NA
ATOM      5  C   UNL     1      -1.986  10.944  17.856  0.00  0.00    +0.000 A 
ATOM      6  C   UNL     1      -2.207  10.461  16.563  0.00  0.00    +0.000 A 
ATOM      7  C   UNL     1      -3.458  10.606  15.962  0.00  0.00    +0.000 A 
ATOM      8 CL   UNL     1      -3.717  10.009  14.369  0.00  0.00    +0.000 Cl
ATOM      9  C   UNL     1      -4.505  11.229  16.640  0.00  0.00    +0.000 A 
ATOM     10  C   UNL     1      -4.288  11.728  17.924  0.00  0.00    +0.000 A 
ATOM     11  C   UNL     1      -3.027  11.587  18.517  0.00  0.00    +0.000 A 
ATOM     12  C   UNL     1      -2.751  12.142  19.849  0.00  0.00    +0.000 A 
ATOM     13  O   UNL     1      -3.662  12.712  20.447  0.00  0.00    +0.000 OA
BRANCH   2  14
ATOM     14  C   UNL     1      -1.185  12.655  21.620  0.00  0.00    +0.000 C 
BRANCH  14  16
ATOM     15  C   UNL     1      -1.330  15.174  21.591  0.00  0.00    +0.000 C 
ATOM     16  C   UNL     1      -0.645  14.042  21.371  0.00  0.00    +0.000 C 
ENDBRANCH  14  16
ENDBRANCH   2  14
ENDBRANCH   1   3
BRANCH   1  17
ATOM     17  C   UNL     1       0.850   9.188  20.918  0.00  0.00    +0.000 C 
BRANCH  17  18
ATOM     18  C   UNL     1       1.595   8.171  20.054  0.00  0.00    +0.000 C 
ATOM     19  O   UNL     1       2.036   8.419  18.937  0.00  0.00    +0.000 OA
ATOM     20  N   UNL     1       1.687   6.944  20.694  0.00  0.00    +0.000 N 
ATOM     21  C   UNL     1       2.421   5.898  20.210  0.00  0.00    +0.000 A 
ATOM     22  N   UNL     1       2.461   4.677  20.702  0.00  0.00    +0.000 NA
ATOM     23  N   UNL     1       3.386   3.982  19.942  0.00  0.00    +0.000 NA
ATOM     24  C   UNL     1       3.862   4.841  19.062  0.00  0.00    +0.000 A 
ATOM     25  O   UNL     1       3.276   6.074  19.169  0.00  0.00    +0.000 OA
ATOM     26  H   UNL     1       1.172   6.746  21.540  0.00  0.00    +0.000 HD
BRANCH  24  27
ATOM     27  C   UNL     1       4.917   4.697  18.064  0.00  0.00    +0.000 A 
ATOM     28  C   UNL     1       6.266   4.818  18.431  0.00  0.00    +0.000 A 
ATOM     29  C   UNL     1       7.279   4.714  17.473  0.00  0.00    +0.000 A 
ATOM     30  C   UNL     1       6.953   4.494  16.135  0.00  0.00    +0.000 A 
ATOM     31  C   UNL     1       5.619   4.368  15.755  0.00  0.00    +0.000 A 
ATOM     32  C   UNL     1       4.609   4.465  16.713  0.00  0.00    +0.000 A 
ENDBRANCH  24  27
ENDBRANCH  17  18
ENDBRANCH   1  17
TORSDOF 6
ENDMDL
MODEL 5
REMARK VINA RESULT:      -8.1      2.295      2.893
REMARK  Name = 
REMARK  6 active torsions:
REMARK  status: ('A' for Active; 'I' for Inactive)
REMARK    1  A    between atoms: C_2  and  C_3
REMARK    2  A    between atoms: C_3  and  N_4
REMARK    3  A    between atoms: C_5  and  S_6
REMARK    4  A    between atoms: S_6  and  C_7
REMARK    5  A    between atoms: C_7  and  C_8
REMARK    6  A    between atoms: C_14  and  C_15
REMARK                            x       y       z     vdW  Elec       q    Type
REMARK                         _______ _______ _______ _____ _____    ______ ____
ROOT
ATOM      1  S   UNL     1       1.095  10.384  21.145  0.00  0.00    +0.000 S 
ENDROOT
BRANCH   1   3
ATOM      2  N   UNL     1      -1.208  11.773  20.821  0.00  0.00    +0.000 N 
ATOM      3  C   UNL     1      -0.331  10.867  20.240  0.00  0.00    +0.000 A 
ATOM      4  N   UNL     1      -0.485  10.361  19.056  0.00  0.00    +0.000 NA
ATOM      5  C   UNL     1      -1.634  10.693  18.329  0.00  0.00    +0.000 A 
ATOM      6  C   UNL     1      -1.793  10.184  17.038  0.00  0.00    +0.000 A 
ATOM      7  C   UNL     1      -2.951  10.464  16.309  0.00  0.00    +0.000 A 
ATOM      8 CL   UNL     1      -3.134   9.833  14.719  0.00  0.00    +0.000 Cl
ATOM      9  C   UNL     1      -3.965  11.247  16.858  0.00  0.00    +0.000 A 
ATOM     10  C   UNL     1      -3.807  11.771  18.141  0.00  0.00    +0.000 A 
ATOM     11  C   UNL     1      -2.638  11.495  18.861  0.00  0.00    +0.000 A 
ATOM     12  C   UNL     1      -2.418  12.070  20.196  0.00  0.00    +0.000 A 
ATOM     13  O   UNL     1      -3.298  12.780  20.680  0.00  0.00    +0.000 OA
BRANCH   2  14
ATOM     14  C   UNL     1      -0.974  12.455  22.098  0.00  0.00    +0.000 C 
BRANCH  14  16
ATOM     15  C   UNL     1       0.817  14.185  21.689  0.00  0.00    +0.000 C 
ATOM     16  C   UNL     1      -0.475  13.856  21.845  0.00  0.00    +0.000 C 
ENDBRANCH  14  16
ENDBRANCH   2  14
ENDBRANCH   1   3
BRANCH   1  17
ATOM     17  C   UNL     1       0.848   8.596  21.315  0.00  0.00    +0.000 C 
BRANCH  17  18
ATOM     18  C   UNL     1       1.604   7.748  20.293  0.00  0.00    +0.000 C 
ATOM     19  O   UNL     1       1.963   8.162  19.196  0.00  0.00    +0.000 OA
ATOM     20  N   UNL     1       1.809   6.461  20.766  0.00  0.00    +0.000 N 
ATOM     21  C   UNL     1       2.578   5.535  20.117  0.00  0.00    +0.000 A 
ATOM     22  N   UNL     1       2.722   4.269  20.446  0.00  0.00    +0.000 NA
ATOM     23  N   UNL     1       3.642   3.739  19.560  0.00  0.00    +0.000 NA
ATOM     24  C   UNL     1       4.013   4.731  18.773  0.00  0.00    +0.000 A 
ATOM     25  O   UNL     1       3.358   5.897  19.065  0.00  0.00    +0.000 OA
ATOM     26  H   UNL     1       1.357   6.124  21.604  0.00  0.00    +0.000 HD
BRANCH  24  27
ATOM     27  C   UNL     1       5.014   4.785  17.715  0.00  0.00    +0.000 A 
ATOM     28  C   UNL     1       4.924   3.932  16.604  0.00  0.00    +0.000 A 
ATOM     29  C   UNL     1       5.900   3.958  15.603  0.00  0.00    +0.000 A 
ATOM     30  C   UNL     1       6.981   4.833  15.704  0.00  0.00    +0.000 A 
ATOM     31  C   UNL     1       7.083   5.687  16.799  0.00  0.00    +0.000 A 
ATOM     32  C   UNL     1       6.105   5.667  17.795  0.00  0.00    +0.000 A 
ENDBRANCH  24  27
ENDBRANCH  17  18
ENDBRANCH   1  17
TORSDOF 6
ENDMDL
MODEL 6
REMARK VINA RESULT:      -7.9      3.535      9.664
REMARK  Name = 
REMARK  6 active torsions:
REMARK  status: ('A' for Active; 'I' for Inactive)
REMARK    1  A    between atoms: C_2  and  C_3
REMARK    2  A    between atoms: C_3  and  N_4
REMARK    3  A    between atoms: C_5  and  S_6
REMARK    4  A    between atoms: S_6  and  C_7
REMARK    5  A    between atoms: C_7  and  C_8
REMARK    6  A    between atoms: C_14  and  C_15
REMARK                            x       y       z     vdW  Elec       q    Type
REMARK                         _______ _______ _______ _____ _____    ______ ____
ROOT
ATOM      1  S   UNL     1       2.568   6.918  19.690  0.00  0.00    +0.000 S 
ENDROOT
BRANCH   1   3
ATOM      2  N   UNL     1       2.734   4.505  18.471  0.00  0.00    +0.000 N 
ATOM      3  C   UNL     1       3.234   5.799  18.510  0.00  0.00    +0.000 A 
ATOM      4  N   UNL     1       4.154   6.250  17.716  0.00  0.00    +0.000 NA
ATOM      5  C   UNL     1       4.735   5.370  16.795  0.00  0.00    +0.000 A 
ATOM      6  C   UNL     1       5.702   5.853  15.909  0.00  0.00    +0.000 A 
ATOM      7  C   UNL     1       6.328   4.986  15.011  0.00  0.00    +0.000 A 
ATOM      8 CL   UNL     1       7.515   5.593  13.923  0.00  0.00    +0.000 Cl
ATOM      9  C   UNL     1       6.005   3.630  14.988  0.00  0.00    +0.000 A 
ATOM     10  C   UNL     1       5.030   3.144  15.859  0.00  0.00    +0.000 A 
ATOM     11  C   UNL     1       4.398   4.021  16.749  0.00  0.00    +0.000 A 
ATOM     12  C   UNL     1       3.334   3.552  17.647  0.00  0.00    +0.000 A 
ATOM     13  O   UNL     1       3.026   2.362  17.619  0.00  0.00    +0.000 OA
BRANCH   2  14
ATOM     14  C   UNL     1       1.600   4.025  19.267  0.00  0.00    +0.000 C 
BRANCH  14  16
ATOM     15  C   UNL     1       1.347   2.779  21.446  0.00  0.00    +0.000 C 
ATOM     16  C   UNL     1       2.092   3.495  20.591  0.00  0.00    +0.000 C 
ENDBRANCH  14  16
ENDBRANCH   2  14
ENDBRANCH   1   3
BRANCH   1  17
ATOM     17  C   UNL     1       1.953   8.258  18.636  0.00  0.00    +0.000 C 
BRANCH  17  18
ATOM     18  C   UNL     1       1.173   9.344  19.375  0.00  0.00    +0.000 C 
ATOM     19  O   UNL     1       0.613  10.282  18.817  0.00  0.00    +0.000 OA
ATOM     20  N   UNL     1       1.200   9.134  20.745  0.00  0.00    +0.000 N 
ATOM     21  C   UNL     1       0.469   9.873  21.634  0.00  0.00    +0.000 A 
ATOM     22  N   UNL     1       0.534   9.804  22.947  0.00  0.00    +0.000 NA
ATOM     23  N   UNL     1      -0.429  10.673  23.429  0.00  0.00    +0.000 NA
ATOM     24  C   UNL     1      -1.028  11.186  22.372  0.00  0.00    +0.000 A 
ATOM     25  O   UNL     1      -0.491  10.730  21.198  0.00  0.00    +0.000 OA
ATOM     26  H   UNL     1       1.805   8.442  21.166  0.00  0.00    +0.000 HD
BRANCH  24  27
ATOM     27  C   UNL     1      -2.168  12.089  22.267  0.00  0.00    +0.000 A 
ATOM     28  C   UNL     1      -2.476  12.710  21.046  0.00  0.00    +0.000 A 
ATOM     29  C   UNL     1      -3.548  13.602  20.948  0.00  0.00    +0.000 A 
ATOM     30  C   UNL     1      -4.321  13.889  22.073  0.00  0.00    +0.000 A 
ATOM     31  C   UNL     1      -4.031  13.279  23.290  0.00  0.00    +0.000 A 
ATOM     32  C   UNL     1      -2.965  12.383  23.386  0.00  0.00    +0.000 A 
ENDBRANCH  24  27
ENDBRANCH  17  18
ENDBRANCH   1  17
TORSDOF 6
ENDMDL
MODEL 7
REMARK VINA RESULT:      -7.9      3.528      9.671
REMARK  Name = 
REMARK  6 active torsions:
REMARK  status: ('A' for Active; 'I' for Inactive)
REMARK    1  A    between atoms: C_2  and  C_3
REMARK    2  A    between atoms: C_3  and  N_4
REMARK    3  A    between atoms: C_5  and  S_6
REMARK    4  A    between atoms: S_6  and  C_7
REMARK    5  A    between atoms: C_7  and  C_8
REMARK    6  A    between atoms: C_14  and  C_15
REMARK                            x       y       z     vdW  Elec       q    Type
REMARK                         _______ _______ _______ _____ _____    ______ ____
ROOT
ATOM      1  S   UNL     1       3.149   8.595  17.797  0.00  0.00    +0.000 S 
ENDROOT
BRANCH   1   3
ATOM      2  N   UNL     1       4.482   6.244  17.623  0.00  0.00    +0.000 N 
ATOM      3  C   UNL     1       3.439   6.920  18.241  0.00  0.00    +0.000 A 
ATOM      4  N   UNL     1       2.668   6.401  19.145  0.00  0.00    +0.000 NA
ATOM      5  C   UNL     1       2.847   5.055  19.487  0.00  0.00    +0.000 A 
ATOM      6  C   UNL     1       2.047   4.495  20.486  0.00  0.00    +0.000 A 
ATOM      7  C   UNL     1       2.176   3.144  20.814  0.00  0.00    +0.000 A 
ATOM      8 CL   UNL     1       1.187   2.466  22.048  0.00  0.00    +0.000 Cl
ATOM      9  C   UNL     1       3.096   2.335  20.150  0.00  0.00    +0.000 A 
ATOM     10  C   UNL     1       3.909   2.890  19.162  0.00  0.00    +0.000 A 
ATOM     11  C   UNL     1       3.781   4.249  18.845  0.00  0.00    +0.000 A 
ATOM     12  C   UNL     1       4.654   4.877  17.844  0.00  0.00    +0.000 A 
ATOM     13  O   UNL     1       5.484   4.177  17.267  0.00  0.00    +0.000 OA
BRANCH   2  14
ATOM     14  C   UNL     1       5.445   6.860  16.705  0.00  0.00    +0.000 C 
BRANCH  14  16
ATOM     15  C   UNL     1       7.523   8.040  17.513  0.00  0.00    +0.000 C 
ATOM     16  C   UNL     1       6.806   6.918  17.353  0.00  0.00    +0.000 C 
ENDBRANCH  14  16
ENDBRANCH   2  14
ENDBRANCH   1   3
BRANCH   1  17
ATOM     17  C   UNL     1       1.339   8.653  17.703  0.00  0.00    +0.000 C 
BRANCH  17  18
ATOM     18  C   UNL     1       0.682   9.642  18.664  0.00  0.00    +0.000 C 
ATOM     19  O   UNL     1      -0.021  10.580  18.303  0.00  0.00    +0.000 OA
ATOM     20  N   UNL     1       1.000   9.345  19.981  0.00  0.00    +0.000 N 
ATOM     21  C   UNL     1       0.437   9.982  21.052  0.00  0.00    +0.000 A 
ATOM     22  N   UNL     1       0.773   9.832  22.316  0.00  0.00    +0.000 NA
ATOM     23  N   UNL     1      -0.107  10.611  23.047  0.00  0.00    +0.000 NA
ATOM     24  C   UNL     1      -0.932  11.155  22.174  0.00  0.00    +0.000 A 
ATOM     25  O   UNL     1      -0.629  10.808  20.885  0.00  0.00    +0.000 OA
ATOM     26  H   UNL     1       1.707   8.663  20.217  0.00  0.00    +0.000 HD
BRANCH  24  27
ATOM     27  C   UNL     1      -2.107  11.997  22.370  0.00  0.00    +0.000 A 
ATOM     28  C   UNL     1      -2.597  12.792  21.323  0.00  0.00    +0.000 A 
ATOM     29  C   UNL     1      -3.703  13.625  21.516  0.00  0.00    +0.000 A 
ATOM     30  C   UNL     1      -4.329  13.677  22.761  0.00  0.00    +0.000 A 
ATOM     31  C   UNL     1      -3.857  12.891  23.809  0.00  0.00    +0.000 A 
ATOM     32  C   UNL     1      -2.757  12.054  23.615  0.00  0.00    +0.000 A 
ENDBRANCH  24  27
ENDBRANCH  17  18
ENDBRANCH   1  17
TORSDOF 6
ENDMDL
MODEL 8
REMARK VINA RESULT:      -7.9      1.279      1.389
REMARK  Name = 
REMARK  6 active torsions:
REMARK  status: ('A' for Active; 'I' for Inactive)
REMARK    1  A    between atoms: C_2  and  C_3
REMARK    2  A    between atoms: C_3  and  N_4
REMARK    3  A    between atoms: C_5  and  S_6
REMARK    4  A    between atoms: S_6  and  C_7
REMARK    5  A    between atoms: C_7  and  C_8
REMARK    6  A    between atoms: C_14  and  C_15
REMARK                            x       y       z     vdW  Elec       q    Type
REMARK                         _______ _______ _______ _____ _____    ______ ____
ROOT
ATOM      1  S   UNL     1      -0.166  12.308  21.474  0.00  0.00    +0.000 S 
ENDROOT
BRANCH   1   3
ATOM      2  N   UNL     1      -2.736  12.782  20.762  0.00  0.00    +0.000 N 
ATOM      3  C   UNL     1      -1.529  12.219  20.369  0.00  0.00    +0.000 A 
ATOM      4  N   UNL     1      -1.331  11.644  19.225  0.00  0.00    +0.000 NA
ATOM      5  C   UNL     1      -2.410  11.519  18.342  0.00  0.00    +0.000 A 
ATOM      6  C   UNL     1      -2.201  10.933  17.090  0.00  0.00    +0.000 A 
ATOM      7  C   UNL     1      -3.270  10.756  16.209  0.00  0.00    +0.000 A 
ATOM      8 CL   UNL     1      -2.999  10.036  14.670  0.00  0.00    +0.000 Cl
ATOM      9  C   UNL     1      -4.558  11.154  16.564  0.00  0.00    +0.000 A 
ATOM     10  C   UNL     1      -4.772  11.753  17.805  0.00  0.00    +0.000 A 
ATOM     11  C   UNL     1      -3.693  11.937  18.679  0.00  0.00    +0.000 A 
ATOM     12  C   UNL     1      -3.874  12.607  19.975  0.00  0.00    +0.000 A 
ATOM     13  O   UNL     1      -5.003  12.981  20.288  0.00  0.00    +0.000 OA
BRANCH   2  14
ATOM     14  C   UNL     1      -2.933  13.556  21.991  0.00  0.00    +0.000 C 
BRANCH  14  16
ATOM     15  C   UNL     1      -4.507  12.842  23.829  0.00  0.00    +0.000 C 
ATOM     16  C   UNL     1      -3.398  12.645  23.100  0.00  0.00    +0.000 C 
ENDBRANCH  14  16
ENDBRANCH   2  14
ENDBRANCH   1   3
BRANCH   1  17
ATOM     17  C   UNL     1      -0.431  10.850  22.519  0.00  0.00    +0.000 C 
BRANCH  17  18
ATOM     18  C   UNL     1       0.350   9.609  22.090  0.00  0.00    +0.000 C 
ATOM     19  O   UNL     1       0.573   8.655  22.829  0.00  0.00    +0.000 OA
ATOM     20  N   UNL     1       0.778   9.716  20.776  0.00  0.00    +0.000 N 
ATOM     21  C   UNL     1       1.376   8.694  20.094  0.00  0.00    +0.000 A 
ATOM     22  N   UNL     1       1.907   8.761  18.891  0.00  0.00    +0.000 NA
ATOM     23  N   UNL     1       2.325   7.480  18.578  0.00  0.00    +0.000 NA
ATOM     24  C   UNL     1       1.991   6.720  19.604  0.00  0.00    +0.000 A 
ATOM     25  O   UNL     1       1.399   7.437  20.610  0.00  0.00    +0.000 OA
ATOM     26  H   UNL     1       0.707  10.584  20.263  0.00  0.00    +0.000 HD
BRANCH  24  27
ATOM     27  C   UNL     1       2.103   5.280  19.800  0.00  0.00    +0.000 A 
ATOM     28  C   UNL     1       2.084   4.407  18.701  0.00  0.00    +0.000 A 
ATOM     29  C   UNL     1       2.158   3.023  18.887  0.00  0.00    +0.000 A 
ATOM     30  C   UNL     1       2.248   2.495  20.175  0.00  0.00    +0.000 A 
ATOM     31  C   UNL     1       2.272   3.348  21.275  0.00  0.00    +0.000 A 
ATOM     32  C   UNL     1       2.205   4.730  21.090  0.00  0.00    +0.000 A 
ENDBRANCH  24  27
ENDBRANCH  17  18
ENDBRANCH   1  17
TORSDOF 6
ENDMDL
MODEL 9
REMARK VINA RESULT:      -7.8      2.443      3.769
REMARK  Name = 
REMARK  6 active torsions:
REMARK  status: ('A' for Active; 'I' for Inactive)
REMARK    1  A    between atoms: C_2  and  C_3
REMARK    2  A    between atoms: C_3  and  N_4
REMARK    3  A    between atoms: C_5  and  S_6
REMARK    4  A    between atoms: S_6  and  C_7
REMARK    5  A    between atoms: C_7  and  C_8
REMARK    6  A    between atoms: C_14  and  C_15
REMARK                            x       y       z     vdW  Elec       q    Type
REMARK                         _______ _______ _______ _____ _____    ______ ____
ROOT
ATOM      1  S   UNL     1      -0.591  12.497  21.166  0.00  0.00    +0.000 S 
ENDROOT
BRANCH   1   3
ATOM      2  N   UNL     1      -2.845  12.246  19.683  0.00  0.00    +0.000 N 
ATOM      3  C   UNL     1      -2.336  12.490  20.952  0.00  0.00    +0.000 A 
ATOM      4  N   UNL     1      -3.065  12.697  22.003  0.00  0.00    +0.000 NA
ATOM      5  C   UNL     1      -4.457  12.741  21.855  0.00  0.00    +0.000 A 
ATOM      6  C   UNL     1      -5.256  12.926  22.986  0.00  0.00    +0.000 A 
ATOM      7  C   UNL     1      -6.644  13.018  22.859  0.00  0.00    +0.000 A 
ATOM      8 CL   UNL     1      -7.617  13.243  24.260  0.00  0.00    +0.000 Cl
ATOM      9  C   UNL     1      -7.251  12.933  21.608  0.00  0.00    +0.000 A 
ATOM     10  C   UNL     1      -6.461  12.732  20.476  0.00  0.00    +0.000 A 
ATOM     11  C   UNL     1      -5.071  12.630  20.612  0.00  0.00    +0.000 A 
ATOM     12  C   UNL     1      -4.214  12.372  19.447  0.00  0.00    +0.000 A 
ATOM     13  O   UNL     1      -4.742  12.274  18.341  0.00  0.00    +0.000 OA
BRANCH   2  14
ATOM     14  C   UNL     1      -2.035  11.874  18.519  0.00  0.00    +0.000 C 
BRANCH  14  16
ATOM     15  C   UNL     1      -2.032   9.791  17.097  0.00  0.00    +0.000 C 
ATOM     16  C   UNL     1      -2.112  10.384  18.297  0.00  0.00    +0.000 C 
ENDBRANCH  14  16
ENDBRANCH   2  14
ENDBRANCH   1   3
BRANCH   1  17
ATOM     17  C   UNL     1      -0.319  10.966  22.097  0.00  0.00    +0.000 C 
BRANCH  17  18
ATOM     18  C   UNL     1       0.649   9.983  21.439  0.00  0.00    +0.000 C 
ATOM     19  O   UNL     1       1.243   9.100  22.048  0.00  0.00    +0.000 OA
ATOM     20  N   UNL     1       0.773  10.238  20.082  0.00  0.00    +0.000 N 
ATOM     21  C   UNL     1       1.465   9.427  19.225  0.00  0.00    +0.000 A 
ATOM     22  N   UNL     1       1.718   9.665  17.956  0.00  0.00    +0.000 NA
ATOM     23  N   UNL     1       2.374   8.547  17.473  0.00  0.00    +0.000 NA
ATOM     24  C   UNL     1       2.446   7.697  18.479  0.00  0.00    +0.000 A 
ATOM     25  O   UNL     1       1.901   8.205  19.628  0.00  0.00    +0.000 OA
ATOM     26  H   UNL     1       0.390  11.071  19.659  0.00  0.00    +0.000 HD
BRANCH  24  27
ATOM     27  C   UNL     1       2.952   6.330  18.538  0.00  0.00    +0.000 A 
ATOM     28  C   UNL     1       2.818   5.571  19.711  0.00  0.00    +0.000 A 
ATOM     29  C   UNL     1       3.330   4.272  19.783  0.00  0.00    +0.000 A 
ATOM     30  C   UNL     1       3.988   3.719  18.685  0.00  0.00    +0.000 A 
ATOM     31  C   UNL     1       4.126   4.458  17.513  0.00  0.00    +0.000 A 
ATOM     32  C   UNL     1       3.608   5.753  17.439  0.00  0.00    +0.000 A 
ENDBRANCH  24  27
ENDBRANCH  17  18
ENDBRANCH   1  17
TORSDOF 6
ENDMDL
