MODEL 1
REMARK VINA RESULT:      -7.3      0.000      0.000
REMARK  Name = 
REMARK  5 active torsions:
REMARK  status: ('A' for Active; 'I' for Inactive)
REMARK    1  A    between atoms: C_1  and  C_2
REMARK    2  A    between atoms: C_7  and  C_8
REMARK    3  A    between atoms: N_12  and  C_13
REMARK    4  A    between atoms: C_16  and  S_17
REMARK    5  A    between atoms: S_17  and  N_18
REMARK                            x       y       z     vdW  Elec       q    Type
REMARK                         _______ _______ _______ _____ _____    ______ ____
ROOT
ATOM      1  C   UNL     1       4.847   5.017  17.963  0.00  0.00    +0.000 A 
ATOM      2  C   UNL     1       4.908   4.044  18.939  0.00  0.00    +0.000 A 
ATOM      3  S   UNL     1       3.641   4.274  20.074  0.00  0.00    +0.000 S 
ATOM      4  C   UNL     1       3.110   5.656  19.194  0.00  0.00    +0.000 A 
ATOM      5  N   UNL     1       2.006   6.336  19.579  0.00  0.00    +0.000 N 
ATOM      6  N   UNL     1       3.843   5.944  18.143  0.00  0.00    +0.000 NA
ATOM      7  H   UNL     1       1.468   5.970  20.355  0.00  0.00    +0.000 HD
ENDROOT
BRANCH   1  14
ATOM      8  C   UNL     1       7.504   6.731  17.750  0.00  0.00    +0.000 C 
ATOM      9  C   UNL     1       6.900   5.874  16.692  0.00  0.00    +0.000 A 
ATOM     10  N   UNL     1       7.549   5.811  15.463  0.00  0.00    +0.000 NA
ATOM     11  C   UNL     1       6.927   4.984  14.664  0.00  0.00    +0.000 A 
ATOM     12  N   UNL     1       7.340   4.729  13.413  0.00  0.00    +0.000 N 
ATOM     13  S   UNL     1       5.525   4.247  15.309  0.00  0.00    +0.000 S 
ATOM     14  C   UNL     1       5.754   5.096  16.776  0.00  0.00    +0.000 A 
ATOM     15  H   UNL     1       8.004   5.395  13.033  0.00  0.00    +0.000 HD
ATOM     16  H   UNL     1       6.658   4.391  12.747  0.00  0.00    +0.000 HD
ENDBRANCH   1  14
BRANCH   5  17
ATOM     17  C   UNL     1       1.811   7.716  19.375  0.00  0.00    +0.000 A 
ATOM     18  C   UNL     1       1.324   8.502  20.430  0.00  0.00    +0.000 A 
ATOM     19  C   UNL     1       1.137   9.877  20.268  0.00  0.00    +0.000 A 
ATOM     20  C   UNL     1       1.456  10.476  19.048  0.00  0.00    +0.000 A 
ATOM     21  C   UNL     1       1.913   9.710  17.977  0.00  0.00    +0.000 A 
ATOM     22  C   UNL     1       2.084   8.336  18.144  0.00  0.00    +0.000 A 
BRANCH  20  23
ATOM     23  S   UNL     1       1.267  12.223  18.853  0.00  0.00    +0.000 S 
ATOM     24  O   UNL     1      -0.062  12.514  18.378  0.00  0.00    +0.000 OA
ATOM     25  O   UNL     1       1.855  12.895  19.985  0.00  0.00    +0.000 OA
BRANCH  23  26
ATOM     26  N   UNL     1       2.297  12.514  17.557  0.00  0.00    +0.000 NA
ATOM     27  H   UNL     1       1.885  12.152  16.699  0.00  0.00    +0.000 HD
ATOM     28  H   UNL     1       2.540  13.504  17.522  0.00  0.00    +0.000 HD
ENDBRANCH  23  26
ENDBRANCH  20  23
ENDBRANCH   5  17
TORSDOF 4
ENDMDL
MODEL 2
REMARK VINA RESULT:      -7.3      4.841      8.275
REMARK  Name = 
REMARK  5 active torsions:
REMARK  status: ('A' for Active; 'I' for Inactive)
REMARK    1  A    between atoms: C_1  and  C_2
REMARK    2  A    between atoms: C_7  and  C_8
REMARK    3  A    between atoms: N_12  and  C_13
REMARK    4  A    between atoms: C_16  and  S_17
REMARK    5  A    between atoms: S_17  and  N_18
REMARK                            x       y       z     vdW  Elec       q    Type
REMARK                         _______ _______ _______ _____ _____    ______ ____
ROOT
ATOM      1  C   UNL     1      -0.434  10.047  20.165  0.00  0.00    +0.000 A 
ATOM      2  C   UNL     1      -0.630  10.453  21.468  0.00  0.00    +0.000 A 
ATOM      3  S   UNL     1       0.337   9.509  22.526  0.00  0.00    +0.000 S 
ATOM      4  C   UNL     1       0.937   8.620  21.178  0.00  0.00    +0.000 A 
ATOM      5  N   UNL     1       1.873   7.658  21.348  0.00  0.00    +0.000 N 
ATOM      6  N   UNL     1       0.430   8.982  20.022  0.00  0.00    +0.000 NA
ATOM      7  H   UNL     1       2.255   7.525  22.276  0.00  0.00    +0.000 HD
ENDROOT
BRANCH   1  14
ATOM      8  C   UNL     1       0.258  12.907  18.986  0.00  0.00    +0.000 C 
ATOM      9  C   UNL     1      -0.765  11.949  18.481  0.00  0.00    +0.000 A 
ATOM     10  N   UNL     1      -1.520  12.334  17.377  0.00  0.00    +0.000 NA
ATOM     11  C   UNL     1      -2.334  11.373  17.027  0.00  0.00    +0.000 A 
ATOM     12  N   UNL     1      -3.178  11.472  15.988  0.00  0.00    +0.000 N 
ATOM     13  S   UNL     1      -2.271   9.962  17.993  0.00  0.00    +0.000 S 
ATOM     14  C   UNL     1      -1.063  10.684  18.966  0.00  0.00    +0.000 A 
ATOM     15  H   UNL     1      -3.336  12.416  15.649  0.00  0.00    +0.000 HD
ATOM     16  H   UNL     1      -4.000  10.884  15.986  0.00  0.00    +0.000 HD
ENDBRANCH   1  14
BRANCH   5  17
ATOM     17  C   UNL     1       1.998   6.518  20.530  0.00  0.00    +0.000 A 
ATOM     18  C   UNL     1       2.720   6.613  19.331  0.00  0.00    +0.000 A 
ATOM     19  C   UNL     1       2.879   5.498  18.504  0.00  0.00    +0.000 A 
ATOM     20  C   UNL     1       2.329   4.272  18.888  0.00  0.00    +0.000 A 
ATOM     21  C   UNL     1       1.583   4.163  20.060  0.00  0.00    +0.000 A 
ATOM     22  C   UNL     1       1.418   5.285  20.872  0.00  0.00    +0.000 A 
BRANCH  20  23
ATOM     23  S   UNL     1       2.569   2.847  17.871  0.00  0.00    +0.000 S 
ATOM     24  O   UNL     1       2.129   3.133  16.528  0.00  0.00    +0.000 OA
ATOM     25  O   UNL     1       3.856   2.265  18.162  0.00  0.00    +0.000 OA
BRANCH  23  26
ATOM     26  N   UNL     1       1.430   1.795  18.518  0.00  0.00    +0.000 NA
ATOM     27  H   UNL     1       1.140   2.121  19.438  0.00  0.00    +0.000 HD
ATOM     28  H   UNL     1       0.664   1.662  17.857  0.00  0.00    +0.000 HD
ENDBRANCH  23  26
ENDBRANCH  20  23
ENDBRANCH   5  17
TORSDOF 4
ENDMDL
MODEL 3
REMARK VINA RESULT:      -7.2      0.194      1.027
REMARK  Name = 
REMARK  5 active torsions:
REMARK  status: ('A' for Active; 'I' for Inactive)
REMARK    1  A    between atoms: C_1  and  C_2
REMARK    2  A    between atoms: C_7  and  C_8
REMARK    3  A    between atoms: N_12  and  C_13
REMARK    4  A    between atoms: C_16  and  S_17
REMARK    5  A    between atoms: S_17  and  N_18
REMARK                            x       y       z     vdW  Elec       q    Type
REMARK                         _______ _______ _______ _____ _____    ______ ____
ROOT
ATOM      1  C   UNL     1       4.863   4.882  17.996  0.00  0.00    +0.000 A 
ATOM      2  C   UNL     1       4.919   3.869  18.931  0.00  0.00    +0.000 A 
ATOM      3  S   UNL     1       3.653   4.058  20.075  0.00  0.00    +0.000 S 
ATOM      4  C   UNL     1       3.128   5.479  19.252  0.00  0.00    +0.000 A 
ATOM      5  N   UNL     1       2.027   6.147  19.666  0.00  0.00    +0.000 N 
ATOM      6  N   UNL     1       3.863   5.806  18.215  0.00  0.00    +0.000 NA
ATOM      7  H   UNL     1       1.488   5.752  20.426  0.00  0.00    +0.000 HD
ENDROOT
BRANCH   1  14
ATOM      8  C   UNL     1       7.498   6.635  17.835  0.00  0.00    +0.000 C 
ATOM      9  C   UNL     1       6.906   5.800  16.753  0.00  0.00    +0.000 A 
ATOM     10  N   UNL     1       7.557   5.779  15.523  0.00  0.00    +0.000 NA
ATOM     11  C   UNL     1       6.947   4.968  14.700  0.00  0.00    +0.000 A 
ATOM     12  N   UNL     1       7.364   4.752  13.443  0.00  0.00    +0.000 N 
ATOM     13  S   UNL     1       5.553   4.195  15.322  0.00  0.00    +0.000 S 
ATOM     14  C   UNL     1       5.770   5.006  16.813  0.00  0.00    +0.000 A 
ATOM     15  H   UNL     1       8.020   5.438  13.083  0.00  0.00    +0.000 HD
ATOM     16  H   UNL     1       6.687   4.425  12.767  0.00  0.00    +0.000 HD
ENDBRANCH   1  14
BRANCH   5  17
ATOM     17  C   UNL     1       1.839   7.535  19.518  0.00  0.00    +0.000 A 
ATOM     18  C   UNL     1       2.086   8.131  18.273  0.00  0.00    +0.000 A 
ATOM     19  C   UNL     1       1.893   9.501  18.086  0.00  0.00    +0.000 A 
ATOM     20  C   UNL     1       1.431  10.283  19.148  0.00  0.00    +0.000 A 
ATOM     21  C   UNL     1       1.207   9.717  20.402  0.00  0.00    +0.000 A 
ATOM     22  C   UNL     1       1.416   8.350  20.582  0.00  0.00    +0.000 A 
BRANCH  20  23
ATOM     23  S   UNL     1       1.137  12.008  18.904  0.00  0.00    +0.000 S 
ATOM     24  O   UNL     1      -0.195  12.203  18.389  0.00  0.00    +0.000 OA
ATOM     25  O   UNL     1       1.651  12.744  20.033  0.00  0.00    +0.000 OA
BRANCH  23  26
ATOM     26  N   UNL     1       2.180  12.335  17.628  0.00  0.00    +0.000 NA
ATOM     27  H   UNL     1       2.460  13.314  17.651  0.00  0.00    +0.000 HD
ATOM     28  H   UNL     1       2.956  11.674  17.635  0.00  0.00    +0.000 HD
ENDBRANCH  23  26
ENDBRANCH  20  23
ENDBRANCH   5  17
TORSDOF 4
ENDMDL
MODEL 4
REMARK VINA RESULT:      -7.2      4.899      8.227
REMARK  Name = 
REMARK  5 active torsions:
REMARK  status: ('A' for Active; 'I' for Inactive)
REMARK    1  A    between atoms: C_1  and  C_2
REMARK    2  A    between atoms: C_7  and  C_8
REMARK    3  A    between atoms: N_12  and  C_13
REMARK    4  A    between atoms: C_16  and  S_17
REMARK    5  A    between atoms: S_17  and  N_18
REMARK                            x       y       z     vdW  Elec       q    Type
REMARK                         _______ _______ _______ _____ _____    ______ ____
ROOT
ATOM      1  C   UNL     1      -0.450  10.097  20.055  0.00  0.00    +0.000 A 
ATOM      2  C   UNL     1      -0.636  10.535  21.349  0.00  0.00    +0.000 A 
ATOM      3  S   UNL     1       0.356   9.633  22.420  0.00  0.00    +0.000 S 
ATOM      4  C   UNL     1       0.953   8.717  21.089  0.00  0.00    +0.000 A 
ATOM      5  N   UNL     1       1.904   7.773  21.273  0.00  0.00    +0.000 N 
ATOM      6  N   UNL     1       0.428   9.041  19.930  0.00  0.00    +0.000 NA
ATOM      7  H   UNL     1       2.299   7.670  22.200  0.00  0.00    +0.000 HD
ENDROOT
BRANCH   1  14
ATOM      8  C   UNL     1       0.154  12.953  18.820  0.00  0.00    +0.000 C 
ATOM      9  C   UNL     1      -0.843  11.957  18.337  0.00  0.00    +0.000 A 
ATOM     10  N   UNL     1      -1.613  12.299  17.230  0.00  0.00    +0.000 NA
ATOM     11  C   UNL     1      -2.400  11.308  16.901  0.00  0.00    +0.000 A 
ATOM     12  N   UNL     1      -3.251  11.364  15.865  0.00  0.00    +0.000 N 
ATOM     13  S   UNL     1      -2.292   9.918  17.893  0.00  0.00    +0.000 S 
ATOM     14  C   UNL     1      -1.102  10.693  18.847  0.00  0.00    +0.000 A 
ATOM     15  H   UNL     1      -3.437  12.296  15.510  0.00  0.00    +0.000 HD
ATOM     16  H   UNL     1      -4.056  10.752  15.878  0.00  0.00    +0.000 HD
ENDBRANCH   1  14
BRANCH   5  17
ATOM     17  C   UNL     1       2.036   6.613  20.484  0.00  0.00    +0.000 A 
ATOM     18  C   UNL     1       1.528   5.398  20.965  0.00  0.00    +0.000 A 
ATOM     19  C   UNL     1       1.624   4.232  20.202  0.00  0.00    +0.000 A 
ATOM     20  C   UNL     1       2.217   4.283  18.938  0.00  0.00    +0.000 A 
ATOM     21  C   UNL     1       2.754   5.474  18.452  0.00  0.00    +0.000 A 
ATOM     22  C   UNL     1       2.664   6.630  19.228  0.00  0.00    +0.000 A 
BRANCH  20  23
ATOM     23  S   UNL     1       2.298   2.822  17.947  0.00  0.00    +0.000 S 
ATOM     24  O   UNL     1       2.185   3.177  16.554  0.00  0.00    +0.000 OA
ATOM     25  O   UNL     1       3.340   1.962  18.450  0.00  0.00    +0.000 OA
BRANCH  23  26
ATOM     26  N   UNL     1       0.847   2.077  18.354  0.00  0.00    +0.000 NA
ATOM     27  H   UNL     1       0.078   2.737  18.250  0.00  0.00    +0.000 HD
ATOM     28  H   UNL     1       0.738   1.215  17.820  0.00  0.00    +0.000 HD
ENDBRANCH  23  26
ENDBRANCH  20  23
ENDBRANCH   5  17
TORSDOF 4
ENDMDL
MODEL 5
REMARK VINA RESULT:      -7.1      0.973      1.512
REMARK  Name = 
REMARK  5 active torsions:
REMARK  status: ('A' for Active; 'I' for Inactive)
REMARK    1  A    between atoms: C_1  and  C_2
REMARK    2  A    between atoms: C_7  and  C_8
REMARK    3  A    between atoms: N_12  and  C_13
REMARK    4  A    between atoms: C_16  and  S_17
REMARK    5  A    between atoms: S_17  and  N_18
REMARK                            x       y       z     vdW  Elec       q    Type
REMARK                         _______ _______ _______ _____ _____    ______ ____
ROOT
ATOM      1  C   UNL     1       4.866   4.781  18.086  0.00  0.00    +0.000 A 
ATOM      2  C   UNL     1       4.941   3.706  18.948  0.00  0.00    +0.000 A 
ATOM      3  S   UNL     1       3.661   3.781  20.089  0.00  0.00    +0.000 S 
ATOM      4  C   UNL     1       3.105   5.242  19.363  0.00  0.00    +0.000 A 
ATOM      5  N   UNL     1       1.983   5.851  19.811  0.00  0.00    +0.000 N 
ATOM      6  N   UNL     1       3.840   5.661  18.359  0.00  0.00    +0.000 NA
ATOM      7  H   UNL     1       1.448   5.389  20.536  0.00  0.00    +0.000 HD
ENDROOT
BRANCH   1  14
ATOM      8  C   UNL     1       7.516   6.519  18.107  0.00  0.00    +0.000 C 
ATOM      9  C   UNL     1       6.922   5.799  16.946  0.00  0.00    +0.000 A 
ATOM     10  N   UNL     1       7.579   5.892  15.723  0.00  0.00    +0.000 NA
ATOM     11  C   UNL     1       6.966   5.170  14.823  0.00  0.00    +0.000 A 
ATOM     12  N   UNL     1       7.387   5.075  13.552  0.00  0.00    +0.000 N 
ATOM     13  S   UNL     1       5.563   4.352  15.361  0.00  0.00    +0.000 S 
ATOM     14  C   UNL     1       5.780   5.012  16.924  0.00  0.00    +0.000 A 
ATOM     15  H   UNL     1       8.050   5.786  13.262  0.00  0.00    +0.000 HD
ATOM     16  H   UNL     1       6.711   4.820  12.844  0.00  0.00    +0.000 HD
ENDBRANCH   1  14
BRANCH   5  17
ATOM     17  C   UNL     1       1.760   7.241  19.760  0.00  0.00    +0.000 A 
ATOM     18  C   UNL     1       1.935   7.917  18.544  0.00  0.00    +0.000 A 
ATOM     19  C   UNL     1       1.704   9.292  18.453  0.00  0.00    +0.000 A 
ATOM     20  C   UNL     1       1.277   9.995  19.582  0.00  0.00    +0.000 A 
ATOM     21  C   UNL     1       1.124   9.348  20.807  0.00  0.00    +0.000 A 
ATOM     22  C   UNL     1       1.370   7.977  20.891  0.00  0.00    +0.000 A 
BRANCH  20  23
ATOM     23  S   UNL     1       0.936  11.725  19.461  0.00  0.00    +0.000 S 
ATOM     24  O   UNL     1       1.928  12.355  18.626  0.00  0.00    +0.000 OA
ATOM     25  O   UNL     1      -0.480  11.920  19.271  0.00  0.00    +0.000 OA
BRANCH  23  26
ATOM     26  N   UNL     1       1.265  12.228  21.031  0.00  0.00    +0.000 NA
ATOM     27  H   UNL     1       0.492  11.974  21.645  0.00  0.00    +0.000 HD
ATOM     28  H   UNL     1       2.173  11.872  21.327  0.00  0.00    +0.000 HD
ENDBRANCH  23  26
ENDBRANCH  20  23
ENDBRANCH   5  17
TORSDOF 4
ENDMDL
MODEL 6
REMARK VINA RESULT:      -7.1      0.974      1.121
REMARK  Name = 
REMARK  5 active torsions:
REMARK  status: ('A' for Active; 'I' for Inactive)
REMARK    1  A    between atoms: C_1  and  C_2
REMARK    2  A    between atoms: C_7  and  C_8
REMARK    3  A    between atoms: N_12  and  C_13
REMARK    4  A    between atoms: C_16  and  S_17
REMARK    5  A    between atoms: S_17  and  N_18
REMARK                            x       y       z     vdW  Elec       q    Type
REMARK                         _______ _______ _______ _____ _____    ______ ____
ROOT
ATOM      1  C   UNL     1       4.895   4.761  18.026  0.00  0.00    +0.000 A 
ATOM      2  C   UNL     1       5.009   3.713  18.917  0.00  0.00    +0.000 A 
ATOM      3  S   UNL     1       3.745   3.793  20.076  0.00  0.00    +0.000 S 
ATOM      4  C   UNL     1       3.146   5.219  19.318  0.00  0.00    +0.000 A 
ATOM      5  N   UNL     1       2.017   5.815  19.767  0.00  0.00    +0.000 N 
ATOM      6  N   UNL     1       3.854   5.625  18.291  0.00  0.00    +0.000 NA
ATOM      7  H   UNL     1       1.504   5.363  20.514  0.00  0.00    +0.000 HD
ENDROOT
BRANCH   1  14
ATOM      8  C   UNL     1       7.454   6.629  17.928  0.00  0.00    +0.000 C 
ATOM      9  C   UNL     1       6.887   5.821  16.812  0.00  0.00    +0.000 A 
ATOM     10  N   UNL     1       7.526   5.886  15.578  0.00  0.00    +0.000 NA
ATOM     11  C   UNL     1       6.942   5.089  14.722  0.00  0.00    +0.000 A 
ATOM     12  N   UNL     1       7.356   4.951  13.453  0.00  0.00    +0.000 N 
ATOM     13  S   UNL     1       5.587   4.230  15.318  0.00  0.00    +0.000 S 
ATOM     14  C   UNL     1       5.785   4.978  16.844  0.00  0.00    +0.000 A 
ATOM     15  H   UNL     1       7.979   5.679  13.120  0.00  0.00    +0.000 HD
ATOM     16  H   UNL     1       6.686   4.627  12.767  0.00  0.00    +0.000 HD
ENDBRANCH   1  14
BRANCH   5  17
ATOM     17  C   UNL     1       1.762   7.198  19.681  0.00  0.00    +0.000 A 
ATOM     18  C   UNL     1       1.324   7.886  20.822  0.00  0.00    +0.000 A 
ATOM     19  C   UNL     1       1.079   9.260  20.777  0.00  0.00    +0.000 A 
ATOM     20  C   UNL     1       1.290   9.959  19.586  0.00  0.00    +0.000 A 
ATOM     21  C   UNL     1       1.696   9.291  18.433  0.00  0.00    +0.000 A 
ATOM     22  C   UNL     1       1.925   7.916  18.484  0.00  0.00    +0.000 A 
BRANCH  20  23
ATOM     23  S   UNL     1       1.028  11.706  19.536  0.00  0.00    +0.000 S 
ATOM     24  O   UNL     1       2.008  12.316  18.672  0.00  0.00    +0.000 OA
ATOM     25  O   UNL     1      -0.384  11.974  19.423  0.00  0.00    +0.000 OA
BRANCH  23  26
ATOM     26  N   UNL     1       1.457  12.140  21.102  0.00  0.00    +0.000 NA
ATOM     27  H   UNL     1       2.361  11.734  21.339  0.00  0.00    +0.000 HD
ATOM     28  H   UNL     1       1.409  13.153  21.207  0.00  0.00    +0.000 HD
ENDBRANCH  23  26
ENDBRANCH  20  23
ENDBRANCH   5  17
TORSDOF 4
ENDMDL
MODEL 7
REMARK VINA RESULT:      -6.9      4.798      8.495
REMARK  Name = 
REMARK  5 active torsions:
REMARK  status: ('A' for Active; 'I' for Inactive)
REMARK    1  A    between atoms: C_1  and  C_2
REMARK    2  A    between atoms: C_7  and  C_8
REMARK    3  A    between atoms: N_12  and  C_13
REMARK    4  A    between atoms: C_16  and  S_17
REMARK    5  A    between atoms: S_17  and  N_18
REMARK                            x       y       z     vdW  Elec       q    Type
REMARK                         _______ _______ _______ _____ _____    ______ ____
ROOT
ATOM      1  C   UNL     1      -0.642  10.264  19.981  0.00  0.00    +0.000 A 
ATOM      2  C   UNL     1      -0.601  10.833  21.237  0.00  0.00    +0.000 A 
ATOM      3  S   UNL     1       0.597  10.057  22.191  0.00  0.00    +0.000 S 
ATOM      4  C   UNL     1       0.966   9.013  20.870  0.00  0.00    +0.000 A 
ATOM      5  N   UNL     1       1.963   8.104  20.969  0.00  0.00    +0.000 N 
ATOM      6  N   UNL     1       0.228   9.210  19.802  0.00  0.00    +0.000 NA
ATOM      7  H   UNL     1       2.523   8.102  21.812  0.00  0.00    +0.000 HD
ENDROOT
BRANCH   1  14
ATOM      8  C   UNL     1      -2.865  12.516  20.153  0.00  0.00    +0.000 C 
ATOM      9  C   UNL     1      -2.508  11.694  18.963  0.00  0.00    +0.000 A 
ATOM     10  N   UNL     1      -3.222  11.913  17.789  0.00  0.00    +0.000 NA
ATOM     11  C   UNL     1      -2.761  11.155  16.829  0.00  0.00    +0.000 A 
ATOM     12  N   UNL     1      -3.264  11.164  15.585  0.00  0.00    +0.000 N 
ATOM     13  S   UNL     1      -1.468  10.121  17.261  0.00  0.00    +0.000 S 
ATOM     14  C   UNL     1      -1.521  10.724  18.861  0.00  0.00    +0.000 A 
ATOM     15  H   UNL     1      -4.177  11.596  15.492  0.00  0.00    +0.000 HD
ATOM     16  H   UNL     1      -3.129  10.342  15.012  0.00  0.00    +0.000 HD
ENDBRANCH   1  14
BRANCH   5  17
ATOM     17  C   UNL     1       1.981   6.870  20.290  0.00  0.00    +0.000 A 
ATOM     18  C   UNL     1       1.448   5.735  20.918  0.00  0.00    +0.000 A 
ATOM     19  C   UNL     1       1.433   4.499  20.267  0.00  0.00    +0.000 A 
ATOM     20  C   UNL     1       1.939   4.399  18.969  0.00  0.00    +0.000 A 
ATOM     21  C   UNL     1       2.500   5.507  18.337  0.00  0.00    +0.000 A 
ATOM     22  C   UNL     1       2.522   6.734  19.000  0.00  0.00    +0.000 A 
BRANCH  20  23
ATOM     23  S   UNL     1       1.878   2.849  18.121  0.00  0.00    +0.000 S 
ATOM     24  O   UNL     1       0.639   2.180  18.427  0.00  0.00    +0.000 OA
ATOM     25  O   UNL     1       2.357   3.024  16.772  0.00  0.00    +0.000 OA
BRANCH  23  26
ATOM     26  N   UNL     1       3.079   1.994  18.929  0.00  0.00    +0.000 NA
ATOM     27  H   UNL     1       3.898   1.899  18.332  0.00  0.00    +0.000 HD
ATOM     28  H   UNL     1       3.264   2.426  19.834  0.00  0.00    +0.000 HD
ENDBRANCH  23  26
ENDBRANCH  20  23
ENDBRANCH   5  17
TORSDOF 4
ENDMDL
MODEL 8
REMARK VINA RESULT:      -6.8      4.808      8.553
REMARK  Name = 
REMARK  5 active torsions:
REMARK  status: ('A' for Active; 'I' for Inactive)
REMARK    1  A    between atoms: C_1  and  C_2
REMARK    2  A    between atoms: C_7  and  C_8
REMARK    3  A    between atoms: N_12  and  C_13
REMARK    4  A    between atoms: C_16  and  S_17
REMARK    5  A    between atoms: S_17  and  N_18
REMARK                            x       y       z     vdW  Elec       q    Type
REMARK                         _______ _______ _______ _____ _____    ______ ____
ROOT
ATOM      1  C   UNL     1      -0.580  10.250  20.000  0.00  0.00    +0.000 A 
ATOM      2  C   UNL     1      -0.488  10.831  21.248  0.00  0.00    +0.000 A 
ATOM      3  S   UNL     1       0.709  10.028  22.180  0.00  0.00    +0.000 S 
ATOM      4  C   UNL     1       1.011   8.958  20.863  0.00  0.00    +0.000 A 
ATOM      5  N   UNL     1       1.980   8.019  20.946  0.00  0.00    +0.000 N 
ATOM      6  N   UNL     1       0.252   9.167  19.812  0.00  0.00    +0.000 NA
ATOM      7  H   UNL     1       2.563   8.008  21.775  0.00  0.00    +0.000 HD
ENDROOT
BRANCH   1  14
ATOM      8  C   UNL     1      -2.729  12.570  20.204  0.00  0.00    +0.000 C 
ATOM      9  C   UNL     1      -2.427  11.726  19.015  0.00  0.00    +0.000 A 
ATOM     10  N   UNL     1      -3.164  11.955  17.857  0.00  0.00    +0.000 NA
ATOM     11  C   UNL     1      -2.750  11.174  16.894  0.00  0.00    +0.000 A 
ATOM     12  N   UNL     1      -3.284  11.187  15.662  0.00  0.00    +0.000 N 
ATOM     13  S   UNL     1      -1.478  10.106  17.304  0.00  0.00    +0.000 S 
ATOM     14  C   UNL     1      -1.473  10.726  18.898  0.00  0.00    +0.000 A 
ATOM     15  H   UNL     1      -4.186  11.645  15.588  0.00  0.00    +0.000 HD
ATOM     16  H   UNL     1      -3.189  10.355  15.095  0.00  0.00    +0.000 HD
ENDBRANCH   1  14
BRANCH   5  17
ATOM     17  C   UNL     1       1.942   6.778  20.281  0.00  0.00    +0.000 A 
ATOM     18  C   UNL     1       2.414   6.693  18.963  0.00  0.00    +0.000 A 
ATOM     19  C   UNL     1       2.408   5.475  18.280  0.00  0.00    +0.000 A 
ATOM     20  C   UNL     1       1.945   4.326  18.925  0.00  0.00    +0.000 A 
ATOM     21  C   UNL     1       1.445   4.392  20.224  0.00  0.00    +0.000 A 
ATOM     22  C   UNL     1       1.442   5.616  20.893  0.00  0.00    +0.000 A 
BRANCH  20  23
ATOM     23  S   UNL     1       1.981   2.772  18.083  0.00  0.00    +0.000 S 
ATOM     24  O   UNL     1       0.776   2.036  18.376  0.00  0.00    +0.000 OA
ATOM     25  O   UNL     1       2.466   2.969  16.739  0.00  0.00    +0.000 OA
BRANCH  23  26
ATOM     26  N   UNL     1       3.216   1.987  18.909  0.00  0.00    +0.000 NA
ATOM     27  H   UNL     1       4.119   2.279  18.540  0.00  0.00    +0.000 HD
ATOM     28  H   UNL     1       3.106   2.126  19.913  0.00  0.00    +0.000 HD
ENDBRANCH  23  26
ENDBRANCH  20  23
ENDBRANCH   5  17
TORSDOF 4
ENDMDL
MODEL 9
REMARK VINA RESULT:      -6.8      4.224      8.129
REMARK  Name = 
REMARK  5 active torsions:
REMARK  status: ('A' for Active; 'I' for Inactive)
REMARK    1  A    between atoms: C_1  and  C_2
REMARK    2  A    between atoms: C_7  and  C_8
REMARK    3  A    between atoms: N_12  and  C_13
REMARK    4  A    between atoms: C_16  and  S_17
REMARK    5  A    between atoms: S_17  and  N_18
REMARK                            x       y       z     vdW  Elec       q    Type
REMARK                         _______ _______ _______ _____ _____    ______ ____
ROOT
ATOM      1  C   UNL     1      -0.489  10.026  20.157  0.00  0.00    +0.000 A 
ATOM      2  C   UNL     1      -0.829  10.325  21.460  0.00  0.00    +0.000 A 
ATOM      3  S   UNL     1       0.133   9.402  22.541  0.00  0.00    +0.000 S 
ATOM      4  C   UNL     1       0.923   8.662  21.200  0.00  0.00    +0.000 A 
ATOM      5  N   UNL     1       1.929   7.779  21.395  0.00  0.00    +0.000 N 
ATOM      6  N   UNL     1       0.481   9.055  20.028  0.00  0.00    +0.000 NA
ATOM      7  H   UNL     1       2.244   7.618  22.344  0.00  0.00    +0.000 HD
ENDROOT
BRANCH   1  14
ATOM      8  C   UNL     1       0.266  12.892  19.034  0.00  0.00    +0.000 C 
ATOM      9  C   UNL     1      -0.750  11.951  18.486  0.00  0.00    +0.000 A 
ATOM     10  N   UNL     1      -1.468  12.356  17.365  0.00  0.00    +0.000 NA
ATOM     11  C   UNL     1      -2.279  11.407  16.979  0.00  0.00    +0.000 A 
ATOM     12  N   UNL     1      -3.091  11.527  15.916  0.00  0.00    +0.000 N 
ATOM     13  S   UNL     1      -2.260   9.985  17.930  0.00  0.00    +0.000 S 
ATOM     14  C   UNL     1      -1.075  10.683  18.947  0.00  0.00    +0.000 A 
ATOM     15  H   UNL     1      -3.229  12.476  15.584  0.00  0.00    +0.000 HD
ATOM     16  H   UNL     1      -3.919  10.947  15.882  0.00  0.00    +0.000 HD
ENDBRANCH   1  14
BRANCH   5  17
ATOM     17  C   UNL     1       2.228   6.712  20.525  0.00  0.00    +0.000 A 
ATOM     18  C   UNL     1       1.705   5.440  20.799  0.00  0.00    +0.000 A 
ATOM     19  C   UNL     1       1.965   4.363  19.948  0.00  0.00    +0.000 A 
ATOM     20  C   UNL     1       2.740   4.562  18.803  0.00  0.00    +0.000 A 
ATOM     21  C   UNL     1       3.294   5.811  18.528  0.00  0.00    +0.000 A 
ATOM     22  C   UNL     1       3.039   6.877  19.390  0.00  0.00    +0.000 A 
BRANCH  20  23
ATOM     23  S   UNL     1       3.033   3.215  17.697  0.00  0.00    +0.000 S 
ATOM     24  O   UNL     1       3.414   2.046  18.450  0.00  0.00    +0.000 OA
ATOM     25  O   UNL     1       2.000   3.191  16.691  0.00  0.00    +0.000 OA
BRANCH  23  26
ATOM     26  N   UNL     1       4.426   3.737  16.916  0.00  0.00    +0.000 NA
ATOM     27  H   UNL     1       4.375   3.505  15.925  0.00  0.00    +0.000 HD
ATOM     28  H   UNL     1       4.584   4.726  17.110  0.00  0.00    +0.000 HD
ENDBRANCH  23  26
ENDBRANCH  20  23
ENDBRANCH   5  17
TORSDOF 4
ENDMDL
