MODEL 1
REMARK VINA RESULT:      -8.0      0.000      0.000
REMARK  Name = 
REMARK  4 active torsions:
REMARK  status: ('A' for Active; 'I' for Inactive)
REMARK    1  A    between atoms: C_2  and  C_11
REMARK    2  A    between atoms: N_3  and  C_4
REMARK    3  A    between atoms: C_15  and  O_16
REMARK    4  A    between atoms: O_16  and  C_17
REMARK                            x       y       z     vdW  Elec       q    Type
REMARK                         _______ _______ _______ _____ _____    ______ ____
ROOT
ATOM      1  C   UNL     1       2.876   4.777  20.121  0.00  0.00    +0.000 A 
ATOM      2  C   UNL     1       2.650   3.447  20.487  0.00  0.00    +0.000 A 
ATOM      3  C   UNL     1       3.610   2.479  20.182  0.00  0.00    +0.000 A 
ATOM      4  C   UNL     1       4.806   2.846  19.555  0.00  0.00    +0.000 A 
ATOM      5  C   UNL     1       5.045   4.179  19.216  0.00  0.00    +0.000 A 
ATOM      6  C   UNL     1       4.049   5.129  19.442  0.00  0.00    +0.000 A 
ENDROOT
BRANCH   1   8
ATOM      7  O   UNL     1       0.791   5.526  20.785  0.00  0.00    +0.000 OA
ATOM      8  C   UNL     1       1.907   5.861  20.402  0.00  0.00    +0.000 C 
ATOM      9  N   UNL     1       2.327   7.154  20.124  0.00  0.00    +0.000 N 
ATOM     10  H   UNL     1       3.208   7.260  19.642  0.00  0.00    +0.000 HD
BRANCH   9  11
ATOM     11  C   UNL     1       1.524   8.312  20.246  0.00  0.00    +0.000 A 
ATOM     12  C   UNL     1       1.367   9.244  19.215  0.00  0.00    +0.000 A 
ATOM     13  C   UNL     1       0.615  10.408  19.406  0.00  0.00    +0.000 A 
ATOM     14  C   UNL     1       0.005  10.647  20.630  0.00  0.00    +0.000 A 
ATOM     15  C   UNL     1       0.130   9.709  21.652  0.00  0.00    +0.000 A 
ATOM     16 CL   UNL     1      -0.623  10.007  23.170  0.00  0.00    +0.000 Cl
ATOM     17  C   UNL     1       0.874   8.539  21.463  0.00  0.00    +0.000 A 
ENDBRANCH   9  11
ENDBRANCH   1   8
BRANCH   5  18
ATOM     18  O   UNL     1       6.257   4.457  18.624  0.00  0.00    +0.000 OA
BRANCH  18  19
ATOM     19  C   UNL     1       6.335   4.572  17.256  0.00  0.00    +0.000 A 
ATOM     20  C   UNL     1       5.594   3.822  16.343  0.00  0.00    +0.000 A 
ATOM     21  C   UNL     1       5.801   4.000  14.977  0.00  0.00    +0.000 A 
ATOM     22  C   UNL     1       6.702   4.970  14.570  0.00  0.00    +0.000 A 
ATOM     23  N   UNL     1       7.387   5.762  15.422  0.00  0.00    +0.000 NA
ATOM     24  C   UNL     1       7.186   5.543  16.745  0.00  0.00    +0.000 A 
ENDBRANCH  18  19
ENDBRANCH   5  18
TORSDOF 4
ENDMDL
MODEL 2
REMARK VINA RESULT:      -7.9      1.436      1.890
REMARK  Name = 
REMARK  4 active torsions:
REMARK  status: ('A' for Active; 'I' for Inactive)
REMARK    1  A    between atoms: C_2  and  C_11
REMARK    2  A    between atoms: N_3  and  C_4
REMARK    3  A    between atoms: C_15  and  O_16
REMARK    4  A    between atoms: O_16  and  C_17
REMARK                            x       y       z     vdW  Elec       q    Type
REMARK                         _______ _______ _______ _____ _____    ______ ____
ROOT
ATOM      1  C   UNL     1       2.490   5.829  19.994  0.00  0.00    +0.000 A 
ATOM      2  C   UNL     1       1.821   4.705  20.486  0.00  0.00    +0.000 A 
ATOM      3  C   UNL     1       2.427   3.450  20.390  0.00  0.00    +0.000 A 
ATOM      4  C   UNL     1       3.710   3.327  19.846  0.00  0.00    +0.000 A 
ATOM      5  C   UNL     1       4.391   4.454  19.382  0.00  0.00    +0.000 A 
ATOM      6  C   UNL     1       3.749   5.692  19.398  0.00  0.00    +0.000 A 
ENDROOT
BRANCH   1   8
ATOM      7  O   UNL     1       2.285   7.991  19.199  0.00  0.00    +0.000 OA
ATOM      8  C   UNL     1       1.914   7.193  20.052  0.00  0.00    +0.000 C 
ATOM      9  N   UNL     1       1.070   7.463  21.119  0.00  0.00    +0.000 N 
ATOM     10  H   UNL     1       1.000   6.761  21.841  0.00  0.00    +0.000 HD
BRANCH   9  11
ATOM     11  C   UNL     1       0.488   8.722  21.395  0.00  0.00    +0.000 A 
ATOM     12  C   UNL     1       0.187   9.156  22.690  0.00  0.00    +0.000 A 
ATOM     13  C   UNL     1      -0.449  10.383  22.908  0.00  0.00    +0.000 A 
ATOM     14  C   UNL     1      -0.783  11.192  21.831  0.00  0.00    +0.000 A 
ATOM     15  C   UNL     1      -0.459  10.781  20.540  0.00  0.00    +0.000 A 
ATOM     16 CL   UNL     1      -0.876  11.784  19.204  0.00  0.00    +0.000 Cl
ATOM     17  C   UNL     1       0.185   9.560  20.317  0.00  0.00    +0.000 A 
ENDBRANCH   9  11
ENDBRANCH   1   8
BRANCH   5  18
ATOM     18  O   UNL     1       5.659   4.248  18.884  0.00  0.00    +0.000 OA
BRANCH  18  19
ATOM     19  C   UNL     1       5.910   4.471  17.551  0.00  0.00    +0.000 A 
ATOM     20  C   UNL     1       5.127   4.002  16.496  0.00  0.00    +0.000 A 
ATOM     21  C   UNL     1       5.516   4.256  15.183  0.00  0.00    +0.000 A 
ATOM     22  C   UNL     1       6.648   5.026  14.971  0.00  0.00    +0.000 A 
ATOM     23  N   UNL     1       7.393   5.554  15.966  0.00  0.00    +0.000 NA
ATOM     24  C   UNL     1       7.005   5.263  17.232  0.00  0.00    +0.000 A 
ENDBRANCH  18  19
ENDBRANCH   5  18
TORSDOF 4
ENDMDL
MODEL 3
REMARK VINA RESULT:      -7.9      1.142      1.509
REMARK  Name = 
REMARK  4 active torsions:
REMARK  status: ('A' for Active; 'I' for Inactive)
REMARK    1  A    between atoms: C_2  and  C_11
REMARK    2  A    between atoms: N_3  and  C_4
REMARK    3  A    between atoms: C_15  and  O_16
REMARK    4  A    between atoms: O_16  and  C_17
REMARK                            x       y       z     vdW  Elec       q    Type
REMARK                         _______ _______ _______ _____ _____    ______ ____
ROOT
ATOM      1  C   UNL     1       2.619   4.760  20.232  0.00  0.00    +0.000 A 
ATOM      2  C   UNL     1       2.352   3.420  20.532  0.00  0.00    +0.000 A 
ATOM      3  C   UNL     1       3.291   2.442  20.195  0.00  0.00    +0.000 A 
ATOM      4  C   UNL     1       4.505   2.806  19.602  0.00  0.00    +0.000 A 
ATOM      5  C   UNL     1       4.784   4.146  19.329  0.00  0.00    +0.000 A 
ATOM      6  C   UNL     1       3.810   5.111  19.585  0.00  0.00    +0.000 A 
ENDROOT
BRANCH   1   8
ATOM      7  O   UNL     1       0.492   5.553  20.676  0.00  0.00    +0.000 OA
ATOM      8  C   UNL     1       1.673   5.855  20.550  0.00  0.00    +0.000 C 
ATOM      9  N   UNL     1       2.204   7.136  20.594  0.00  0.00    +0.000 N 
ATOM     10  H   UNL     1       3.161   7.250  20.292  0.00  0.00    +0.000 HD
BRANCH   9  11
ATOM     11  C   UNL     1       1.455   8.318  20.800  0.00  0.00    +0.000 A 
ATOM     12  C   UNL     1       1.055   8.758  22.065  0.00  0.00    +0.000 A 
ATOM     13  C   UNL     1       0.259   9.899  22.213  0.00  0.00    +0.000 A 
ATOM     14  C   UNL     1      -0.137  10.617  21.093  0.00  0.00    +0.000 A 
ATOM     15  C   UNL     1       0.282  10.204  19.830  0.00  0.00    +0.000 A 
ATOM     16 CL   UNL     1      -0.213  11.093  18.442  0.00  0.00    +0.000 Cl
ATOM     17  C   UNL     1       1.085   9.069  19.679  0.00  0.00    +0.000 A 
ENDBRANCH   9  11
ENDBRANCH   1   8
BRANCH   5  18
ATOM     18  O   UNL     1       6.011   4.419  18.767  0.00  0.00    +0.000 OA
BRANCH  18  19
ATOM     19  C   UNL     1       6.136   4.472  17.398  0.00  0.00    +0.000 A 
ATOM     20  C   UNL     1       5.080   4.383  16.491  0.00  0.00    +0.000 A 
ATOM     21  C   UNL     1       5.344   4.401  15.124  0.00  0.00    +0.000 A 
ATOM     22  C   UNL     1       6.654   4.570  14.709  0.00  0.00    +0.000 A 
ATOM     23  N   UNL     1       7.694   4.728  15.557  0.00  0.00    +0.000 NA
ATOM     24  C   UNL     1       7.408   4.676  16.881  0.00  0.00    +0.000 A 
ENDBRANCH  18  19
ENDBRANCH   5  18
TORSDOF 4
ENDMDL
MODEL 4
REMARK VINA RESULT:      -7.8      2.202      2.724
REMARK  Name = 
REMARK  4 active torsions:
REMARK  status: ('A' for Active; 'I' for Inactive)
REMARK    1  A    between atoms: C_2  and  C_11
REMARK    2  A    between atoms: N_3  and  C_4
REMARK    3  A    between atoms: C_15  and  O_16
REMARK    4  A    between atoms: O_16  and  C_17
REMARK                            x       y       z     vdW  Elec       q    Type
REMARK                         _______ _______ _______ _____ _____    ______ ____
ROOT
ATOM      1  C   UNL     1       2.670   7.040  18.815  0.00  0.00    +0.000 A 
ATOM      2  C   UNL     1       2.016   6.270  19.782  0.00  0.00    +0.000 A 
ATOM      3  C   UNL     1       2.598   5.076  20.216  0.00  0.00    +0.000 A 
ATOM      4  C   UNL     1       3.844   4.678  19.720  0.00  0.00    +0.000 A 
ATOM      5  C   UNL     1       4.512   5.462  18.777  0.00  0.00    +0.000 A 
ATOM      6  C   UNL     1       3.890   6.607  18.280  0.00  0.00    +0.000 A 
ENDROOT
BRANCH   1   8
ATOM      7  O   UNL     1       2.528   8.697  17.208  0.00  0.00    +0.000 OA
ATOM      8  C   UNL     1       2.118   8.313  18.298  0.00  0.00    +0.000 C 
ATOM      9  N   UNL     1       1.249   8.996  19.136  0.00  0.00    +0.000 N 
ATOM     10  H   UNL     1       1.145   8.647  20.078  0.00  0.00    +0.000 HD
BRANCH   9  11
ATOM     11  C   UNL     1       0.683  10.262  18.860  0.00  0.00    +0.000 A 
ATOM     12  C   UNL     1       1.402  11.458  18.955  0.00  0.00    +0.000 A 
ATOM     13  C   UNL     1       0.780  12.692  18.736  0.00  0.00    +0.000 A 
ATOM     14  C   UNL     1      -0.569  12.740  18.410  0.00  0.00    +0.000 A 
ATOM     15  C   UNL     1      -1.286  11.552  18.283  0.00  0.00    +0.000 A 
ATOM     16 CL   UNL     1      -2.959  11.613  17.882  0.00  0.00    +0.000 Cl
ATOM     17  C   UNL     1      -0.666  10.316  18.492  0.00  0.00    +0.000 A 
ENDBRANCH   9  11
ENDBRANCH   1   8
BRANCH   5  18
ATOM     18  O   UNL     1       5.744   5.011  18.360  0.00  0.00    +0.000 OA
BRANCH  18  19
ATOM     19  C   UNL     1       6.005   4.891  17.015  0.00  0.00    +0.000 A 
ATOM     20  C   UNL     1       5.260   4.127  16.117  0.00  0.00    +0.000 A 
ATOM     21  C   UNL     1       5.657   4.049  14.785  0.00  0.00    +0.000 A 
ATOM     22  C   UNL     1       6.755   4.791  14.382  0.00  0.00    +0.000 A 
ATOM     23  N   UNL     1       7.460   5.595  15.207  0.00  0.00    +0.000 NA
ATOM     24  C   UNL     1       7.066   5.625  16.504  0.00  0.00    +0.000 A 
ENDBRANCH  18  19
ENDBRANCH   5  18
TORSDOF 4
ENDMDL
MODEL 5
REMARK VINA RESULT:      -7.8      2.323      4.332
REMARK  Name = 
REMARK  4 active torsions:
REMARK  status: ('A' for Active; 'I' for Inactive)
REMARK    1  A    between atoms: C_2  and  C_11
REMARK    2  A    between atoms: N_3  and  C_4
REMARK    3  A    between atoms: C_15  and  O_16
REMARK    4  A    between atoms: O_16  and  C_17
REMARK                            x       y       z     vdW  Elec       q    Type
REMARK                         _______ _______ _______ _____ _____    ______ ____
ROOT
ATOM      1  C   UNL     1       3.423   7.003  17.592  0.00  0.00    +0.000 A 
ATOM      2  C   UNL     1       4.573   7.145  16.810  0.00  0.00    +0.000 A 
ATOM      3  C   UNL     1       5.323   6.013  16.482  0.00  0.00    +0.000 A 
ATOM      4  C   UNL     1       4.903   4.745  16.897  0.00  0.00    +0.000 A 
ATOM      5  C   UNL     1       3.739   4.599  17.654  0.00  0.00    +0.000 A 
ATOM      6  C   UNL     1       3.040   5.737  18.054  0.00  0.00    +0.000 A 
ENDROOT
BRANCH   1   8
ATOM      7  O   UNL     1       2.579   9.128  17.247  0.00  0.00    +0.000 OA
ATOM      8  C   UNL     1       2.576   8.152  17.988  0.00  0.00    +0.000 C 
ATOM      9  N   UNL     1       1.924   8.048  19.208  0.00  0.00    +0.000 N 
ATOM     10  H   UNL     1       2.160   7.259  19.793  0.00  0.00    +0.000 HD
BRANCH   9  11
ATOM     11  C   UNL     1       1.139   9.066  19.798  0.00  0.00    +0.000 A 
ATOM     12  C   UNL     1       0.716  10.203  19.103  0.00  0.00    +0.000 A 
ATOM     13  C   UNL     1      -0.004  11.215  19.748  0.00  0.00    +0.000 A 
ATOM     14  C   UNL     1      -0.316  11.093  21.096  0.00  0.00    +0.000 A 
ATOM     15  C   UNL     1       0.074   9.948  21.788  0.00  0.00    +0.000 A 
ATOM     16 CL   UNL     1      -0.310   9.799  23.459  0.00  0.00    +0.000 Cl
ATOM     17  C   UNL     1       0.787   8.931  21.145  0.00  0.00    +0.000 A 
ENDBRANCH   9  11
ENDBRANCH   1   8
BRANCH   5  18
ATOM     18  O   UNL     1       3.384   3.314  18.000  0.00  0.00    +0.000 OA
BRANCH  18  19
ATOM     19  C   UNL     1       2.772   3.080  19.208  0.00  0.00    +0.000 A 
ATOM     20  C   UNL     1       1.399   3.157  19.442  0.00  0.00    +0.000 A 
ATOM     21  C   UNL     1       0.906   2.943  20.727  0.00  0.00    +0.000 A 
ATOM     22  C   UNL     1       1.801   2.598  21.726  0.00  0.00    +0.000 A 
ATOM     23  N   UNL     1       3.128   2.447  21.523  0.00  0.00    +0.000 NA
ATOM     24  C   UNL     1       3.580   2.691  20.269  0.00  0.00    +0.000 A 
ENDBRANCH  18  19
ENDBRANCH   5  18
TORSDOF 4
ENDMDL
MODEL 6
REMARK VINA RESULT:      -7.7      2.470      2.736
REMARK  Name = 
REMARK  4 active torsions:
REMARK  status: ('A' for Active; 'I' for Inactive)
REMARK    1  A    between atoms: C_2  and  C_11
REMARK    2  A    between atoms: N_3  and  C_4
REMARK    3  A    between atoms: C_15  and  O_16
REMARK    4  A    between atoms: O_16  and  C_17
REMARK                            x       y       z     vdW  Elec       q    Type
REMARK                         _______ _______ _______ _____ _____    ______ ____
ROOT
ATOM      1  C   UNL     1       2.529   6.066  18.307  0.00  0.00    +0.000 A 
ATOM      2  C   UNL     1       1.585   5.055  18.099  0.00  0.00    +0.000 A 
ATOM      3  C   UNL     1       2.001   3.823  17.589  0.00  0.00    +0.000 A 
ATOM      4  C   UNL     1       3.355   3.588  17.330  0.00  0.00    +0.000 A 
ATOM      5  C   UNL     1       4.302   4.587  17.565  0.00  0.00    +0.000 A 
ATOM      6  C   UNL     1       3.875   5.844  17.991  0.00  0.00    +0.000 A 
ENDROOT
BRANCH   1   8
ATOM      7  O   UNL     1       2.093   7.514  20.056  0.00  0.00    +0.000 OA
ATOM      8  C   UNL     1       2.169   7.401  18.838  0.00  0.00    +0.000 C 
ATOM      9  N   UNL     1       1.870   8.379  17.900  0.00  0.00    +0.000 N 
ATOM     10  H   UNL     1       1.801   8.088  16.936  0.00  0.00    +0.000 HD
BRANCH   9  11
ATOM     11  C   UNL     1       1.428   9.687  18.205  0.00  0.00    +0.000 A 
ATOM     12  C   UNL     1       0.105   9.986  18.546  0.00  0.00    +0.000 A 
ATOM     13  C   UNL     1      -0.299  11.305  18.775  0.00  0.00    +0.000 A 
ATOM     14  C   UNL     1       0.621  12.340  18.674  0.00  0.00    +0.000 A 
ATOM     15  C   UNL     1       1.948  12.048  18.366  0.00  0.00    +0.000 A 
ATOM     16 CL   UNL     1       3.088  13.332  18.237  0.00  0.00    +0.000 Cl
ATOM     17  C   UNL     1       2.359  10.730  18.144  0.00  0.00    +0.000 A 
ENDBRANCH   9  11
ENDBRANCH   1   8
BRANCH   5  18
ATOM     18  O   UNL     1       5.616   4.264  17.307  0.00  0.00    +0.000 OA
BRANCH  18  19
ATOM     19  C   UNL     1       6.112   4.405  16.032  0.00  0.00    +0.000 A 
ATOM     20  C   UNL     1       5.632   3.740  14.905  0.00  0.00    +0.000 A 
ATOM     21  C   UNL     1       6.254   3.933  13.674  0.00  0.00    +0.000 A 
ATOM     22  C   UNL     1       7.301   4.836  13.601  0.00  0.00    +0.000 A 
ATOM     23  N   UNL     1       7.750   5.550  14.656  0.00  0.00    +0.000 NA
ATOM     24  C   UNL     1       7.143   5.317  15.846  0.00  0.00    +0.000 A 
ENDBRANCH  18  19
ENDBRANCH   5  18
TORSDOF 4
ENDMDL
MODEL 7
REMARK VINA RESULT:      -7.7      2.627      4.578
REMARK  Name = 
REMARK  4 active torsions:
REMARK  status: ('A' for Active; 'I' for Inactive)
REMARK    1  A    between atoms: C_2  and  C_11
REMARK    2  A    between atoms: N_3  and  C_4
REMARK    3  A    between atoms: C_15  and  O_16
REMARK    4  A    between atoms: O_16  and  C_17
REMARK                            x       y       z     vdW  Elec       q    Type
REMARK                         _______ _______ _______ _____ _____    ______ ____
ROOT
ATOM      1  C   UNL     1       3.168   7.228  17.754  0.00  0.00    +0.000 A 
ATOM      2  C   UNL     1       4.307   7.418  16.965  0.00  0.00    +0.000 A 
ATOM      3  C   UNL     1       5.064   6.310  16.576  0.00  0.00    +0.000 A 
ATOM      4  C   UNL     1       4.661   5.020  16.936  0.00  0.00    +0.000 A 
ATOM      5  C   UNL     1       3.507   4.828  17.698  0.00  0.00    +0.000 A 
ATOM      6  C   UNL     1       2.802   5.939  18.159  0.00  0.00    +0.000 A 
ENDROOT
BRANCH   1   8
ATOM      7  O   UNL     1       2.259   9.339  17.491  0.00  0.00    +0.000 OA
ATOM      8  C   UNL     1       2.315   8.349  18.213  0.00  0.00    +0.000 C 
ATOM      9  N   UNL     1       1.726   8.207  19.461  0.00  0.00    +0.000 N 
ATOM     10  H   UNL     1       2.009   7.413  20.017  0.00  0.00    +0.000 HD
BRANCH   9  11
ATOM     11  C   UNL     1       0.947   9.194  20.108  0.00  0.00    +0.000 A 
ATOM     12  C   UNL     1       0.976   9.405  21.490  0.00  0.00    +0.000 A 
ATOM     13  C   UNL     1       0.139  10.350  22.092  0.00  0.00    +0.000 A 
ATOM     14  C   UNL     1      -0.732  11.100  21.314  0.00  0.00    +0.000 A 
ATOM     15  C   UNL     1      -0.746  10.919  19.933  0.00  0.00    +0.000 A 
ATOM     16 CL   UNL     1      -1.828  11.847  18.969  0.00  0.00    +0.000 Cl
ATOM     17  C   UNL     1       0.096   9.982  19.325  0.00  0.00    +0.000 A 
ENDBRANCH   9  11
ENDBRANCH   1   8
BRANCH   5  18
ATOM     18  O   UNL     1       3.169   3.524  17.987  0.00  0.00    +0.000 OA
BRANCH  18  19
ATOM     19  C   UNL     1       2.634   3.217  19.217  0.00  0.00    +0.000 A 
ATOM     20  C   UNL     1       1.276   3.239  19.530  0.00  0.00    +0.000 A 
ATOM     21  C   UNL     1       0.864   2.953  20.830  0.00  0.00    +0.000 A 
ATOM     22  C   UNL     1       1.826   2.593  21.760  0.00  0.00    +0.000 A 
ATOM     23  N   UNL     1       3.142   2.495  21.476  0.00  0.00    +0.000 NA
ATOM     24  C   UNL     1       3.514   2.809  20.210  0.00  0.00    +0.000 A 
ENDBRANCH  18  19
ENDBRANCH   5  18
TORSDOF 4
ENDMDL
MODEL 8
REMARK VINA RESULT:      -7.7      3.793      8.187
REMARK  Name = 
REMARK  4 active torsions:
REMARK  status: ('A' for Active; 'I' for Inactive)
REMARK    1  A    between atoms: C_2  and  C_11
REMARK    2  A    between atoms: N_3  and  C_4
REMARK    3  A    between atoms: C_15  and  O_16
REMARK    4  A    between atoms: O_16  and  C_17
REMARK                            x       y       z     vdW  Elec       q    Type
REMARK                         _______ _______ _______ _____ _____    ______ ____
ROOT
ATOM      1  C   UNL     1       2.264   7.319  19.501  0.00  0.00    +0.000 A 
ATOM      2  C   UNL     1       1.776   7.247  20.809  0.00  0.00    +0.000 A 
ATOM      3  C   UNL     1       0.949   8.265  21.289  0.00  0.00    +0.000 A 
ATOM      4  C   UNL     1       0.577   9.324  20.454  0.00  0.00    +0.000 A 
ATOM      5  C   UNL     1       1.041   9.380  19.138  0.00  0.00    +0.000 A 
ATOM      6  C   UNL     1       1.936   8.411  18.688  0.00  0.00    +0.000 A 
ENDROOT
BRANCH   1   8
ATOM      7  O   UNL     1       2.986   5.131  19.300  0.00  0.00    +0.000 OA
ATOM      8  C   UNL     1       3.151   6.284  18.919  0.00  0.00    +0.000 C 
ATOM      9  N   UNL     1       4.143   6.733  18.059  0.00  0.00    +0.000 N 
ATOM     10  H   UNL     1       4.269   7.732  17.982  0.00  0.00    +0.000 HD
BRANCH   9  11
ATOM     11  C   UNL     1       5.135   5.917  17.469  0.00  0.00    +0.000 A 
ATOM     12  C   UNL     1       6.328   5.575  18.115  0.00  0.00    +0.000 A 
ATOM     13  C   UNL     1       7.308   4.820  17.464  0.00  0.00    +0.000 A 
ATOM     14  C   UNL     1       7.101   4.389  16.160  0.00  0.00    +0.000 A 
ATOM     15  C   UNL     1       5.902   4.698  15.520  0.00  0.00    +0.000 A 
ATOM     16 CL   UNL     1       5.647   4.167  13.903  0.00  0.00    +0.000 Cl
ATOM     17  C   UNL     1       4.915   5.446  16.170  0.00  0.00    +0.000 A 
ENDBRANCH   9  11
ENDBRANCH   1   8
BRANCH   5  18
ATOM     18  O   UNL     1       0.607  10.443  18.376  0.00  0.00    +0.000 OA
BRANCH  18  19
ATOM     19  C   UNL     1      -0.738  10.605  18.138  0.00  0.00    +0.000 A 
ATOM     20  C   UNL     1      -1.517   9.774  17.333  0.00  0.00    +0.000 A 
ATOM     21  C   UNL     1      -2.862  10.073  17.132  0.00  0.00    +0.000 A 
ATOM     22  C   UNL     1      -3.399  11.164  17.796  0.00  0.00    +0.000 A 
ATOM     23  N   UNL     1      -2.693  11.951  18.637  0.00  0.00    +0.000 NA
ATOM     24  C   UNL     1      -1.379  11.651  18.787  0.00  0.00    +0.000 A 
ENDBRANCH  18  19
ENDBRANCH   5  18
TORSDOF 4
ENDMDL
MODEL 9
REMARK VINA RESULT:      -7.7      2.287      2.868
REMARK  Name = 
REMARK  4 active torsions:
REMARK  status: ('A' for Active; 'I' for Inactive)
REMARK    1  A    between atoms: C_2  and  C_11
REMARK    2  A    between atoms: N_3  and  C_4
REMARK    3  A    between atoms: C_15  and  O_16
REMARK    4  A    between atoms: O_16  and  C_17
REMARK                            x       y       z     vdW  Elec       q    Type
REMARK                         _______ _______ _______ _____ _____    ______ ____
ROOT
ATOM      1  C   UNL     1       2.574   7.140  18.826  0.00  0.00    +0.000 A 
ATOM      2  C   UNL     1       1.926   6.348  19.778  0.00  0.00    +0.000 A 
ATOM      3  C   UNL     1       2.523   5.157  20.200  0.00  0.00    +0.000 A 
ATOM      4  C   UNL     1       3.778   4.785  19.706  0.00  0.00    +0.000 A 
ATOM      5  C   UNL     1       4.439   5.592  18.778  0.00  0.00    +0.000 A 
ATOM      6  C   UNL     1       3.803   6.733  18.292  0.00  0.00    +0.000 A 
ENDROOT
BRANCH   1   8
ATOM      7  O   UNL     1       2.388   8.797  17.223  0.00  0.00    +0.000 OA
ATOM      8  C   UNL     1       2.005   8.412  18.322  0.00  0.00    +0.000 C 
ATOM      9  N   UNL     1       1.153   9.092  19.180  0.00  0.00    +0.000 N 
ATOM     10  H   UNL     1       1.073   8.742  20.124  0.00  0.00    +0.000 HD
BRANCH   9  11
ATOM     11  C   UNL     1       0.576  10.356  18.918  0.00  0.00    +0.000 A 
ATOM     12  C   UNL     1      -0.766  10.524  18.562  0.00  0.00    +0.000 A 
ATOM     13  C   UNL     1      -1.275  11.788  18.249  0.00  0.00    +0.000 A 
ATOM     14  C   UNL     1      -0.446  12.901  18.297  0.00  0.00    +0.000 A 
ATOM     15  C   UNL     1       0.884  12.748  18.680  0.00  0.00    +0.000 A 
ATOM     16 CL   UNL     1       1.912  14.127  18.736  0.00  0.00    +0.000 Cl
ATOM     17  C   UNL     1       1.395  11.487  19.003  0.00  0.00    +0.000 A 
ENDBRANCH   9  11
ENDBRANCH   1   8
BRANCH   5  18
ATOM     18  O   UNL     1       5.680   5.164  18.362  0.00  0.00    +0.000 OA
BRANCH  18  19
ATOM     19  C   UNL     1       5.928   4.997  17.020  0.00  0.00    +0.000 A 
ATOM     20  C   UNL     1       5.130   4.267  16.140  0.00  0.00    +0.000 A 
ATOM     21  C   UNL     1       5.515   4.133  14.809  0.00  0.00    +0.000 A 
ATOM     22  C   UNL     1       6.660   4.789  14.387  0.00  0.00    +0.000 A 
ATOM     23  N   UNL     1       7.421   5.561  15.193  0.00  0.00    +0.000 NA
ATOM     24  C   UNL     1       7.035   5.647  16.490  0.00  0.00    +0.000 A 
ENDBRANCH  18  19
ENDBRANCH   5  18
TORSDOF 4
ENDMDL
