MODEL 1
REMARK VINA RESULT:      -5.9      0.000      0.000
REMARK  Name = 
REMARK  6 active torsions:
REMARK  status: ('A' for Active; 'I' for Inactive)
REMARK    1  A    between atoms: C_1  and  C_2
REMARK    2  A    between atoms: C_2  and  N_3
REMARK    3  A    between atoms: N_3  and  C_4
REMARK    4  A    between atoms: C_4  and  C_5
REMARK    5  A    between atoms: C_6  and  C_8
REMARK    6  A    between atoms: C_8  and  C_9
REMARK                            x       y       z     vdW  Elec       q    Type
REMARK                         _______ _______ _______ _____ _____    ______ ____
ROOT
ATOM      1  N   UNL     1       6.346   5.446  17.941  0.00  0.00    +0.000 N 
ATOM      2  C   UNL     1       5.503   4.837  18.876  0.00  0.00    +0.000 C 
ATOM      3  O   UNL     1       5.689   3.683  19.270  0.00  0.00    +0.000 OA
ENDROOT
BRANCH   1   5
ATOM      4  C   UNL     1       7.229   4.335  15.888  0.00  0.00    +0.000 C 
ATOM      5  C   UNL     1       7.416   4.616  17.372  0.00  0.00    +0.000 C 
ENDBRANCH   1   5
BRANCH   1   6
ATOM      6  C   UNL     1       6.139   6.823  17.484  0.00  0.00    +0.000 C 
ATOM      7  C   UNL     1       7.323   7.775  17.489  0.00  0.00    +0.000 C 
ENDBRANCH   1   6
BRANCH   2   8
ATOM      8  C   UNL     1       4.301   5.623  19.409  0.00  0.00    +0.000 C 
BRANCH   8   9
ATOM      9  C   UNL     1       3.024   4.814  19.484  0.00  0.00    +0.000 A 
ATOM     10  C   UNL     1       2.454   4.277  18.321  0.00  0.00    +0.000 A 
ATOM     11  C   UNL     1       1.289   3.513  18.388  0.00  0.00    +0.000 A 
ATOM     12  C   UNL     1       0.677   3.277  19.616  0.00  0.00    +0.000 A 
ATOM     13  C   UNL     1       1.238   3.796  20.781  0.00  0.00    +0.000 A 
ATOM     14  C   UNL     1       2.407   4.559  20.716  0.00  0.00    +0.000 A 
ENDBRANCH   8   9
ENDBRANCH   2   8
TORSDOF 4
ENDMDL
MODEL 2
REMARK VINA RESULT:      -5.9      1.324      2.000
REMARK  Name = 
REMARK  6 active torsions:
REMARK  status: ('A' for Active; 'I' for Inactive)
REMARK    1  A    between atoms: C_1  and  C_2
REMARK    2  A    between atoms: C_2  and  N_3
REMARK    3  A    between atoms: N_3  and  C_4
REMARK    4  A    between atoms: C_4  and  C_5
REMARK    5  A    between atoms: C_6  and  C_8
REMARK    6  A    between atoms: C_8  and  C_9
REMARK                            x       y       z     vdW  Elec       q    Type
REMARK                         _______ _______ _______ _____ _____    ______ ____
ROOT
ATOM      1  N   UNL     1       6.221   4.849  17.197  0.00  0.00    +0.000 N 
ATOM      2  C   UNL     1       5.195   4.176  17.870  0.00  0.00    +0.000 C 
ATOM      3  O   UNL     1       5.367   3.665  18.980  0.00  0.00    +0.000 OA
ENDROOT
BRANCH   1   5
ATOM      4  C   UNL     1       7.803   6.064  18.696  0.00  0.00    +0.000 C 
ATOM      5  C   UNL     1       7.547   4.841  17.829  0.00  0.00    +0.000 C 
ENDBRANCH   1   5
BRANCH   1   6
ATOM      6  C   UNL     1       6.016   5.473  15.887  0.00  0.00    +0.000 C 
ATOM      7  C   UNL     1       6.522   4.749  14.651  0.00  0.00    +0.000 C 
ENDBRANCH   1   6
BRANCH   2   8
ATOM      8  C   UNL     1       3.826   4.055  17.196  0.00  0.00    +0.000 C 
BRANCH   8   9
ATOM      9  C   UNL     1       2.695   3.749  18.155  0.00  0.00    +0.000 A 
ATOM     10  C   UNL     1       2.034   2.514  18.104  0.00  0.00    +0.000 A 
ATOM     11  C   UNL     1       1.006   2.220  19.000  0.00  0.00    +0.000 A 
ATOM     12  C   UNL     1       0.624   3.157  19.958  0.00  0.00    +0.000 A 
ATOM     13  C   UNL     1       1.279   4.385  20.026  0.00  0.00    +0.000 A 
ATOM     14  C   UNL     1       2.311   4.679  19.132  0.00  0.00    +0.000 A 
ENDBRANCH   8   9
ENDBRANCH   2   8
TORSDOF 4
ENDMDL
MODEL 3
REMARK VINA RESULT:      -5.9      1.243      1.810
REMARK  Name = 
REMARK  6 active torsions:
REMARK  status: ('A' for Active; 'I' for Inactive)
REMARK    1  A    between atoms: C_1  and  C_2
REMARK    2  A    between atoms: C_2  and  N_3
REMARK    3  A    between atoms: N_3  and  C_4
REMARK    4  A    between atoms: C_4  and  C_5
REMARK    5  A    between atoms: C_6  and  C_8
REMARK    6  A    between atoms: C_8  and  C_9
REMARK                            x       y       z     vdW  Elec       q    Type
REMARK                         _______ _______ _______ _____ _____    ______ ____
ROOT
ATOM      1  N   UNL     1       5.666   5.169  16.729  0.00  0.00    +0.000 N 
ATOM      2  C   UNL     1       4.515   4.498  17.152  0.00  0.00    +0.000 C 
ATOM      3  O   UNL     1       4.391   3.276  17.039  0.00  0.00    +0.000 OA
ENDROOT
BRANCH   1   5
ATOM      4  C   UNL     1       6.677   4.525  14.539  0.00  0.00    +0.000 C 
ATOM      5  C   UNL     1       6.693   4.365  16.053  0.00  0.00    +0.000 C 
ENDBRANCH   1   5
BRANCH   1   6
ATOM      6  C   UNL     1       5.824   6.619  16.878  0.00  0.00    +0.000 C 
ATOM      7  C   UNL     1       7.143   7.154  17.411  0.00  0.00    +0.000 C 
ENDBRANCH   1   6
BRANCH   2   8
ATOM      8  C   UNL     1       3.366   5.312  17.754  0.00  0.00    +0.000 C 
BRANCH   8   9
ATOM      9  C   UNL     1       2.585   4.575  18.821  0.00  0.00    +0.000 A 
ATOM     10  C   UNL     1       2.929   4.709  20.174  0.00  0.00    +0.000 A 
ATOM     11  C   UNL     1       2.199   4.048  21.162  0.00  0.00    +0.000 A 
ATOM     12  C   UNL     1       1.117   3.245  20.812  0.00  0.00    +0.000 A 
ATOM     13  C   UNL     1       0.757   3.111  19.472  0.00  0.00    +0.000 A 
ATOM     14  C   UNL     1       1.485   3.775  18.482  0.00  0.00    +0.000 A 
ENDBRANCH   8   9
ENDBRANCH   2   8
TORSDOF 4
ENDMDL
MODEL 4
REMARK VINA RESULT:      -5.9      1.656      2.560
REMARK  Name = 
REMARK  6 active torsions:
REMARK  status: ('A' for Active; 'I' for Inactive)
REMARK    1  A    between atoms: C_1  and  C_2
REMARK    2  A    between atoms: C_2  and  N_3
REMARK    3  A    between atoms: N_3  and  C_4
REMARK    4  A    between atoms: C_4  and  C_5
REMARK    5  A    between atoms: C_6  and  C_8
REMARK    6  A    between atoms: C_8  and  C_9
REMARK                            x       y       z     vdW  Elec       q    Type
REMARK                         _______ _______ _______ _____ _____    ______ ____
ROOT
ATOM      1  N   UNL     1       5.371   5.335  16.776  0.00  0.00    +0.000 N 
ATOM      2  C   UNL     1       4.107   5.186  17.355  0.00  0.00    +0.000 C 
ATOM      3  O   UNL     1       3.503   6.135  17.861  0.00  0.00    +0.000 OA
ENDROOT
BRANCH   1   5
ATOM      4  C   UNL     1       7.315   6.640  17.642  0.00  0.00    +0.000 C 
ATOM      5  C   UNL     1       5.997   6.660  16.881  0.00  0.00    +0.000 C 
ENDBRANCH   1   5
BRANCH   1   6
ATOM      6  C   UNL     1       6.083   4.213  16.158  0.00  0.00    +0.000 C 
ATOM      7  C   UNL     1       6.080   4.098  14.643  0.00  0.00    +0.000 C 
ENDBRANCH   1   6
BRANCH   2   8
ATOM      8  C   UNL     1       3.465   3.795  17.377  0.00  0.00    +0.000 C 
BRANCH   8   9
ATOM      9  C   UNL     1       2.744   3.474  18.669  0.00  0.00    +0.000 A 
ATOM     10  C   UNL     1       1.343   3.487  18.723  0.00  0.00    +0.000 A 
ATOM     11  C   UNL     1       0.674   3.171  19.906  0.00  0.00    +0.000 A 
ATOM     12  C   UNL     1       1.396   2.837  21.050  0.00  0.00    +0.000 A 
ATOM     13  C   UNL     1       2.788   2.810  21.007  0.00  0.00    +0.000 A 
ATOM     14  C   UNL     1       3.459   3.123  19.823  0.00  0.00    +0.000 A 
ENDBRANCH   8   9
ENDBRANCH   2   8
TORSDOF 4
ENDMDL
MODEL 5
REMARK VINA RESULT:      -5.9      1.164      2.059
REMARK  Name = 
REMARK  6 active torsions:
REMARK  status: ('A' for Active; 'I' for Inactive)
REMARK    1  A    between atoms: C_1  and  C_2
REMARK    2  A    between atoms: C_2  and  N_3
REMARK    3  A    between atoms: N_3  and  C_4
REMARK    4  A    between atoms: C_4  and  C_5
REMARK    5  A    between atoms: C_6  and  C_8
REMARK    6  A    between atoms: C_8  and  C_9
REMARK                            x       y       z     vdW  Elec       q    Type
REMARK                         _______ _______ _______ _____ _____    ______ ____
ROOT
ATOM      1  N   UNL     1       6.028   5.558  17.539  0.00  0.00    +0.000 N 
ATOM      2  C   UNL     1       5.481   4.479  18.240  0.00  0.00    +0.000 C 
ATOM      3  O   UNL     1       6.000   4.037  19.269  0.00  0.00    +0.000 OA
ENDROOT
BRANCH   1   5
ATOM      4  C   UNL     1       7.585   7.508  17.555  0.00  0.00    +0.000 C 
ATOM      5  C   UNL     1       7.307   6.089  18.028  0.00  0.00    +0.000 C 
ENDBRANCH   1   5
BRANCH   1   6
ATOM      6  C   UNL     1       5.404   6.097  16.327  0.00  0.00    +0.000 C 
ATOM      7  C   UNL     1       5.686   5.413  15.000  0.00  0.00    +0.000 C 
ENDBRANCH   1   6
BRANCH   2   8
ATOM      8  C   UNL     1       4.211   3.814  17.700  0.00  0.00    +0.000 C 
BRANCH   8   9
ATOM      9  C   UNL     1       3.071   3.771  18.694  0.00  0.00    +0.000 A 
ATOM     10  C   UNL     1       2.692   4.927  19.391  0.00  0.00    +0.000 A 
ATOM     11  C   UNL     1       1.628   4.898  20.293  0.00  0.00    +0.000 A 
ATOM     12  C   UNL     1       0.928   3.713  20.510  0.00  0.00    +0.000 A 
ATOM     13  C   UNL     1       1.287   2.559  19.816  0.00  0.00    +0.000 A 
ATOM     14  C   UNL     1       2.350   2.588  18.910  0.00  0.00    +0.000 A 
ENDBRANCH   8   9
ENDBRANCH   2   8
TORSDOF 4
ENDMDL
MODEL 6
REMARK VINA RESULT:      -5.8      1.635      2.666
REMARK  Name = 
REMARK  6 active torsions:
REMARK  status: ('A' for Active; 'I' for Inactive)
REMARK    1  A    between atoms: C_1  and  C_2
REMARK    2  A    between atoms: C_2  and  N_3
REMARK    3  A    between atoms: N_3  and  C_4
REMARK    4  A    between atoms: C_4  and  C_5
REMARK    5  A    between atoms: C_6  and  C_8
REMARK    6  A    between atoms: C_8  and  C_9
REMARK                            x       y       z     vdW  Elec       q    Type
REMARK                         _______ _______ _______ _____ _____    ______ ____
ROOT
ATOM      1  N   UNL     1       5.477   5.340  16.805  0.00  0.00    +0.000 N 
ATOM      2  C   UNL     1       4.190   5.241  17.342  0.00  0.00    +0.000 C 
ATOM      3  O   UNL     1       3.619   6.208  17.854  0.00  0.00    +0.000 OA
ENDROOT
BRANCH   1   5
ATOM      4  C   UNL     1       7.378   6.555  17.873  0.00  0.00    +0.000 C 
ATOM      5  C   UNL     1       6.164   6.630  16.958  0.00  0.00    +0.000 C 
ENDBRANCH   1   5
BRANCH   1   6
ATOM      6  C   UNL     1       6.152   4.199  16.180  0.00  0.00    +0.000 C 
ATOM      7  C   UNL     1       6.124   4.079  14.666  0.00  0.00    +0.000 C 
ENDBRANCH   1   6
BRANCH   2   8
ATOM      8  C   UNL     1       3.480   3.884  17.313  0.00  0.00    +0.000 C 
BRANCH   8   9
ATOM      9  C   UNL     1       2.775   3.534  18.606  0.00  0.00    +0.000 A 
ATOM     10  C   UNL     1       3.509   3.120  19.726  0.00  0.00    +0.000 A 
ATOM     11  C   UNL     1       2.864   2.816  20.926  0.00  0.00    +0.000 A 
ATOM     12  C   UNL     1       1.479   2.921  21.021  0.00  0.00    +0.000 A 
ATOM     13  C   UNL     1       0.738   3.341  19.918  0.00  0.00    +0.000 A 
ATOM     14  C   UNL     1       1.382   3.649  18.718  0.00  0.00    +0.000 A 
ENDBRANCH   8   9
ENDBRANCH   2   8
TORSDOF 4
ENDMDL
MODEL 7
REMARK VINA RESULT:      -5.8      1.367      2.235
REMARK  Name = 
REMARK  6 active torsions:
REMARK  status: ('A' for Active; 'I' for Inactive)
REMARK    1  A    between atoms: C_1  and  C_2
REMARK    2  A    between atoms: C_2  and  N_3
REMARK    3  A    between atoms: N_3  and  C_4
REMARK    4  A    between atoms: C_4  and  C_5
REMARK    5  A    between atoms: C_6  and  C_8
REMARK    6  A    between atoms: C_8  and  C_9
REMARK                            x       y       z     vdW  Elec       q    Type
REMARK                         _______ _______ _______ _____ _____    ______ ____
ROOT
ATOM      1  N   UNL     1       5.966   4.614  17.049  0.00  0.00    +0.000 N 
ATOM      2  C   UNL     1       5.291   4.099  18.160  0.00  0.00    +0.000 C 
ATOM      3  O   UNL     1       5.735   4.214  19.306  0.00  0.00    +0.000 OA
ENDROOT
BRANCH   1   5
ATOM      4  C   UNL     1       7.242   6.739  17.337  0.00  0.00    +0.000 C 
ATOM      5  C   UNL     1       7.282   5.219  17.292  0.00  0.00    +0.000 C 
ENDBRANCH   1   5
BRANCH   1   6
ATOM      6  C   UNL     1       5.433   4.495  15.689  0.00  0.00    +0.000 C 
ATOM      7  C   UNL     1       6.385   4.120  14.565  0.00  0.00    +0.000 C 
ENDBRANCH   1   6
BRANCH   2   8
ATOM      8  C   UNL     1       3.971   3.353  17.942  0.00  0.00    +0.000 C 
BRANCH   8   9
ATOM      9  C   UNL     1       3.061   3.351  19.152  0.00  0.00    +0.000 A 
ATOM     10  C   UNL     1       1.878   4.103  19.152  0.00  0.00    +0.000 A 
ATOM     11  C   UNL     1       1.026   4.086  20.257  0.00  0.00    +0.000 A 
ATOM     12  C   UNL     1       1.344   3.320  21.375  0.00  0.00    +0.000 A 
ATOM     13  C   UNL     1       2.513   2.560  21.384  0.00  0.00    +0.000 A 
ATOM     14  C   UNL     1       3.365   2.572  20.278  0.00  0.00    +0.000 A 
ENDBRANCH   8   9
ENDBRANCH   2   8
TORSDOF 4
ENDMDL
MODEL 8
REMARK VINA RESULT:      -5.8      1.247      2.190
REMARK  Name = 
REMARK  6 active torsions:
REMARK  status: ('A' for Active; 'I' for Inactive)
REMARK    1  A    between atoms: C_1  and  C_2
REMARK    2  A    between atoms: C_2  and  N_3
REMARK    3  A    between atoms: N_3  and  C_4
REMARK    4  A    between atoms: C_4  and  C_5
REMARK    5  A    between atoms: C_6  and  C_8
REMARK    6  A    between atoms: C_8  and  C_9
REMARK                            x       y       z     vdW  Elec       q    Type
REMARK                         _______ _______ _______ _____ _____    ______ ____
ROOT
ATOM      1  N   UNL     1       5.693   5.610  17.274  0.00  0.00    +0.000 N 
ATOM      2  C   UNL     1       4.715   5.571  18.273  0.00  0.00    +0.000 C 
ATOM      3  O   UNL     1       5.005   5.465  19.468  0.00  0.00    +0.000 OA
ENDROOT
BRANCH   1   5
ATOM      4  C   UNL     1       7.760   6.720  18.127  0.00  0.00    +0.000 C 
ATOM      5  C   UNL     1       7.086   5.423  17.701  0.00  0.00    +0.000 C 
ENDBRANCH   1   5
BRANCH   1   6
ATOM      6  C   UNL     1       5.354   5.754  15.856  0.00  0.00    +0.000 C 
ATOM      7  C   UNL     1       6.136   4.944  14.836  0.00  0.00    +0.000 C 
ENDBRANCH   1   6
BRANCH   2   8
ATOM      8  C   UNL     1       3.241   5.641  17.866  0.00  0.00    +0.000 C 
BRANCH   8   9
ATOM      9  C   UNL     1       2.356   4.652  18.594  0.00  0.00    +0.000 A 
ATOM     10  C   UNL     1       1.890   4.932  19.886  0.00  0.00    +0.000 A 
ATOM     11  C   UNL     1       1.058   4.032  20.552  0.00  0.00    +0.000 A 
ATOM     12  C   UNL     1       0.679   2.842  19.937  0.00  0.00    +0.000 A 
ATOM     13  C   UNL     1       1.127   2.555  18.648  0.00  0.00    +0.000 A 
ATOM     14  C   UNL     1       1.958   3.456  17.978  0.00  0.00    +0.000 A 
ENDBRANCH   8   9
ENDBRANCH   2   8
TORSDOF 4
ENDMDL
MODEL 9
REMARK VINA RESULT:      -5.8      1.478      1.767
REMARK  Name = 
REMARK  6 active torsions:
REMARK  status: ('A' for Active; 'I' for Inactive)
REMARK    1  A    between atoms: C_1  and  C_2
REMARK    2  A    between atoms: C_2  and  N_3
REMARK    3  A    between atoms: N_3  and  C_4
REMARK    4  A    between atoms: C_4  and  C_5
REMARK    5  A    between atoms: C_6  and  C_8
REMARK    6  A    between atoms: C_8  and  C_9
REMARK                            x       y       z     vdW  Elec       q    Type
REMARK                         _______ _______ _______ _____ _____    ______ ____
ROOT
ATOM      1  N   UNL     1       5.243   4.811  16.332  0.00  0.00    +0.000 N 
ATOM      2  C   UNL     1       4.231   4.191  17.070  0.00  0.00    +0.000 C 
ATOM      3  O   UNL     1       4.178   2.966  17.207  0.00  0.00    +0.000 OA
ENDROOT
BRANCH   1   5
ATOM      4  C   UNL     1       6.317   4.230  14.155  0.00  0.00    +0.000 C 
ATOM      5  C   UNL     1       6.197   3.932  15.642  0.00  0.00    +0.000 C 
ENDBRANCH   1   5
BRANCH   1   6
ATOM      6  C   UNL     1       5.319   6.267  16.181  0.00  0.00    +0.000 C 
ATOM      7  C   UNL     1       6.245   7.045  17.102  0.00  0.00    +0.000 C 
ENDBRANCH   1   6
BRANCH   2   8
ATOM      8  C   UNL     1       3.143   5.061  17.708  0.00  0.00    +0.000 C 
BRANCH   8   9
ATOM      9  C   UNL     1       2.442   4.406  18.879  0.00  0.00    +0.000 A 
ATOM     10  C   UNL     1       1.369   3.529  18.664  0.00  0.00    +0.000 A 
ATOM     11  C   UNL     1       0.734   2.907  19.739  0.00  0.00    +0.000 A 
ATOM     12  C   UNL     1       1.161   3.152  21.041  0.00  0.00    +0.000 A 
ATOM     13  C   UNL     1       2.233   4.014  21.268  0.00  0.00    +0.000 A 
ATOM     14  C   UNL     1       2.873   4.635  20.193  0.00  0.00    +0.000 A 
ENDBRANCH   8   9
ENDBRANCH   2   8
TORSDOF 4
ENDMDL
