MODEL 1
REMARK VINA RESULT:      -7.6      0.000      0.000
REMARK  Name = 
REMARK  4 active torsions:
REMARK  status: ('A' for Active; 'I' for Inactive)
REMARK    1  A    between atoms: C_2  and  C_3
REMARK    2  A    between atoms: C_3  and  C_4
REMARK    3  A    between atoms: C_3  and  C_10
REMARK    4  A    between atoms: C_3  and  C_16
REMARK                            x       y       z     vdW  Elec       q    Type
REMARK                         _______ _______ _______ _____ _____    ______ ____
ROOT
ATOM      1  C   UNL     1       4.110   5.442  18.002  0.00  0.00    +0.000 C 
ENDROOT
BRANCH   1   2
ATOM      2  C   UNL     1       3.220   4.164  18.185  0.00  0.00    +0.000 A 
ATOM      3  C   UNL     1       1.825   4.200  17.973  0.00  0.00    +0.000 A 
ATOM      4  C   UNL     1       1.020   3.104  18.294  0.00  0.00    +0.000 A 
ATOM      5  C   UNL     1       1.585   1.934  18.803  0.00  0.00    +0.000 A 
ATOM      6  C   UNL     1       2.962   1.846  18.962  0.00  0.00    +0.000 A 
ATOM      7  C   UNL     1       3.768   2.940  18.643  0.00  0.00    +0.000 A 
ENDBRANCH   1   2
BRANCH   1   8
ATOM      8  C   UNL     1       3.315   6.707  18.582  0.00  0.00    +0.000 A 
ATOM      9  C   UNL     1       2.741   6.765  19.865  0.00  0.00    +0.000 A 
ATOM     10  C   UNL     1       1.781   7.734  20.196  0.00  0.00    +0.000 A 
ATOM     11  C   UNL     1       1.455   8.735  19.291  0.00  0.00    +0.000 A 
ATOM     12  C   UNL     1       2.118   8.798  18.073  0.00  0.00    +0.000 A 
ATOM     13  C   UNL     1       3.033   7.799  17.722  0.00  0.00    +0.000 A 
ENDBRANCH   1   8
BRANCH   1  14
ATOM     14  C   UNL     1       4.520   5.630  16.481  0.00  0.00    +0.000 C 
ATOM     15  C   UNL     1       5.720   6.558  16.172  0.00  0.00    +0.000 C 
ATOM     16  C   UNL     1       7.083   5.912  16.318  0.00  0.00    +0.000 C 
ATOM     17  C   UNL     1       7.217   4.660  15.476  0.00  0.00    +0.000 C 
ATOM     18  C   UNL     1       6.034   3.704  15.591  0.00  0.00    +0.000 C 
ATOM     19  C   UNL     1       4.661   4.368  15.601  0.00  0.00    +0.000 C 
ENDBRANCH   1  14
BRANCH   1  21
ATOM     20  N   UNL     1       6.188   5.210  19.836  0.00  0.00    +0.000 NA
ATOM     21  C   UNL     1       5.245   5.315  19.004  0.00  0.00    +0.000 C 
ENDBRANCH   1  21
TORSDOF 4
ENDMDL
MODEL 2
REMARK VINA RESULT:      -7.5      0.981      5.084
REMARK  Name = 
REMARK  4 active torsions:
REMARK  status: ('A' for Active; 'I' for Inactive)
REMARK    1  A    between atoms: C_2  and  C_3
REMARK    2  A    between atoms: C_3  and  C_4
REMARK    3  A    between atoms: C_3  and  C_10
REMARK    4  A    between atoms: C_3  and  C_16
REMARK                            x       y       z     vdW  Elec       q    Type
REMARK                         _______ _______ _______ _____ _____    ______ ____
ROOT
ATOM      1  C   UNL     1       4.475   4.674  18.177  0.00  0.00    +0.000 C 
ENDROOT
BRANCH   1   2
ATOM      2  C   UNL     1       3.511   5.887  18.417  0.00  0.00    +0.000 A 
ATOM      3  C   UNL     1       3.207   6.803  17.387  0.00  0.00    +0.000 A 
ATOM      4  C   UNL     1       2.481   7.967  17.650  0.00  0.00    +0.000 A 
ATOM      5  C   UNL     1       2.012   8.235  18.936  0.00  0.00    +0.000 A 
ATOM      6  C   UNL     1       2.241   7.321  19.957  0.00  0.00    +0.000 A 
ATOM      7  C   UNL     1       2.967   6.158  19.697  0.00  0.00    +0.000 A 
ENDBRANCH   1   2
BRANCH   1   8
ATOM      8  C   UNL     1       5.215   4.878  16.770  0.00  0.00    +0.000 A 
ATOM      9  C   UNL     1       4.887   4.184  15.591  0.00  0.00    +0.000 A 
ATOM     10  C   UNL     1       5.765   4.141  14.497  0.00  0.00    +0.000 A 
ATOM     11  C   UNL     1       6.939   4.881  14.511  0.00  0.00    +0.000 A 
ATOM     12  C   UNL     1       7.217   5.701  15.597  0.00  0.00    +0.000 A 
ATOM     13  C   UNL     1       6.370   5.699  16.710  0.00  0.00    +0.000 A 
ENDBRANCH   1   8
BRANCH   1  14
ATOM     14  C   UNL     1       3.683   3.302  18.252  0.00  0.00    +0.000 C 
ATOM     15  C   UNL     1       3.760   2.500  19.573  0.00  0.00    +0.000 C 
ATOM     16  C   UNL     1       2.801   2.955  20.655  0.00  0.00    +0.000 C 
ATOM     17  C   UNL     1       1.362   2.958  20.181  0.00  0.00    +0.000 C 
ATOM     18  C   UNL     1       1.158   3.615  18.820  0.00  0.00    +0.000 C 
ATOM     19  C   UNL     1       2.214   3.279  17.772  0.00  0.00    +0.000 C 
ENDBRANCH   1  14
BRANCH   1  21
ATOM     20  N   UNL     1       6.586   4.995  19.958  0.00  0.00    +0.000 NA
ATOM     21  C   UNL     1       5.629   4.850  19.151  0.00  0.00    +0.000 C 
ENDBRANCH   1  21
TORSDOF 4
ENDMDL
MODEL 3
REMARK VINA RESULT:      -7.5      0.847      5.163
REMARK  Name = 
REMARK  4 active torsions:
REMARK  status: ('A' for Active; 'I' for Inactive)
REMARK    1  A    between atoms: C_2  and  C_3
REMARK    2  A    between atoms: C_3  and  C_4
REMARK    3  A    between atoms: C_3  and  C_10
REMARK    4  A    between atoms: C_3  and  C_16
REMARK                            x       y       z     vdW  Elec       q    Type
REMARK                         _______ _______ _______ _____ _____    ______ ____
ROOT
ATOM      1  C   UNL     1       3.881   4.789  17.891  0.00  0.00    +0.000 C 
ENDROOT
BRANCH   1   2
ATOM      2  C   UNL     1       3.268   6.172  18.304  0.00  0.00    +0.000 A 
ATOM      3  C   UNL     1       2.769   6.400  19.605  0.00  0.00    +0.000 A 
ATOM      4  C   UNL     1       2.080   7.574  19.916  0.00  0.00    +0.000 A 
ATOM      5  C   UNL     1       1.897   8.566  18.952  0.00  0.00    +0.000 A 
ATOM      6  C   UNL     1       2.432   8.398  17.681  0.00  0.00    +0.000 A 
ATOM      7  C   UNL     1       3.120   7.225  17.367  0.00  0.00    +0.000 A 
ENDBRANCH   1   2
BRANCH   1   8
ATOM      8  C   UNL     1       4.958   5.032  16.729  0.00  0.00    +0.000 A 
ATOM      9  C   UNL     1       4.851   4.517  15.425  0.00  0.00    +0.000 A 
ATOM     10  C   UNL     1       5.958   4.466  14.564  0.00  0.00    +0.000 A 
ATOM     11  C   UNL     1       7.168   5.029  14.944  0.00  0.00    +0.000 A 
ATOM     12  C   UNL     1       7.264   5.685  16.164  0.00  0.00    +0.000 A 
ATOM     13  C   UNL     1       6.177   5.686  17.044  0.00  0.00    +0.000 A 
ENDBRANCH   1   8
BRANCH   1  14
ATOM     14  C   UNL     1       2.741   3.774  17.458  0.00  0.00    +0.000 C 
ATOM     15  C   UNL     1       3.027   2.262  17.621  0.00  0.00    +0.000 C 
ATOM     16  C   UNL     1       2.796   1.714  19.016  0.00  0.00    +0.000 C 
ATOM     17  C   UNL     1       1.393   1.992  19.515  0.00  0.00    +0.000 C 
ATOM     18  C   UNL     1       0.932   3.431  19.302  0.00  0.00    +0.000 C 
ATOM     19  C   UNL     1       1.301   4.039  17.953  0.00  0.00    +0.000 C 
ENDBRANCH   1  14
BRANCH   1  21
ATOM     20  N   UNL     1       5.516   4.004  19.999  0.00  0.00    +0.000 NA
ATOM     21  C   UNL     1       4.774   4.360  19.044  0.00  0.00    +0.000 C 
ENDBRANCH   1  21
TORSDOF 4
ENDMDL
MODEL 4
REMARK VINA RESULT:      -7.4      1.023      5.129
REMARK  Name = 
REMARK  4 active torsions:
REMARK  status: ('A' for Active; 'I' for Inactive)
REMARK    1  A    between atoms: C_2  and  C_3
REMARK    2  A    between atoms: C_3  and  C_4
REMARK    3  A    between atoms: C_3  and  C_10
REMARK    4  A    between atoms: C_3  and  C_16
REMARK                            x       y       z     vdW  Elec       q    Type
REMARK                         _______ _______ _______ _____ _____    ______ ____
ROOT
ATOM      1  C   UNL     1       4.598   4.789  18.186  0.00  0.00    +0.000 C 
ENDROOT
BRANCH   1   2
ATOM      2  C   UNL     1       3.706   6.054  18.437  0.00  0.00    +0.000 A 
ATOM      3  C   UNL     1       3.136   6.316  19.701  0.00  0.00    +0.000 A 
ATOM      4  C   UNL     1       2.214   7.352  19.874  0.00  0.00    +0.000 A 
ATOM      5  C   UNL     1       1.860   8.172  18.802  0.00  0.00    +0.000 A 
ATOM      6  C   UNL     1       2.452   7.979  17.561  0.00  0.00    +0.000 A 
ATOM      7  C   UNL     1       3.373   6.944  17.386  0.00  0.00    +0.000 A 
ENDBRANCH   1   2
BRANCH   1   8
ATOM      8  C   UNL     1       5.323   4.946  16.765  0.00  0.00    +0.000 A 
ATOM      9  C   UNL     1       4.842   4.398  15.563  0.00  0.00    +0.000 A 
ATOM     10  C   UNL     1       5.667   4.268  14.434  0.00  0.00    +0.000 A 
ATOM     11  C   UNL     1       6.955   4.785  14.445  0.00  0.00    +0.000 A 
ATOM     12  C   UNL     1       7.407   5.472  15.564  0.00  0.00    +0.000 A 
ATOM     13  C   UNL     1       6.605   5.550  16.707  0.00  0.00    +0.000 A 
ENDBRANCH   1   8
BRANCH   1  14
ATOM     14  C   UNL     1       3.735   3.462  18.282  0.00  0.00    +0.000 C 
ATOM     15  C   UNL     1       3.725   2.709  19.634  0.00  0.00    +0.000 C 
ATOM     16  C   UNL     1       2.755   3.252  20.663  0.00  0.00    +0.000 C 
ATOM     17  C   UNL     1       1.335   3.309  20.138  0.00  0.00    +0.000 C 
ATOM     18  C   UNL     1       1.212   3.924  18.748  0.00  0.00    +0.000 C 
ATOM     19  C   UNL     1       2.284   3.495  17.751  0.00  0.00    +0.000 C 
ENDBRANCH   1  14
BRANCH   1  21
ATOM     20  N   UNL     1       6.755   5.003  19.928  0.00  0.00    +0.000 NA
ATOM     21  C   UNL     1       5.777   4.906  19.139  0.00  0.00    +0.000 C 
ENDBRANCH   1  21
TORSDOF 4
ENDMDL
MODEL 5
REMARK VINA RESULT:      -7.4      0.143      1.061
REMARK  Name = 
REMARK  4 active torsions:
REMARK  status: ('A' for Active; 'I' for Inactive)
REMARK    1  A    between atoms: C_2  and  C_3
REMARK    2  A    between atoms: C_3  and  C_4
REMARK    3  A    between atoms: C_3  and  C_10
REMARK    4  A    between atoms: C_3  and  C_16
REMARK                            x       y       z     vdW  Elec       q    Type
REMARK                         _______ _______ _______ _____ _____    ______ ____
ROOT
ATOM      1  C   UNL     1       4.129   5.429  18.067  0.00  0.00    +0.000 C 
ENDROOT
BRANCH   1   2
ATOM      2  C   UNL     1       3.275   4.146  18.358  0.00  0.00    +0.000 A 
ATOM      3  C   UNL     1       3.877   2.933  18.756  0.00  0.00    +0.000 A 
ATOM      4  C   UNL     1       3.129   1.757  18.855  0.00  0.00    +0.000 A 
ATOM      5  C   UNL     1       1.759   1.764  18.591  0.00  0.00    +0.000 A 
ATOM      6  C   UNL     1       1.126   2.955  18.259  0.00  0.00    +0.000 A 
ATOM      7  C   UNL     1       1.872   4.131  18.159  0.00  0.00    +0.000 A 
ENDBRANCH   1   2
BRANCH   1   8
ATOM      8  C   UNL     1       3.336   6.708  18.618  0.00  0.00    +0.000 A 
ATOM      9  C   UNL     1       2.754   6.794  19.895  0.00  0.00    +0.000 A 
ATOM     10  C   UNL     1       1.796   7.773  20.201  0.00  0.00    +0.000 A 
ATOM     11  C   UNL     1       1.480   8.757  19.274  0.00  0.00    +0.000 A 
ATOM     12  C   UNL     1       2.152   8.794  18.060  0.00  0.00    +0.000 A 
ATOM     13  C   UNL     1       3.065   7.785  17.735  0.00  0.00    +0.000 A 
ENDBRANCH   1   8
BRANCH   1  14
ATOM     14  C   UNL     1       4.465   5.544  16.521  0.00  0.00    +0.000 C 
ATOM     15  C   UNL     1       5.600   6.508  16.104  0.00  0.00    +0.000 C 
ATOM     16  C   UNL     1       7.000   5.940  16.226  0.00  0.00    +0.000 C 
ATOM     17  C   UNL     1       7.163   4.647  15.454  0.00  0.00    +0.000 C 
ATOM     18  C   UNL     1       6.037   3.643  15.679  0.00  0.00    +0.000 C 
ATOM     19  C   UNL     1       4.633   4.238  15.711  0.00  0.00    +0.000 C 
ENDBRANCH   1  14
BRANCH   1  21
ATOM     20  N   UNL     1       6.293   5.332  19.811  0.00  0.00    +0.000 NA
ATOM     21  C   UNL     1       5.312   5.376  19.020  0.00  0.00    +0.000 C 
ENDBRANCH   1  21
TORSDOF 4
ENDMDL
MODEL 6
REMARK VINA RESULT:      -7.4      1.809      4.438
REMARK  Name = 
REMARK  4 active torsions:
REMARK  status: ('A' for Active; 'I' for Inactive)
REMARK    1  A    between atoms: C_2  and  C_3
REMARK    2  A    between atoms: C_3  and  C_4
REMARK    3  A    between atoms: C_3  and  C_10
REMARK    4  A    between atoms: C_3  and  C_16
REMARK                            x       y       z     vdW  Elec       q    Type
REMARK                         _______ _______ _______ _____ _____    ______ ____
ROOT
ATOM      1  C   UNL     1       3.131   5.357  18.650  0.00  0.00    +0.000 C 
ENDROOT
BRANCH   1   2
ATOM      2  C   UNL     1       4.404   5.320  17.735  0.00  0.00    +0.000 A 
ATOM      3  C   UNL     1       4.439   4.553  16.550  0.00  0.00    +0.000 A 
ATOM      4  C   UNL     1       5.625   4.396  15.830  0.00  0.00    +0.000 A 
ATOM      5  C   UNL     1       6.799   5.022  16.251  0.00  0.00    +0.000 A 
ATOM      6  C   UNL     1       6.781   5.835  17.377  0.00  0.00    +0.000 A 
ATOM      7  C   UNL     1       5.596   5.992  18.099  0.00  0.00    +0.000 A 
ENDBRANCH   1   2
BRANCH   1   8
ATOM      8  C   UNL     1       2.665   6.882  18.819  0.00  0.00    +0.000 A 
ATOM      9  C   UNL     1       2.121   7.421  19.998  0.00  0.00    +0.000 A 
ATOM     10  C   UNL     1       1.424   8.639  19.994  0.00  0.00    +0.000 A 
ATOM     11  C   UNL     1       1.351   9.400  18.835  0.00  0.00    +0.000 A 
ATOM     12  C   UNL     1       2.011   8.971  17.692  0.00  0.00    +0.000 A 
ATOM     13  C   UNL     1       2.658   7.731  17.682  0.00  0.00    +0.000 A 
ENDBRANCH   1   8
BRANCH   1  14
ATOM     14  C   UNL     1       3.417   4.654  20.043  0.00  0.00    +0.000 C 
ATOM     15  C   UNL     1       2.288   4.674  21.102  0.00  0.00    +0.000 C 
ATOM     16  C   UNL     1       1.231   3.601  20.931  0.00  0.00    +0.000 C 
ATOM     17  C   UNL     1       1.829   2.210  20.896  0.00  0.00    +0.000 C 
ATOM     18  C   UNL     1       3.038   2.076  19.976  0.00  0.00    +0.000 C 
ATOM     19  C   UNL     1       4.028   3.235  20.033  0.00  0.00    +0.000 C 
ENDBRANCH   1  14
BRANCH   1  21
ATOM     20  N   UNL     1       1.050   4.313  17.129  0.00  0.00    +0.000 NA
ATOM     21  C   UNL     1       1.994   4.787  17.819  0.00  0.00    +0.000 C 
ENDBRANCH   1  21
TORSDOF 4
ENDMDL
MODEL 7
REMARK VINA RESULT:      -7.3      1.803      4.503
REMARK  Name = 
REMARK  4 active torsions:
REMARK  status: ('A' for Active; 'I' for Inactive)
REMARK    1  A    between atoms: C_2  and  C_3
REMARK    2  A    between atoms: C_3  and  C_4
REMARK    3  A    between atoms: C_3  and  C_10
REMARK    4  A    between atoms: C_3  and  C_16
REMARK                            x       y       z     vdW  Elec       q    Type
REMARK                         _______ _______ _______ _____ _____    ______ ____
ROOT
ATOM      1  C   UNL     1       3.103   5.389  18.642  0.00  0.00    +0.000 C 
ENDROOT
BRANCH   1   2
ATOM      2  C   UNL     1       4.383   5.353  17.737  0.00  0.00    +0.000 A 
ATOM      3  C   UNL     1       5.545   6.081  18.073  0.00  0.00    +0.000 A 
ATOM      4  C   UNL     1       6.618   6.174  17.183  0.00  0.00    +0.000 A 
ATOM      5  C   UNL     1       6.577   5.520  15.951  0.00  0.00    +0.000 A 
ATOM      6  C   UNL     1       5.473   4.744  15.619  0.00  0.00    +0.000 A 
ATOM      7  C   UNL     1       4.399   4.651  16.506  0.00  0.00    +0.000 A 
ENDBRANCH   1   2
BRANCH   1   8
ATOM      8  C   UNL     1       2.638   6.914  18.812  0.00  0.00    +0.000 A 
ATOM      9  C   UNL     1       2.087   7.450  19.990  0.00  0.00    +0.000 A 
ATOM     10  C   UNL     1       1.392   8.669  19.985  0.00  0.00    +0.000 A 
ATOM     11  C   UNL     1       1.327   9.434  18.829  0.00  0.00    +0.000 A 
ATOM     12  C   UNL     1       1.994   9.008  17.688  0.00  0.00    +0.000 A 
ATOM     13  C   UNL     1       2.639   7.766  17.679  0.00  0.00    +0.000 A 
ENDBRANCH   1   8
BRANCH   1  14
ATOM     14  C   UNL     1       3.377   4.680  20.034  0.00  0.00    +0.000 C 
ATOM     15  C   UNL     1       2.233   4.682  21.077  0.00  0.00    +0.000 C 
ATOM     16  C   UNL     1       1.190   3.599  20.885  0.00  0.00    +0.000 C 
ATOM     17  C   UNL     1       1.803   2.214  20.849  0.00  0.00    +0.000 C 
ATOM     18  C   UNL     1       3.026   2.099  19.946  0.00  0.00    +0.000 C 
ATOM     19  C   UNL     1       4.003   3.267  20.023  0.00  0.00    +0.000 C 
ENDBRANCH   1  14
BRANCH   1  21
ATOM     20  N   UNL     1       1.032   4.354  17.100  0.00  0.00    +0.000 NA
ATOM     21  C   UNL     1       1.971   4.824  17.799  0.00  0.00    +0.000 C 
ENDBRANCH   1  21
TORSDOF 4
ENDMDL
MODEL 8
REMARK VINA RESULT:      -7.2      1.521      4.767
REMARK  Name = 
REMARK  4 active torsions:
REMARK  status: ('A' for Active; 'I' for Inactive)
REMARK    1  A    between atoms: C_2  and  C_3
REMARK    2  A    between atoms: C_3  and  C_4
REMARK    3  A    between atoms: C_3  and  C_10
REMARK    4  A    between atoms: C_3  and  C_16
REMARK                            x       y       z     vdW  Elec       q    Type
REMARK                         _______ _______ _______ _____ _____    ______ ____
ROOT
ATOM      1  C   UNL     1       3.365   5.558  18.695  0.00  0.00    +0.000 C 
ENDROOT
BRANCH   1   2
ATOM      2  C   UNL     1       2.712   6.980  18.786  0.00  0.00    +0.000 A 
ATOM      3  C   UNL     1       2.120   7.445  19.981  0.00  0.00    +0.000 A 
ATOM      4  C   UNL     1       1.401   8.642  20.009  0.00  0.00    +0.000 A 
ATOM      5  C   UNL     1       1.279   9.423  18.859  0.00  0.00    +0.000 A 
ATOM      6  C   UNL     1       1.904   9.024  17.685  0.00  0.00    +0.000 A 
ATOM      7  C   UNL     1       2.622   7.827  17.654  0.00  0.00    +0.000 A 
ENDBRANCH   1   2
BRANCH   1   8
ATOM      8  C   UNL     1       4.944   5.730  18.479  0.00  0.00    +0.000 A 
ATOM      9  C   UNL     1       5.926   5.212  19.343  0.00  0.00    +0.000 A 
ATOM     10  C   UNL     1       7.251   5.672  19.305  0.00  0.00    +0.000 A 
ATOM     11  C   UNL     1       7.652   6.576  18.330  0.00  0.00    +0.000 A 
ATOM     12  C   UNL     1       6.744   6.988  17.365  0.00  0.00    +0.000 A 
ATOM     13  C   UNL     1       5.410   6.574  17.438  0.00  0.00    +0.000 A 
ENDBRANCH   1   8
BRANCH   1  14
ATOM     14  C   UNL     1       2.687   4.700  17.545  0.00  0.00    +0.000 C 
ATOM     15  C   UNL     1       3.513   3.544  16.931  0.00  0.00    +0.000 C 
ATOM     16  C   UNL     1       3.491   2.251  17.722  0.00  0.00    +0.000 C 
ATOM     17  C   UNL     1       2.082   1.753  17.967  0.00  0.00    +0.000 C 
ATOM     18  C   UNL     1       1.121   2.829  18.464  0.00  0.00    +0.000 C 
ATOM     19  C   UNL     1       1.248   4.182  17.772  0.00  0.00    +0.000 C 
ENDBRANCH   1  14
BRANCH   1  21
ATOM     20  N   UNL     1       3.276   4.495  21.263  0.00  0.00    +0.000 NA
ATOM     21  C   UNL     1       3.316   4.977  20.098  0.00  0.00    +0.000 C 
ENDBRANCH   1  21
TORSDOF 4
ENDMDL
MODEL 9
REMARK VINA RESULT:      -7.1      0.272      1.080
REMARK  Name = 
REMARK  4 active torsions:
REMARK  status: ('A' for Active; 'I' for Inactive)
REMARK    1  A    between atoms: C_2  and  C_3
REMARK    2  A    between atoms: C_3  and  C_4
REMARK    3  A    between atoms: C_3  and  C_10
REMARK    4  A    between atoms: C_3  and  C_16
REMARK                            x       y       z     vdW  Elec       q    Type
REMARK                         _______ _______ _______ _____ _____    ______ ____
ROOT
ATOM      1  C   UNL     1       3.950   5.403  17.916  0.00  0.00    +0.000 C 
ENDROOT
BRANCH   1   2
ATOM      2  C   UNL     1       3.213   4.032  18.102  0.00  0.00    +0.000 A 
ATOM      3  C   UNL     1       1.814   3.919  17.951  0.00  0.00    +0.000 A 
ATOM      4  C   UNL     1       1.148   2.735  18.276  0.00  0.00    +0.000 A 
ATOM      5  C   UNL     1       1.859   1.623  18.729  0.00  0.00    +0.000 A 
ATOM      6  C   UNL     1       3.244   1.683  18.828  0.00  0.00    +0.000 A 
ATOM      7  C   UNL     1       3.911   2.866  18.505  0.00  0.00    +0.000 A 
ENDBRANCH   1   2
BRANCH   1   8
ATOM      8  C   UNL     1       2.972   6.580  18.396  0.00  0.00    +0.000 A 
ATOM      9  C   UNL     1       2.655   7.713  17.625  0.00  0.00    +0.000 A 
ATOM     10  C   UNL     1       2.086   8.857  18.205  0.00  0.00    +0.000 A 
ATOM     11  C   UNL     1       1.717   8.855  19.543  0.00  0.00    +0.000 A 
ATOM     12  C   UNL     1       1.873   7.698  20.294  0.00  0.00    +0.000 A 
ATOM     13  C   UNL     1       2.492   6.577  19.730  0.00  0.00    +0.000 A 
ENDBRANCH   1   8
BRANCH   1  14
ATOM     14  C   UNL     1       4.428   5.588  16.415  0.00  0.00    +0.000 C 
ATOM     15  C   UNL     1       5.604   6.558  16.151  0.00  0.00    +0.000 C 
ATOM     16  C   UNL     1       6.983   5.970  16.374  0.00  0.00    +0.000 C 
ATOM     17  C   UNL     1       7.209   4.714  15.560  0.00  0.00    +0.000 C 
ATOM     18  C   UNL     1       6.061   3.712  15.632  0.00  0.00    +0.000 C 
ATOM     19  C   UNL     1       4.663   4.320  15.563  0.00  0.00    +0.000 C 
ENDBRANCH   1  14
BRANCH   1  21
ATOM     20  N   UNL     1       5.922   5.498  19.875  0.00  0.00    +0.000 NA
ATOM     21  C   UNL     1       5.028   5.455  18.987  0.00  0.00    +0.000 C 
ENDBRANCH   1  21
TORSDOF 4
ENDMDL
