MODEL 1
REMARK VINA RESULT:      -7.4      0.000      0.000
REMARK  Name = 
REMARK  7 active torsions:
REMARK  status: ('A' for Active; 'I' for Inactive)
REMARK    1  A    between atoms: C_1  and  C_2
REMARK    2  A    between atoms: N_6  and  C_7
REMARK    3  A    between atoms: N_13  and  N_14
REMARK    4  A    between atoms: C_15  and  C_16
REMARK    5  A    between atoms: C_18  and  O_19
REMARK    6  A    between atoms: C_20  and  O_21
REMARK    7  A    between atoms: C_22  and  O_23
REMARK                            x       y       z     vdW  Elec       q    Type
REMARK                         _______ _______ _______ _____ _____    ______ ____
ROOT
ATOM      1  N   UNL     1       2.383   5.612  20.538  0.00  0.00    +0.000 NA
ATOM      2  C   UNL     1       2.081   6.635  19.797  0.00  0.00    +0.000 C 
ENDROOT
BRANCH   1   9
ATOM      3  C   UNL     1       1.078   3.078  21.292  0.00  0.00    +0.000 C 
ATOM      4  C   UNL     1       2.036   3.223  20.161  0.00  0.00    +0.000 A 
ATOM      5  C   UNL     1       2.362   2.179  19.380  0.00  0.00    +0.000 A 
ATOM      6  S   UNL     1       3.517   2.600  18.171  0.00  0.00    +0.000 S 
ATOM      7  C   UNL     1       3.542   4.325  18.719  0.00  0.00    +0.000 A 
ATOM      8  N   UNL     1       4.248   5.247  18.145  0.00  0.00    +0.000 NA
ATOM      9  N   UNL     1       2.680   4.438  19.843  0.00  0.00    +0.000 N 
BRANCH   8  10
ATOM     10  C   UNL     1       5.180   4.863  17.087  0.00  0.00    +0.000 C 
ATOM     11  C   UNL     1       6.627   5.043  17.548  0.00  0.00    +0.000 C 
ATOM     12  C   UNL     1       7.549   4.431  16.489  0.00  0.00    +0.000 C 
ATOM     13  C   UNL     1       7.297   5.004  15.089  0.00  0.00    +0.000 C 
ATOM     14  C   UNL     1       5.815   5.061  14.705  0.00  0.00    +0.000 C 
ATOM     15  C   UNL     1       4.968   5.680  15.813  0.00  0.00    +0.000 C 
ENDBRANCH   8  10
ENDBRANCH   1   9
BRANCH   2  16
ATOM     16  C   UNL     1       1.628   7.945  20.324  0.00  0.00    +0.000 A 
ATOM     17  C   UNL     1       1.389   8.162  21.690  0.00  0.00    +0.000 A 
ATOM     18  C   UNL     1       0.957   9.423  22.108  0.00  0.00    +0.000 A 
ATOM     19  C   UNL     1       0.763  10.446  21.188  0.00  0.00    +0.000 A 
ATOM     20  C   UNL     1       0.997  10.224  19.839  0.00  0.00    +0.000 A 
ATOM     21  C   UNL     1       1.424   8.977  19.396  0.00  0.00    +0.000 A 
BRANCH  18  22
ATOM     22  O   UNL     1       0.706   9.710  23.422  0.00  0.00    +0.000 OA
ATOM     23  H   UNL     1       1.361  10.363  23.724  0.00  0.00    +0.000 HD
ENDBRANCH  18  22
BRANCH  19  24
ATOM     24  O   UNL     1       0.343  11.684  21.586  0.00  0.00    +0.000 OA
ATOM     25  H   UNL     1       0.074  12.125  20.754  0.00  0.00    +0.000 HD
ENDBRANCH  19  24
BRANCH  20  26
ATOM     26  O   UNL     1       0.800  11.223  18.933  0.00  0.00    +0.000 OA
ATOM     27  H   UNL     1       0.175  11.838  19.372  0.00  0.00    +0.000 HD
ENDBRANCH  20  26
ENDBRANCH   2  16
TORSDOF 6
ENDMDL
MODEL 2
REMARK VINA RESULT:      -7.4      0.161      1.693
REMARK  Name = 
REMARK  7 active torsions:
REMARK  status: ('A' for Active; 'I' for Inactive)
REMARK    1  A    between atoms: C_1  and  C_2
REMARK    2  A    between atoms: N_6  and  C_7
REMARK    3  A    between atoms: N_13  and  N_14
REMARK    4  A    between atoms: C_15  and  C_16
REMARK    5  A    between atoms: C_18  and  O_19
REMARK    6  A    between atoms: C_20  and  O_21
REMARK    7  A    between atoms: C_22  and  O_23
REMARK                            x       y       z     vdW  Elec       q    Type
REMARK                         _______ _______ _______ _____ _____    ______ ____
ROOT
ATOM      1  N   UNL     1       2.203   5.604  20.564  0.00  0.00    +0.000 NA
ATOM      2  C   UNL     1       2.164   6.654  19.801  0.00  0.00    +0.000 C 
ENDROOT
BRANCH   1   9
ATOM      3  C   UNL     1       1.111   3.010  21.444  0.00  0.00    +0.000 C 
ATOM      4  C   UNL     1       2.066   3.176  20.314  0.00  0.00    +0.000 A 
ATOM      5  C   UNL     1       2.489   2.124  19.593  0.00  0.00    +0.000 A 
ATOM      6  S   UNL     1       3.617   2.578  18.371  0.00  0.00    +0.000 S 
ATOM      7  C   UNL     1       3.489   4.326  18.825  0.00  0.00    +0.000 A 
ATOM      8  N   UNL     1       4.119   5.273  18.206  0.00  0.00    +0.000 NA
ATOM      9  N   UNL     1       2.607   4.424  19.935  0.00  0.00    +0.000 N 
BRANCH   8  10
ATOM     10  C   UNL     1       5.093   4.914  17.177  0.00  0.00    +0.000 C 
ATOM     11  C   UNL     1       6.519   5.018  17.720  0.00  0.00    +0.000 C 
ATOM     12  C   UNL     1       7.475   4.433  16.677  0.00  0.00    +0.000 C 
ATOM     13  C   UNL     1       7.316   5.089  15.301  0.00  0.00    +0.000 C 
ATOM     14  C   UNL     1       5.859   5.220  14.846  0.00  0.00    +0.000 C 
ATOM     15  C   UNL     1       4.975   5.807  15.943  0.00  0.00    +0.000 C 
ENDBRANCH   8  10
ENDBRANCH   1   9
BRANCH   2  16
ATOM     16  C   UNL     1       1.661   7.981  20.231  0.00  0.00    +0.000 A 
ATOM     17  C   UNL     1       1.385   9.011  19.318  0.00  0.00    +0.000 A 
ATOM     18  C   UNL     1       0.920  10.235  19.802  0.00  0.00    +0.000 A 
ATOM     19  C   UNL     1       0.737  10.435  21.164  0.00  0.00    +0.000 A 
ATOM     20  C   UNL     1       1.016   9.416  22.062  0.00  0.00    +0.000 A 
ATOM     21  C   UNL     1       1.483   8.187  21.607  0.00  0.00    +0.000 A 
BRANCH  18  22
ATOM     22  O   UNL     1       0.627  11.284  18.973  0.00  0.00    +0.000 OA
ATOM     23  H   UNL     1       1.453  11.590  18.560  0.00  0.00    +0.000 HD
ENDBRANCH  18  22
BRANCH  19  24
ATOM     24  O   UNL     1       0.281  11.629  21.649  0.00  0.00    +0.000 OA
ATOM     25  H   UNL     1      -0.466  11.382  22.232  0.00  0.00    +0.000 HD
ENDBRANCH  19  24
BRANCH  20  26
ATOM     26  O   UNL     1       0.845   9.611  23.400  0.00  0.00    +0.000 OA
ATOM     27  H   UNL     1       0.794   8.708  23.779  0.00  0.00    +0.000 HD
ENDBRANCH  20  26
ENDBRANCH   2  16
TORSDOF 6
ENDMDL
MODEL 3
REMARK VINA RESULT:      -6.8      1.009      1.171
REMARK  Name = 
REMARK  7 active torsions:
REMARK  status: ('A' for Active; 'I' for Inactive)
REMARK    1  A    between atoms: C_1  and  C_2
REMARK    2  A    between atoms: N_6  and  C_7
REMARK    3  A    between atoms: N_13  and  N_14
REMARK    4  A    between atoms: C_15  and  C_16
REMARK    5  A    between atoms: C_18  and  O_19
REMARK    6  A    between atoms: C_20  and  O_21
REMARK    7  A    between atoms: C_22  and  O_23
REMARK                            x       y       z     vdW  Elec       q    Type
REMARK                         _______ _______ _______ _____ _____    ______ ____
ROOT
ATOM      1  N   UNL     1       1.794   5.421  19.373  0.00  0.00    +0.000 NA
ATOM      2  C   UNL     1       2.512   6.495  19.244  0.00  0.00    +0.000 C 
ENDROOT
BRANCH   1   9
ATOM      3  C   UNL     1       1.036   2.918  20.737  0.00  0.00    +0.000 C 
ATOM      4  C   UNL     1       2.070   3.010  19.669  0.00  0.00    +0.000 A 
ATOM      5  C   UNL     1       2.729   1.922  19.236  0.00  0.00    +0.000 A 
ATOM      6  S   UNL     1       3.897   2.302  18.026  0.00  0.00    +0.000 S 
ATOM      7  C   UNL     1       3.446   4.055  18.064  0.00  0.00    +0.000 A 
ATOM      8  N   UNL     1       3.983   4.947  17.294  0.00  0.00    +0.000 NA
ATOM      9  N   UNL     1       2.446   4.226  19.058  0.00  0.00    +0.000 N 
BRANCH   8  10
ATOM     10  C   UNL     1       5.107   4.558  16.444  0.00  0.00    +0.000 C 
ATOM     11  C   UNL     1       6.313   5.465  16.693  0.00  0.00    +0.000 C 
ATOM     12  C   UNL     1       7.514   4.885  15.940  0.00  0.00    +0.000 C 
ATOM     13  C   UNL     1       7.227   4.677  14.448  0.00  0.00    +0.000 C 
ATOM     14  C   UNL     1       5.890   3.984  14.170  0.00  0.00    +0.000 C 
ATOM     15  C   UNL     1       4.749   4.620  14.960  0.00  0.00    +0.000 C 
ENDBRANCH   8  10
ENDBRANCH   1   9
BRANCH   2  16
ATOM     16  C   UNL     1       1.993   7.873  19.419  0.00  0.00    +0.000 A 
ATOM     17  C   UNL     1       1.288   8.270  20.567  0.00  0.00    +0.000 A 
ATOM     18  C   UNL     1       0.826   9.584  20.654  0.00  0.00    +0.000 A 
ATOM     19  C   UNL     1       1.054  10.485  19.621  0.00  0.00    +0.000 A 
ATOM     20  C   UNL     1       1.746  10.086  18.488  0.00  0.00    +0.000 A 
ATOM     21  C   UNL     1       2.215   8.782  18.374  0.00  0.00    +0.000 A 
BRANCH  18  22
ATOM     22  O   UNL     1       0.135  10.045  21.742  0.00  0.00    +0.000 OA
ATOM     23  H   UNL     1      -0.778   9.713  21.689  0.00  0.00    +0.000 HD
ENDBRANCH  18  22
BRANCH  19  24
ATOM     24  O   UNL     1       0.607  11.775  19.697  0.00  0.00    +0.000 OA
ATOM     25  H   UNL     1       0.804  12.044  20.618  0.00  0.00    +0.000 HD
ENDBRANCH  19  24
BRANCH  20  26
ATOM     26  O   UNL     1       1.965  10.966  17.470  0.00  0.00    +0.000 OA
ATOM     27  H   UNL     1       2.927  11.149  17.501  0.00  0.00    +0.000 HD
ENDBRANCH  20  26
ENDBRANCH   2  16
TORSDOF 6
ENDMDL
MODEL 4
REMARK VINA RESULT:      -6.7      1.253      2.196
REMARK  Name = 
REMARK  7 active torsions:
REMARK  status: ('A' for Active; 'I' for Inactive)
REMARK    1  A    between atoms: C_1  and  C_2
REMARK    2  A    between atoms: N_6  and  C_7
REMARK    3  A    between atoms: N_13  and  N_14
REMARK    4  A    between atoms: C_15  and  C_16
REMARK    5  A    between atoms: C_18  and  O_19
REMARK    6  A    between atoms: C_20  and  O_21
REMARK    7  A    between atoms: C_22  and  O_23
REMARK                            x       y       z     vdW  Elec       q    Type
REMARK                         _______ _______ _______ _____ _____    ______ ____
ROOT
ATOM      1  N   UNL     1       2.358   6.418  19.481  0.00  0.00    +0.000 NA
ATOM      2  C   UNL     1       2.315   7.325  18.552  0.00  0.00    +0.000 C 
ENDROOT
BRANCH   1   9
ATOM      3  C   UNL     1       0.966   4.091  20.641  0.00  0.00    +0.000 C 
ATOM      4  C   UNL     1       1.984   4.004  19.557  0.00  0.00    +0.000 A 
ATOM      5  C   UNL     1       2.329   2.825  19.012  0.00  0.00    +0.000 A 
ATOM      6  S   UNL     1       3.551   2.993  17.808  0.00  0.00    +0.000 S 
ATOM      7  C   UNL     1       3.583   4.791  18.012  0.00  0.00    +0.000 A 
ATOM      8  N   UNL     1       4.334   5.576  17.308  0.00  0.00    +0.000 NA
ATOM      9  N   UNL     1       2.667   5.128  19.045  0.00  0.00    +0.000 N 
BRANCH   8  10
ATOM     10  C   UNL     1       5.312   4.985  16.397  0.00  0.00    +0.000 C 
ATOM     11  C   UNL     1       6.655   5.710  16.497  0.00  0.00    +0.000 C 
ATOM     12  C   UNL     1       7.689   4.922  15.687  0.00  0.00    +0.000 C 
ATOM     13  C   UNL     1       7.246   4.692  14.237  0.00  0.00    +0.000 C 
ATOM     14  C   UNL     1       5.803   4.196  14.105  0.00  0.00    +0.000 C 
ATOM     15  C   UNL     1       4.840   5.031  14.944  0.00  0.00    +0.000 C 
ENDBRANCH   8  10
ENDBRANCH   1   9
BRANCH   2  16
ATOM     16  C   UNL     1       1.902   8.731  18.774  0.00  0.00    +0.000 A 
ATOM     17  C   UNL     1       2.320   9.777  17.937  0.00  0.00    +0.000 A 
ATOM     18  C   UNL     1       1.892  11.077  18.216  0.00  0.00    +0.000 A 
ATOM     19  C   UNL     1       1.070  11.333  19.306  0.00  0.00    +0.000 A 
ATOM     20  C   UNL     1       0.664  10.296  20.133  0.00  0.00    +0.000 A 
ATOM     21  C   UNL     1       1.077   8.993  19.879  0.00  0.00    +0.000 A 
BRANCH  18  22
ATOM     22  O   UNL     1       2.256  12.147  17.444  0.00  0.00    +0.000 OA
ATOM     23  H   UNL     1       1.772  12.930  17.758  0.00  0.00    +0.000 HD
ENDBRANCH  18  22
BRANCH  19  24
ATOM     24  O   UNL     1       0.644  12.602  19.588  0.00  0.00    +0.000 OA
ATOM     25  H   UNL     1       1.114  13.163  18.939  0.00  0.00    +0.000 HD
ENDBRANCH  19  24
BRANCH  20  26
ATOM     26  O   UNL     1      -0.136  10.545  21.208  0.00  0.00    +0.000 OA
ATOM     27  H   UNL     1       0.468  10.520  21.979  0.00  0.00    +0.000 HD
ENDBRANCH  20  26
ENDBRANCH   2  16
TORSDOF 6
ENDMDL
MODEL 5
REMARK VINA RESULT:      -6.6      5.049      8.293
REMARK  Name = 
REMARK  7 active torsions:
REMARK  status: ('A' for Active; 'I' for Inactive)
REMARK    1  A    between atoms: C_1  and  C_2
REMARK    2  A    between atoms: N_6  and  C_7
REMARK    3  A    between atoms: N_13  and  N_14
REMARK    4  A    between atoms: C_15  and  C_16
REMARK    5  A    between atoms: C_18  and  O_19
REMARK    6  A    between atoms: C_20  and  O_21
REMARK    7  A    between atoms: C_22  and  O_23
REMARK                            x       y       z     vdW  Elec       q    Type
REMARK                         _______ _______ _______ _____ _____    ______ ____
ROOT
ATOM      1  N   UNL     1       0.793   9.655  19.092  0.00  0.00    +0.000 NA
ATOM      2  C   UNL     1       1.650   9.188  18.235  0.00  0.00    +0.000 C 
ENDROOT
BRANCH   1   9
ATOM      3  C   UNL     1      -1.928   9.819  17.968  0.00  0.00    +0.000 C 
ATOM      4  C   UNL     1      -1.074  11.001  18.270  0.00  0.00    +0.000 A 
ATOM      5  C   UNL     1      -1.510  12.255  18.057  0.00  0.00    +0.000 A 
ATOM      6  S   UNL     1      -0.319  13.438  18.449  0.00  0.00    +0.000 S 
ATOM      7  C   UNL     1       0.850  12.164  18.983  0.00  0.00    +0.000 A 
ATOM      8  N   UNL     1       2.023  12.428  19.464  0.00  0.00    +0.000 NA
ATOM      9  N   UNL     1       0.242  10.898  18.770  0.00  0.00    +0.000 N 
BRANCH   8  10
ATOM     10  C   UNL     1       2.493  13.812  19.453  0.00  0.00    +0.000 C 
ATOM     11  C   UNL     1       3.394  14.069  18.244  0.00  0.00    +0.000 C 
ATOM     12  C   UNL     1       3.681  15.571  18.168  0.00  0.00    +0.000 C 
ATOM     13  C   UNL     1       4.267  16.123  19.473  0.00  0.00    +0.000 C 
ATOM     14  C   UNL     1       3.516  15.668  20.727  0.00  0.00    +0.000 C 
ATOM     15  C   UNL     1       3.269  14.162  20.722  0.00  0.00    +0.000 C 
ENDBRANCH   8  10
ENDBRANCH   1   9
BRANCH   2  16
ATOM     16  C   UNL     1       2.434   7.945  18.429  0.00  0.00    +0.000 A 
ATOM     17  C   UNL     1       3.397   7.513  17.504  0.00  0.00    +0.000 A 
ATOM     18  C   UNL     1       4.090   6.327  17.756  0.00  0.00    +0.000 A 
ATOM     19  C   UNL     1       3.829   5.582  18.899  0.00  0.00    +0.000 A 
ATOM     20  C   UNL     1       2.872   6.012  19.807  0.00  0.00    +0.000 A 
ATOM     21  C   UNL     1       2.166   7.188  19.580  0.00  0.00    +0.000 A 
BRANCH  18  22
ATOM     22  O   UNL     1       5.045   5.844  16.903  0.00  0.00    +0.000 OA
ATOM     23  H   UNL     1       5.573   5.178  17.377  0.00  0.00    +0.000 HD
ENDBRANCH  18  22
BRANCH  19  24
ATOM     24  O   UNL     1       4.502   4.421  19.157  0.00  0.00    +0.000 OA
ATOM     25  H   UNL     1       3.999   3.738  18.668  0.00  0.00    +0.000 HD
ENDBRANCH  19  24
BRANCH  20  26
ATOM     26  O   UNL     1       2.608   5.280  20.926  0.00  0.00    +0.000 OA
ATOM     27  H   UNL     1       1.641   5.120  20.896  0.00  0.00    +0.000 HD
ENDBRANCH  20  26
ENDBRANCH   2  16
TORSDOF 6
ENDMDL
MODEL 6
REMARK VINA RESULT:      -6.5      5.075      8.168
REMARK  Name = 
REMARK  7 active torsions:
REMARK  status: ('A' for Active; 'I' for Inactive)
REMARK    1  A    between atoms: C_1  and  C_2
REMARK    2  A    between atoms: N_6  and  C_7
REMARK    3  A    between atoms: N_13  and  N_14
REMARK    4  A    between atoms: C_15  and  C_16
REMARK    5  A    between atoms: C_18  and  O_19
REMARK    6  A    between atoms: C_20  and  O_21
REMARK    7  A    between atoms: C_22  and  O_23
REMARK                            x       y       z     vdW  Elec       q    Type
REMARK                         _______ _______ _______ _____ _____    ______ ____
ROOT
ATOM      1  N   UNL     1       0.777   9.714  19.149  0.00  0.00    +0.000 NA
ATOM      2  C   UNL     1       1.610   9.220  18.284  0.00  0.00    +0.000 C 
ENDROOT
BRANCH   1   9
ATOM      3  C   UNL     1      -1.949   9.909  18.041  0.00  0.00    +0.000 C 
ATOM      4  C   UNL     1      -1.075  11.080  18.326  0.00  0.00    +0.000 A 
ATOM      5  C   UNL     1      -1.494  12.338  18.105  0.00  0.00    +0.000 A 
ATOM      6  S   UNL     1      -0.283  13.507  18.479  0.00  0.00    +0.000 S 
ATOM      7  C   UNL     1       0.871  12.221  19.017  0.00  0.00    +0.000 A 
ATOM      8  N   UNL     1       2.051  12.471  19.488  0.00  0.00    +0.000 NA
ATOM      9  N   UNL     1       0.242  10.962  18.819  0.00  0.00    +0.000 N 
BRANCH   8  10
ATOM     10  C   UNL     1       2.541  13.848  19.462  0.00  0.00    +0.000 C 
ATOM     11  C   UNL     1       3.446  14.077  18.250  0.00  0.00    +0.000 C 
ATOM     12  C   UNL     1       3.755  15.575  18.157  0.00  0.00    +0.000 C 
ATOM     13  C   UNL     1       4.350  16.133  19.455  0.00  0.00    +0.000 C 
ATOM     14  C   UNL     1       3.591  15.703  20.715  0.00  0.00    +0.000 C 
ATOM     15  C   UNL     1       3.321  14.201  20.727  0.00  0.00    +0.000 C 
ENDBRANCH   8  10
ENDBRANCH   1   9
BRANCH   2  16
ATOM     16  C   UNL     1       2.375   7.966  18.483  0.00  0.00    +0.000 A 
ATOM     17  C   UNL     1       2.192   7.144  19.606  0.00  0.00    +0.000 A 
ATOM     18  C   UNL     1       2.956   5.982  19.724  0.00  0.00    +0.000 A 
ATOM     19  C   UNL     1       3.887   5.644  18.750  0.00  0.00    +0.000 A 
ATOM     20  C   UNL     1       4.068   6.462  17.644  0.00  0.00    +0.000 A 
ATOM     21  C   UNL     1       3.321   7.626  17.504  0.00  0.00    +0.000 A 
BRANCH  18  22
ATOM     22  O   UNL     1       2.831   5.130  20.788  0.00  0.00    +0.000 OA
ATOM     23  H   UNL     1       3.085   4.237  20.499  0.00  0.00    +0.000 HD
ENDBRANCH  18  22
BRANCH  19  24
ATOM     24  O   UNL     1       4.639   4.507  18.854  0.00  0.00    +0.000 OA
ATOM     25  H   UNL     1       5.515   4.765  18.501  0.00  0.00    +0.000 HD
ENDBRANCH  19  24
BRANCH  20  26
ATOM     26  O   UNL     1       4.985   6.137  16.690  0.00  0.00    +0.000 OA
ATOM     27  H   UNL     1       5.059   6.940  16.132  0.00  0.00    +0.000 HD
ENDBRANCH  20  26
ENDBRANCH   2  16
TORSDOF 6
ENDMDL
MODEL 7
REMARK VINA RESULT:      -6.5      4.530      7.880
REMARK  Name = 
REMARK  7 active torsions:
REMARK  status: ('A' for Active; 'I' for Inactive)
REMARK    1  A    between atoms: C_1  and  C_2
REMARK    2  A    between atoms: N_6  and  C_7
REMARK    3  A    between atoms: N_13  and  N_14
REMARK    4  A    between atoms: C_15  and  C_16
REMARK    5  A    between atoms: C_18  and  O_19
REMARK    6  A    between atoms: C_20  and  O_21
REMARK    7  A    between atoms: C_22  and  O_23
REMARK                            x       y       z     vdW  Elec       q    Type
REMARK                         _______ _______ _______ _____ _____    ______ ____
ROOT
ATOM      1  N   UNL     1       4.846   4.296  17.678  0.00  0.00    +0.000 NA
ATOM      2  C   UNL     1       4.413   4.280  16.454  0.00  0.00    +0.000 C 
ENDROOT
BRANCH   1   9
ATOM      3  C   UNL     1       4.401   1.998  19.472  0.00  0.00    +0.000 C 
ATOM      4  C   UNL     1       3.654   3.284  19.556  0.00  0.00    +0.000 A 
ATOM      5  C   UNL     1       2.714   3.488  20.495  0.00  0.00    +0.000 A 
ATOM      6  S   UNL     1       1.973   5.039  20.353  0.00  0.00    +0.000 S 
ATOM      7  C   UNL     1       3.030   5.476  18.950  0.00  0.00    +0.000 A 
ATOM      8  N   UNL     1       2.989   6.626  18.357  0.00  0.00    +0.000 NA
ATOM      9  N   UNL     1       3.855   4.356  18.661  0.00  0.00    +0.000 N 
BRANCH   8  10
ATOM     10  C   UNL     1       1.948   7.579  18.739  0.00  0.00    +0.000 C 
ATOM     11  C   UNL     1       1.988   8.815  17.838  0.00  0.00    +0.000 C 
ATOM     12  C   UNL     1       0.755   9.671  18.142  0.00  0.00    +0.000 C 
ATOM     13  C   UNL     1       0.638  10.025  19.629  0.00  0.00    +0.000 C 
ATOM     14  C   UNL     1       0.845   8.829  20.564  0.00  0.00    +0.000 C 
ATOM     15  C   UNL     1       2.090   8.029  20.192  0.00  0.00    +0.000 C 
ENDBRANCH   8  10
ENDBRANCH   1   9
BRANCH   2  16
ATOM     16  C   UNL     1       5.288   4.328  15.257  0.00  0.00    +0.000 A 
ATOM     17  C   UNL     1       6.477   5.072  15.227  0.00  0.00    +0.000 A 
ATOM     18  C   UNL     1       7.244   5.072  14.059  0.00  0.00    +0.000 A 
ATOM     19  C   UNL     1       6.835   4.352  12.944  0.00  0.00    +0.000 A 
ATOM     20  C   UNL     1       5.656   3.622  12.978  0.00  0.00    +0.000 A 
ATOM     21  C   UNL     1       4.873   3.607  14.127  0.00  0.00    +0.000 A 
BRANCH  18  22
ATOM     22  O   UNL     1       8.416   5.770  13.955  0.00  0.00    +0.000 OA
ATOM     23  H   UNL     1       8.543   6.282  14.773  0.00  0.00    +0.000 HD
ENDBRANCH  18  22
BRANCH  19  24
ATOM     24  O   UNL     1       7.578   4.343  11.796  0.00  0.00    +0.000 OA
ATOM     25  H   UNL     1       7.466   5.244  11.430  0.00  0.00    +0.000 HD
ENDBRANCH  19  24
BRANCH  20  26
ATOM     26  O   UNL     1       5.248   2.921  11.883  0.00  0.00    +0.000 OA
ATOM     27  H   UNL     1       4.962   2.052  12.236  0.00  0.00    +0.000 HD
ENDBRANCH  20  26
ENDBRANCH   2  16
TORSDOF 6
ENDMDL
MODEL 8
REMARK VINA RESULT:      -6.4      2.334      3.222
REMARK  Name = 
REMARK  7 active torsions:
REMARK  status: ('A' for Active; 'I' for Inactive)
REMARK    1  A    between atoms: C_1  and  C_2
REMARK    2  A    between atoms: N_6  and  C_7
REMARK    3  A    between atoms: N_13  and  N_14
REMARK    4  A    between atoms: C_15  and  C_16
REMARK    5  A    between atoms: C_18  and  O_19
REMARK    6  A    between atoms: C_20  and  O_21
REMARK    7  A    between atoms: C_22  and  O_23
REMARK                            x       y       z     vdW  Elec       q    Type
REMARK                         _______ _______ _______ _____ _____    ______ ____
ROOT
ATOM      1  N   UNL     1       2.238   8.678  19.089  0.00  0.00    +0.000 NA
ATOM      2  C   UNL     1       1.019   8.952  18.735  0.00  0.00    +0.000 C 
ENDROOT
BRANCH   1   9
ATOM      3  C   UNL     1       0.932   7.209  21.288  0.00  0.00    +0.000 C 
ATOM      4  C   UNL     1       1.868   6.591  20.307  0.00  0.00    +0.000 A 
ATOM      5  C   UNL     1       2.171   5.283  20.355  0.00  0.00    +0.000 A 
ATOM      6  S   UNL     1       3.303   4.828  19.138  0.00  0.00    +0.000 S 
ATOM      7  C   UNL     1       3.352   6.511  18.475  0.00  0.00    +0.000 A 
ATOM      8  N   UNL     1       4.051   6.852  17.440  0.00  0.00    +0.000 NA
ATOM      9  N   UNL     1       2.513   7.323  19.287  0.00  0.00    +0.000 N 
BRANCH   8  10
ATOM     10  C   UNL     1       4.959   5.870  16.850  0.00  0.00    +0.000 C 
ATOM     11  C   UNL     1       6.343   5.955  17.496  0.00  0.00    +0.000 C 
ATOM     12  C   UNL     1       7.181   4.775  16.995  0.00  0.00    +0.000 C 
ATOM     13  C   UNL     1       7.244   4.708  15.465  0.00  0.00    +0.000 C 
ATOM     14  C   UNL     1       5.882   4.872  14.785  0.00  0.00    +0.000 C 
ATOM     15  C   UNL     1       5.112   6.066  15.343  0.00  0.00    +0.000 C 
ENDBRANCH   8  10
ENDBRANCH   1   9
BRANCH   2  16
ATOM     16  C   UNL     1       0.482  10.325  18.579  0.00  0.00    +0.000 A 
ATOM     17  C   UNL     1      -0.860  10.573  18.254  0.00  0.00    +0.000 A 
ATOM     18  C   UNL     1      -1.288  11.895  18.119  0.00  0.00    +0.000 A 
ATOM     19  C   UNL     1      -0.401  12.949  18.297  0.00  0.00    +0.000 A 
ATOM     20  C   UNL     1       0.926  12.698  18.613  0.00  0.00    +0.000 A 
ATOM     21  C   UNL     1       1.379  11.390  18.751  0.00  0.00    +0.000 A 
BRANCH  18  22
ATOM     22  O   UNL     1      -2.582  12.216  17.807  0.00  0.00    +0.000 OA
ATOM     23  H   UNL     1      -2.579  13.045  17.299  0.00  0.00    +0.000 HD
ENDBRANCH  18  22
BRANCH  19  24
ATOM     24  O   UNL     1      -0.809  14.247  18.168  0.00  0.00    +0.000 OA
ATOM     25  H   UNL     1      -0.685  14.445  17.217  0.00  0.00    +0.000 HD
ENDBRANCH  19  24
BRANCH  20  26
ATOM     26  O   UNL     1       1.801  13.729  18.781  0.00  0.00    +0.000 OA
ATOM     27  H   UNL     1       1.589  14.093  19.666  0.00  0.00    +0.000 HD
ENDBRANCH  20  26
ENDBRANCH   2  16
TORSDOF 6
ENDMDL
MODEL 9
REMARK VINA RESULT:      -6.4      0.900      2.088
REMARK  Name = 
REMARK  7 active torsions:
REMARK  status: ('A' for Active; 'I' for Inactive)
REMARK    1  A    between atoms: C_1  and  C_2
REMARK    2  A    between atoms: N_6  and  C_7
REMARK    3  A    between atoms: N_13  and  N_14
REMARK    4  A    between atoms: C_15  and  C_16
REMARK    5  A    between atoms: C_18  and  O_19
REMARK    6  A    between atoms: C_20  and  O_21
REMARK    7  A    between atoms: C_22  and  O_23
REMARK                            x       y       z     vdW  Elec       q    Type
REMARK                         _______ _______ _______ _____ _____    ______ ____
ROOT
ATOM      1  N   UNL     1       1.693   5.906  20.125  0.00  0.00    +0.000 NA
ATOM      2  C   UNL     1       2.208   7.076  20.354  0.00  0.00    +0.000 C 
ENDROOT
BRANCH   1   9
ATOM      3  C   UNL     1       1.810   3.414  21.697  0.00  0.00    +0.000 C 
ATOM      4  C   UNL     1       2.652   3.689  20.500  0.00  0.00    +0.000 A 
ATOM      5  C   UNL     1       3.532   2.784  20.039  0.00  0.00    +0.000 A 
ATOM      6  S   UNL     1       4.407   3.360  18.670  0.00  0.00    +0.000 S 
ATOM      7  C   UNL     1       3.499   4.926  18.680  0.00  0.00    +0.000 A 
ATOM      8  N   UNL     1       3.680   5.862  17.803  0.00  0.00    +0.000 NA
ATOM      9  N   UNL     1       2.608   4.906  19.786  0.00  0.00    +0.000 N 
BRANCH   8  10
ATOM     10  C   UNL     1       4.765   5.719  16.834  0.00  0.00    +0.000 C 
ATOM     11  C   UNL     1       4.636   4.401  16.068  0.00  0.00    +0.000 C 
ATOM     12  C   UNL     1       5.663   4.403  14.932  0.00  0.00    +0.000 C 
ATOM     13  C   UNL     1       7.090   4.661  15.431  0.00  0.00    +0.000 C 
ATOM     14  C   UNL     1       7.197   5.838  16.406  0.00  0.00    +0.000 C 
ATOM     15  C   UNL     1       6.138   5.762  17.502  0.00  0.00    +0.000 C 
ENDBRANCH   8  10
ENDBRANCH   1   9
BRANCH   2  16
ATOM     16  C   UNL     1       1.415   8.300  20.620  0.00  0.00    +0.000 A 
ATOM     17  C   UNL     1       1.003   9.165  19.595  0.00  0.00    +0.000 A 
ATOM     18  C   UNL     1       0.264  10.302  19.927  0.00  0.00    +0.000 A 
ATOM     19  C   UNL     1      -0.054  10.578  21.251  0.00  0.00    +0.000 A 
ATOM     20  C   UNL     1       0.360   9.723  22.261  0.00  0.00    +0.000 A 
ATOM     21  C   UNL     1       1.099   8.584  21.957  0.00  0.00    +0.000 A 
BRANCH  18  22
ATOM     22  O   UNL     1      -0.176  11.190  18.983  0.00  0.00    +0.000 OA
ATOM     23  H   UNL     1      -0.779  11.821  19.411  0.00  0.00    +0.000 HD
ENDBRANCH  18  22
BRANCH  19  24
ATOM     24  O   UNL     1      -0.779  11.688  21.588  0.00  0.00    +0.000 OA
ATOM     25  H   UNL     1      -1.678  11.343  21.764  0.00  0.00    +0.000 HD
ENDBRANCH  19  24
BRANCH  20  26
ATOM     26  O   UNL     1       0.056   9.994  23.561  0.00  0.00    +0.000 OA
ATOM     27  H   UNL     1       0.565   9.334  24.079  0.00  0.00    +0.000 HD
ENDBRANCH  20  26
ENDBRANCH   2  16
TORSDOF 6
ENDMDL
