MODEL 1
REMARK VINA RESULT:      -8.0      0.000      0.000
REMARK  Name = 
REMARK  9 active torsions:
REMARK  status: ('A' for Active; 'I' for Inactive)
REMARK    1  A    between atoms: C_1  and  C_2
REMARK    2  A    between atoms: C_2  and  N_3
REMARK    3  A    between atoms: C_2  and  C_24
REMARK    4  A    between atoms: C_4  and  C_6
REMARK    5  A    between atoms: N_12  and  C_13
REMARK    6  A    between atoms: C_13  and  C_14
REMARK    7  A    between atoms: C_17  and  C_18
REMARK    8  A    between atoms: C_27  and  C_28
REMARK    9  A    between atoms: C_28  and  O_30
REMARK                            x       y       z     vdW  Elec       q    Type
REMARK                         _______ _______ _______ _____ _____    ______ ____
ROOT
ATOM      1  C   UNL     1       1.870   3.839  19.106  0.00  0.00    +0.000 A 
ATOM      2  C   UNL     1       0.812   3.686  20.040  0.00  0.00    +0.000 A 
ATOM      3  C   UNL     1       0.985   3.190  21.331  0.00  0.00    +0.000 A 
ATOM      4  C   UNL     1       2.201   2.658  21.679  0.00  0.00    +0.000 A 
ATOM      5  C   UNL     1       3.189   2.620  20.704  0.00  0.00    +0.000 A 
ATOM      6  C   UNL     1       3.089   3.196  19.403  0.00  0.00    +0.000 A 
ATOM      7  N   UNL     1       4.279   2.926  18.729  0.00  0.00    +0.000 N 
ATOM      8  C   UNL     1       5.255   2.415  19.704  0.00  0.00    +0.000 C 
ATOM      9  C   UNL     1       4.465   1.864  20.873  0.00  0.00    +0.000 C 
ENDROOT
BRANCH   1  11
ATOM     10  N   UNL     1       1.663   6.061  17.889  0.00  0.00    +0.000 N 
ATOM     11  C   UNL     1       1.487   4.661  17.900  0.00  0.00    +0.000 C 
ATOM     12  O   UNL     1       0.960   4.140  16.906  0.00  0.00    +0.000 OA
ATOM     13  H   UNL     1       1.258   6.483  17.060  0.00  0.00    +0.000 HD
BRANCH  10  15
ATOM     14  C   UNL     1       3.544   7.685  17.775  0.00  0.00    +0.000 C 
ATOM     15  C   UNL     1       2.543   6.964  18.688  0.00  0.00    +0.000 C 
BRANCH  15  16
ATOM     16  C   UNL     1       1.799   7.964  19.597  0.00  0.00    +0.000 A 
ATOM     17  C   UNL     1       1.511   7.718  20.950  0.00  0.00    +0.000 A 
ATOM     18  C   UNL     1       0.852   8.680  21.742  0.00  0.00    +0.000 A 
ATOM     19  C   UNL     1       0.461   9.909  21.203  0.00  0.00    +0.000 A 
ATOM     20  C   UNL     1       0.775  10.193  19.872  0.00  0.00    +0.000 A 
ATOM     21  C   UNL     1       1.433   9.232  19.087  0.00  0.00    +0.000 A 
BRANCH  19  22
ATOM     22  C   UNL     1      -0.223  10.898  22.085  0.00  0.00    +0.000 C 
ATOM     23  O   UNL     1      -0.700  11.935  21.663  0.00  0.00    +0.000 OA
BRANCH  22  24
ATOM     24  O   UNL     1      -0.232  10.560  23.389  0.00  0.00    +0.000 OA
ATOM     25  H   UNL     1      -0.221   9.604  23.577  0.00  0.00    +0.000 HD
ENDBRANCH  22  24
ENDBRANCH  19  22
ENDBRANCH  15  16
ENDBRANCH  10  15
ENDBRANCH   1  11
BRANCH   7  26
ATOM     26  C   UNL     1       4.806   3.267  17.416  0.00  0.00    +0.000 C 
BRANCH  26  27
ATOM     27  C   UNL     1       5.791   4.421  17.402  0.00  0.00    +0.000 A 
ATOM     28  C   UNL     1       6.301   4.856  18.638  0.00  0.00    +0.000 A 
ATOM     29  C   UNL     1       7.032   6.039  18.734  0.00  0.00    +0.000 A 
ATOM     30  C   UNL     1       7.294   6.786  17.584  0.00  0.00    +0.000 A 
ATOM     31  C   UNL     1       6.952   6.270  16.332  0.00  0.00    +0.000 A 
ATOM     32  C   UNL     1       6.213   5.083  16.241  0.00  0.00    +0.000 A 
BRANCH  30  33
ATOM     33  C   UNL     1       7.825   8.111  17.707  0.00  0.00    +0.000 C 
ATOM     34  N   UNL     1       8.238   9.185  17.862  0.00  0.00    +0.000 NA
ENDBRANCH  30  33
ENDBRANCH  26  27
ENDBRANCH   7  26
TORSDOF 8
ENDMDL
MODEL 2
REMARK VINA RESULT:      -8.0      0.122      1.025
REMARK  Name = 
REMARK  9 active torsions:
REMARK  status: ('A' for Active; 'I' for Inactive)
REMARK    1  A    between atoms: C_1  and  C_2
REMARK    2  A    between atoms: C_2  and  N_3
REMARK    3  A    between atoms: C_2  and  C_24
REMARK    4  A    between atoms: C_4  and  C_6
REMARK    5  A    between atoms: N_12  and  C_13
REMARK    6  A    between atoms: C_13  and  C_14
REMARK    7  A    between atoms: C_17  and  C_18
REMARK    8  A    between atoms: C_27  and  C_28
REMARK    9  A    between atoms: C_28  and  O_30
REMARK                            x       y       z     vdW  Elec       q    Type
REMARK                         _______ _______ _______ _____ _____    ______ ____
ROOT
ATOM      1  C   UNL     1       1.873   3.893  19.098  0.00  0.00    +0.000 A 
ATOM      2  C   UNL     1       0.827   3.740  20.046  0.00  0.00    +0.000 A 
ATOM      3  C   UNL     1       1.015   3.234  21.331  0.00  0.00    +0.000 A 
ATOM      4  C   UNL     1       2.233   2.694  21.659  0.00  0.00    +0.000 A 
ATOM      5  C   UNL     1       3.207   2.656  20.670  0.00  0.00    +0.000 A 
ATOM      6  C   UNL     1       3.093   3.241  19.374  0.00  0.00    +0.000 A 
ATOM      7  N   UNL     1       4.272   2.969  18.682  0.00  0.00    +0.000 N 
ATOM      8  C   UNL     1       5.258   2.446  19.641  0.00  0.00    +0.000 C 
ATOM      9  C   UNL     1       4.481   1.892  20.817  0.00  0.00    +0.000 C 
ENDROOT
BRANCH   1  11
ATOM     10  N   UNL     1       1.660   6.124  17.900  0.00  0.00    +0.000 N 
ATOM     11  C   UNL     1       1.478   4.725  17.903  0.00  0.00    +0.000 C 
ATOM     12  O   UNL     1       0.937   4.212  16.912  0.00  0.00    +0.000 OA
ATOM     13  H   UNL     1       1.247   6.554  17.078  0.00  0.00    +0.000 HD
BRANCH  10  15
ATOM     14  C   UNL     1       3.596   7.682  17.783  0.00  0.00    +0.000 C 
ATOM     15  C   UNL     1       2.554   7.018  18.693  0.00  0.00    +0.000 C 
BRANCH  15  16
ATOM     16  C   UNL     1       1.826   8.064  19.562  0.00  0.00    +0.000 A 
ATOM     17  C   UNL     1       1.372   9.300  19.073  0.00  0.00    +0.000 A 
ATOM     18  C   UNL     1       0.687  10.208  19.906  0.00  0.00    +0.000 A 
ATOM     19  C   UNL     1       0.442   9.905  21.249  0.00  0.00    +0.000 A 
ATOM     20  C   UNL     1       0.845   8.665  21.746  0.00  0.00    +0.000 A 
ATOM     21  C   UNL     1       1.526   7.763  20.912  0.00  0.00    +0.000 A 
BRANCH  19  22
ATOM     22  C   UNL     1      -0.298  10.894  22.086  0.00  0.00    +0.000 C 
ATOM     23  O   UNL     1      -0.386  10.794  23.296  0.00  0.00    +0.000 OA
BRANCH  22  24
ATOM     24  O   UNL     1      -0.887  11.880  21.383  0.00  0.00    +0.000 OA
ATOM     25  H   UNL     1      -1.793  12.110  21.657  0.00  0.00    +0.000 HD
ENDBRANCH  22  24
ENDBRANCH  19  22
ENDBRANCH  15  16
ENDBRANCH  10  15
ENDBRANCH   1  11
BRANCH   7  26
ATOM     26  C   UNL     1       4.783   3.315  17.365  0.00  0.00    +0.000 C 
BRANCH  26  27
ATOM     27  C   UNL     1       5.756   4.479  17.342  0.00  0.00    +0.000 A 
ATOM     28  C   UNL     1       6.407   4.806  18.544  0.00  0.00    +0.000 A 
ATOM     29  C   UNL     1       7.142   5.985  18.662  0.00  0.00    +0.000 A 
ATOM     30  C   UNL     1       7.265   6.836  17.563  0.00  0.00    +0.000 A 
ATOM     31  C   UNL     1       6.780   6.431  16.317  0.00  0.00    +0.000 A 
ATOM     32  C   UNL     1       6.038   5.249  16.204  0.00  0.00    +0.000 A 
BRANCH  30  33
ATOM     33  C   UNL     1       7.805   8.152  17.743  0.00  0.00    +0.000 C 
ATOM     34  N   UNL     1       8.296   9.193  17.893  0.00  0.00    +0.000 NA
ENDBRANCH  30  33
ENDBRANCH  26  27
ENDBRANCH   7  26
TORSDOF 8
ENDMDL
MODEL 3
REMARK VINA RESULT:      -7.6      5.646     11.481
REMARK  Name = 
REMARK  9 active torsions:
REMARK  status: ('A' for Active; 'I' for Inactive)
REMARK    1  A    between atoms: C_1  and  C_2
REMARK    2  A    between atoms: C_2  and  N_3
REMARK    3  A    between atoms: C_2  and  C_24
REMARK    4  A    between atoms: C_4  and  C_6
REMARK    5  A    between atoms: N_12  and  C_13
REMARK    6  A    between atoms: C_13  and  C_14
REMARK    7  A    between atoms: C_17  and  C_18
REMARK    8  A    between atoms: C_27  and  C_28
REMARK    9  A    between atoms: C_28  and  O_30
REMARK                            x       y       z     vdW  Elec       q    Type
REMARK                         _______ _______ _______ _____ _____    ______ ____
ROOT
ATOM      1  C   UNL     1      -4.456  13.976  23.636  0.00  0.00    +0.000 A 
ATOM      2  C   UNL     1      -4.003  15.020  24.485  0.00  0.00    +0.000 A 
ATOM      3  C   UNL     1      -4.481  16.327  24.425  0.00  0.00    +0.000 A 
ATOM      4  C   UNL     1      -5.309  16.684  23.390  0.00  0.00    +0.000 A 
ATOM      5  C   UNL     1      -5.600  15.718  22.437  0.00  0.00    +0.000 A 
ATOM      6  C   UNL     1      -5.211  14.347  22.504  0.00  0.00    +0.000 A 
ATOM      7  N   UNL     1      -5.681  13.718  21.353  0.00  0.00    +0.000 N 
ATOM      8  C   UNL     1      -6.619  14.629  20.680  0.00  0.00    +0.000 C 
ATOM      9  C   UNL     1      -6.286  16.031  21.150  0.00  0.00    +0.000 C 
ENDROOT
BRANCH   1  11
ATOM     10  N   UNL     1      -2.972  11.924  23.417  0.00  0.00    +0.000 N 
ATOM     11  C   UNL     1      -4.011  12.606  24.086  0.00  0.00    +0.000 C 
ATOM     12  O   UNL     1      -4.575  12.020  25.021  0.00  0.00    +0.000 OA
ATOM     13  H   UNL     1      -2.862  10.976  23.763  0.00  0.00    +0.000 HD
BRANCH  10  15
ATOM     14  C   UNL     1      -1.016  13.454  23.268  0.00  0.00    +0.000 C 
ATOM     15  C   UNL     1      -1.864  12.403  22.539  0.00  0.00    +0.000 C 
BRANCH  15  16
ATOM     16  C   UNL     1      -0.979  11.291  21.940  0.00  0.00    +0.000 A 
ATOM     17  C   UNL     1      -0.329  11.398  20.700  0.00  0.00    +0.000 A 
ATOM     18  C   UNL     1       0.492  10.360  20.213  0.00  0.00    +0.000 A 
ATOM     19  C   UNL     1       0.681   9.188  20.952  0.00  0.00    +0.000 A 
ATOM     20  C   UNL     1       0.080   9.076  22.207  0.00  0.00    +0.000 A 
ATOM     21  C   UNL     1      -0.736  10.114  22.688  0.00  0.00    +0.000 A 
BRANCH  19  22
ATOM     22  C   UNL     1       1.568   8.124  20.399  0.00  0.00    +0.000 C 
ATOM     23  O   UNL     1       2.018   8.167  19.268  0.00  0.00    +0.000 OA
BRANCH  22  24
ATOM     24  O   UNL     1       1.793   7.100  21.244  0.00  0.00    +0.000 OA
ATOM     25  H   UNL     1       1.454   6.233  20.956  0.00  0.00    +0.000 HD
ENDBRANCH  22  24
ENDBRANCH  19  22
ENDBRANCH  15  16
ENDBRANCH  10  15
ENDBRANCH   1  11
BRANCH   7  26
ATOM     26  C   UNL     1      -5.650  12.351  20.854  0.00  0.00    +0.000 C 
BRANCH  26  27
ATOM     27  C   UNL     1      -4.962  12.175  19.514  0.00  0.00    +0.000 A 
ATOM     28  C   UNL     1      -5.777  12.058  18.375  0.00  0.00    +0.000 A 
ATOM     29  C   UNL     1      -5.240  11.676  17.146  0.00  0.00    +0.000 A 
ATOM     30  C   UNL     1      -3.869  11.442  17.034  0.00  0.00    +0.000 A 
ATOM     31  C   UNL     1      -3.027  11.734  18.110  0.00  0.00    +0.000 A 
ATOM     32  C   UNL     1      -3.572  12.112  19.343  0.00  0.00    +0.000 A 
BRANCH  30  33
ATOM     33  C   UNL     1      -3.351  10.820  15.850  0.00  0.00    +0.000 C 
ATOM     34  N   UNL     1      -2.941  10.367  14.864  0.00  0.00    +0.000 NA
ENDBRANCH  30  33
ENDBRANCH  26  27
ENDBRANCH   7  26
TORSDOF 8
ENDMDL
MODEL 4
REMARK VINA RESULT:      -7.4      3.846      7.115
REMARK  Name = 
REMARK  9 active torsions:
REMARK  status: ('A' for Active; 'I' for Inactive)
REMARK    1  A    between atoms: C_1  and  C_2
REMARK    2  A    between atoms: C_2  and  N_3
REMARK    3  A    between atoms: C_2  and  C_24
REMARK    4  A    between atoms: C_4  and  C_6
REMARK    5  A    between atoms: N_12  and  C_13
REMARK    6  A    between atoms: C_13  and  C_14
REMARK    7  A    between atoms: C_17  and  C_18
REMARK    8  A    between atoms: C_27  and  C_28
REMARK    9  A    between atoms: C_28  and  O_30
REMARK                            x       y       z     vdW  Elec       q    Type
REMARK                         _______ _______ _______ _____ _____    ______ ____
ROOT
ATOM      1  C   UNL     1       6.629   5.020  17.913  0.00  0.00    +0.000 A 
ATOM      2  C   UNL     1       7.554   4.576  16.931  0.00  0.00    +0.000 A 
ATOM      3  C   UNL     1       7.180   4.113  15.671  0.00  0.00    +0.000 A 
ATOM      4  C   UNL     1       5.850   3.909  15.407  0.00  0.00    +0.000 A 
ATOM      5  C   UNL     1       4.946   4.151  16.432  0.00  0.00    +0.000 A 
ATOM      6  C   UNL     1       5.269   4.711  17.704  0.00  0.00    +0.000 A 
ATOM      7  N   UNL     1       4.093   4.775  18.449  0.00  0.00    +0.000 N 
ATOM      8  C   UNL     1       2.961   4.515  17.546  0.00  0.00    +0.000 C 
ATOM      9  C   UNL     1       3.510   3.750  16.359  0.00  0.00    +0.000 C 
ENDROOT
BRANCH   1  11
ATOM     10  N   UNL     1       7.967   6.959  18.866  0.00  0.00    +0.000 N 
ATOM     11  C   UNL     1       7.284   5.741  19.065  0.00  0.00    +0.000 C 
ATOM     12  O   UNL     1       7.284   5.262  20.209  0.00  0.00    +0.000 OA
ATOM     13  H   UNL     1       8.446   7.263  19.708  0.00  0.00    +0.000 HD
BRANCH  10  15
ATOM     14  C   UNL     1       6.455   8.084  17.242  0.00  0.00    +0.000 C 
ATOM     15  C   UNL     1       7.887   7.986  17.785  0.00  0.00    +0.000 C 
BRANCH  15  16
ATOM     16  C   UNL     1       8.434   9.378  18.166  0.00  0.00    +0.000 A 
ATOM     17  C   UNL     1       8.173  10.544  17.428  0.00  0.00    +0.000 A 
ATOM     18  C   UNL     1       8.677  11.795  17.837  0.00  0.00    +0.000 A 
ATOM     19  C   UNL     1       9.457  11.912  18.991  0.00  0.00    +0.000 A 
ATOM     20  C   UNL     1       9.694  10.774  19.765  0.00  0.00    +0.000 A 
ATOM     21  C   UNL     1       9.188   9.530  19.353  0.00  0.00    +0.000 A 
BRANCH  19  22
ATOM     22  C   UNL     1       9.957  13.260  19.388  0.00  0.00    +0.000 C 
ATOM     23  O   UNL     1      10.221  13.549  20.541  0.00  0.00    +0.000 OA
BRANCH  22  24
ATOM     24  O   UNL     1      10.053  14.135  18.369  0.00  0.00    +0.000 OA
ATOM     25  H   UNL     1      10.215  13.744  17.492  0.00  0.00    +0.000 HD
ENDBRANCH  22  24
ENDBRANCH  19  22
ENDBRANCH  15  16
ENDBRANCH  10  15
ENDBRANCH   1  11
BRANCH   7  26
ATOM     26  C   UNL     1       3.752   5.272  19.773  0.00  0.00    +0.000 C 
BRANCH  26  27
ATOM     27  C   UNL     1       2.764   6.423  19.790  0.00  0.00    +0.000 A 
ATOM     28  C   UNL     1       2.761   7.294  18.688  0.00  0.00    +0.000 A 
ATOM     29  C   UNL     1       2.048   8.491  18.723  0.00  0.00    +0.000 A 
ATOM     30  C   UNL     1       1.294   8.814  19.853  0.00  0.00    +0.000 A 
ATOM     31  C   UNL     1       1.141   7.873  20.874  0.00  0.00    +0.000 A 
ATOM     32  C   UNL     1       1.865   6.675  20.837  0.00  0.00    +0.000 A 
BRANCH  30  33
ATOM     33  C   UNL     1       0.762  10.138  19.994  0.00  0.00    +0.000 C 
ATOM     34  N   UNL     1       0.277  11.185  20.116  0.00  0.00    +0.000 NA
ENDBRANCH  30  33
ENDBRANCH  26  27
ENDBRANCH   7  26
TORSDOF 8
ENDMDL
MODEL 5
REMARK VINA RESULT:      -7.3      6.374     11.614
REMARK  Name = 
REMARK  9 active torsions:
REMARK  status: ('A' for Active; 'I' for Inactive)
REMARK    1  A    between atoms: C_1  and  C_2
REMARK    2  A    between atoms: C_2  and  N_3
REMARK    3  A    between atoms: C_2  and  C_24
REMARK    4  A    between atoms: C_4  and  C_6
REMARK    5  A    between atoms: N_12  and  C_13
REMARK    6  A    between atoms: C_13  and  C_14
REMARK    7  A    between atoms: C_17  and  C_18
REMARK    8  A    between atoms: C_27  and  C_28
REMARK    9  A    between atoms: C_28  and  O_30
REMARK                            x       y       z     vdW  Elec       q    Type
REMARK                         _______ _______ _______ _____ _____    ______ ____
ROOT
ATOM      1  C   UNL     1      -4.626  13.934  23.288  0.00  0.00    +0.000 A 
ATOM      2  C   UNL     1      -4.185  15.042  24.058  0.00  0.00    +0.000 A 
ATOM      3  C   UNL     1      -4.869  16.254  24.131  0.00  0.00    +0.000 A 
ATOM      4  C   UNL     1      -5.934  16.466  23.292  0.00  0.00    +0.000 A 
ATOM      5  C   UNL     1      -6.252  15.460  22.389  0.00  0.00    +0.000 A 
ATOM      6  C   UNL     1      -5.642  14.171  22.339  0.00  0.00    +0.000 A 
ATOM      7  N   UNL     1      -6.227  13.468  21.288  0.00  0.00    +0.000 N 
ATOM      8  C   UNL     1      -7.415  14.211  20.840  0.00  0.00    +0.000 C 
ATOM      9  C   UNL     1      -7.223  15.650  21.273  0.00  0.00    +0.000 C 
ENDROOT
BRANCH   1  11
ATOM     10  N   UNL     1      -2.712  12.306  22.901  0.00  0.00    +0.000 N 
ATOM     11  C   UNL     1      -3.886  12.658  23.602  0.00  0.00    +0.000 C 
ATOM     12  O   UNL     1      -4.311  11.857  24.448  0.00  0.00    +0.000 OA
ATOM     13  H   UNL     1      -2.394  11.374  23.146  0.00  0.00    +0.000 HD
BRANCH  10  15
ATOM     14  C   UNL     1      -0.819  13.913  23.063  0.00  0.00    +0.000 C 
ATOM     15  C   UNL     1      -1.734  13.119  22.120  0.00  0.00    +0.000 C 
BRANCH  15  16
ATOM     16  C   UNL     1      -0.911  12.328  21.082  0.00  0.00    +0.000 A 
ATOM     17  C   UNL     1      -0.210  12.929  20.023  0.00  0.00    +0.000 A 
ATOM     18  C   UNL     1       0.549  12.160  19.119  0.00  0.00    +0.000 A 
ATOM     19  C   UNL     1       0.625  10.770  19.248  0.00  0.00    +0.000 A 
ATOM     20  C   UNL     1      -0.027  10.154  20.318  0.00  0.00    +0.000 A 
ATOM     21  C   UNL     1      -0.781  10.925  21.217  0.00  0.00    +0.000 A 
BRANCH  19  22
ATOM     22  C   UNL     1       1.452  10.001  18.273  0.00  0.00    +0.000 C 
ATOM     23  O   UNL     1       1.486   8.784  18.257  0.00  0.00    +0.000 OA
BRANCH  22  24
ATOM     24  O   UNL     1       2.181  10.770  17.442  0.00  0.00    +0.000 OA
ATOM     25  H   UNL     1       2.524  10.323  16.647  0.00  0.00    +0.000 HD
ENDBRANCH  22  24
ENDBRANCH  19  22
ENDBRANCH  15  16
ENDBRANCH  10  15
ENDBRANCH   1  11
BRANCH   7  26
ATOM     26  C   UNL     1      -6.078  12.122  20.756  0.00  0.00    +0.000 C 
BRANCH  26  27
ATOM     27  C   UNL     1      -5.310  12.031  19.450  0.00  0.00    +0.000 A 
ATOM     28  C   UNL     1      -6.055  11.905  18.265  0.00  0.00    +0.000 A 
ATOM     29  C   UNL     1      -5.432  11.597  17.057  0.00  0.00    +0.000 A 
ATOM     30  C   UNL     1      -4.044  11.448  17.013  0.00  0.00    +0.000 A 
ATOM     31  C   UNL     1      -3.280  11.754  18.142  0.00  0.00    +0.000 A 
ATOM     32  C   UNL     1      -3.912  12.057  19.355  0.00  0.00    +0.000 A 
BRANCH  30  33
ATOM     33  C   UNL     1      -3.428  10.897  15.842  0.00  0.00    +0.000 C 
ATOM     34  N   UNL     1      -2.876  10.454  14.922  0.00  0.00    +0.000 NA
ENDBRANCH  30  33
ENDBRANCH  26  27
ENDBRANCH   7  26
TORSDOF 8
ENDMDL
MODEL 6
REMARK VINA RESULT:      -7.3      8.363     11.130
REMARK  Name = 
REMARK  9 active torsions:
REMARK  status: ('A' for Active; 'I' for Inactive)
REMARK    1  A    between atoms: C_1  and  C_2
REMARK    2  A    between atoms: C_2  and  N_3
REMARK    3  A    between atoms: C_2  and  C_24
REMARK    4  A    between atoms: C_4  and  C_6
REMARK    5  A    between atoms: N_12  and  C_13
REMARK    6  A    between atoms: C_13  and  C_14
REMARK    7  A    between atoms: C_17  and  C_18
REMARK    8  A    between atoms: C_27  and  C_28
REMARK    9  A    between atoms: C_28  and  O_30
REMARK                            x       y       z     vdW  Elec       q    Type
REMARK                         _______ _______ _______ _____ _____    ______ ____
ROOT
ATOM      1  C   UNL     1      -6.113  11.445  19.057  0.00  0.00    +0.000 A 
ATOM      2  C   UNL     1      -6.354  10.064  18.827  0.00  0.00    +0.000 A 
ATOM      3  C   UNL     1      -7.286   9.314  19.540  0.00  0.00    +0.000 A 
ATOM      4  C   UNL     1      -7.892   9.875  20.635  0.00  0.00    +0.000 A 
ATOM      5  C   UNL     1      -7.515  11.163  20.990  0.00  0.00    +0.000 A 
ATOM      6  C   UNL     1      -6.636  12.002  20.242  0.00  0.00    +0.000 A 
ATOM      7  N   UNL     1      -6.501  13.201  20.940  0.00  0.00    +0.000 N 
ATOM      8  C   UNL     1      -7.520  13.235  21.999  0.00  0.00    +0.000 C 
ATOM      9  C   UNL     1      -7.914  11.799  22.279  0.00  0.00    +0.000 C 
ENDROOT
BRANCH   1  11
ATOM     10  N   UNL     1      -3.875  12.112  18.053  0.00  0.00    +0.000 N 
ATOM     11  C   UNL     1      -5.284  12.093  17.976  0.00  0.00    +0.000 C 
ATOM     12  O   UNL     1      -5.815  12.670  17.015  0.00  0.00    +0.000 OA
ATOM     13  H   UNL     1      -3.466  12.676  17.315  0.00  0.00    +0.000 HD
BRANCH  10  15
ATOM     14  C   UNL     1      -2.419  10.097  17.934  0.00  0.00    +0.000 C 
ATOM     15  C   UNL     1      -2.904  11.264  18.806  0.00  0.00    +0.000 C 
BRANCH  15  16
ATOM     16  C   UNL     1      -1.715  12.028  19.425  0.00  0.00    +0.000 A 
ATOM     17  C   UNL     1      -1.281  11.849  20.749  0.00  0.00    +0.000 A 
ATOM     18  C   UNL     1      -0.170  12.554  21.255  0.00  0.00    +0.000 A 
ATOM     19  C   UNL     1       0.533  13.457  20.452  0.00  0.00    +0.000 A 
ATOM     20  C   UNL     1       0.148  13.619  19.120  0.00  0.00    +0.000 A 
ATOM     21  C   UNL     1      -0.959  12.913  18.621  0.00  0.00    +0.000 A 
BRANCH  19  22
ATOM     22  C   UNL     1       1.709  14.170  21.031  0.00  0.00    +0.000 C 
ATOM     23  O   UNL     1       1.770  14.490  22.204  0.00  0.00    +0.000 OA
BRANCH  22  24
ATOM     24  O   UNL     1       2.673  14.459  20.136  0.00  0.00    +0.000 OA
ATOM     25  H   UNL     1       3.140  13.693  19.757  0.00  0.00    +0.000 HD
ENDBRANCH  22  24
ENDBRANCH  19  22
ENDBRANCH  15  16
ENDBRANCH  10  15
ENDBRANCH   1  11
BRANCH   7  26
ATOM     26  C   UNL     1      -5.794  14.449  20.693  0.00  0.00    +0.000 C 
BRANCH  26  27
ATOM     27  C   UNL     1      -4.442  14.564  21.371  0.00  0.00    +0.000 A 
ATOM     28  C   UNL     1      -4.219  13.777  22.514  0.00  0.00    +0.000 A 
ATOM     29  C   UNL     1      -3.099  13.982  23.317  0.00  0.00    +0.000 A 
ATOM     30  C   UNL     1      -2.164  14.957  22.964  0.00  0.00    +0.000 A 
ATOM     31  C   UNL     1      -2.280  15.614  21.736  0.00  0.00    +0.000 A 
ATOM     32  C   UNL     1      -3.411  15.408  20.935  0.00  0.00    +0.000 A 
BRANCH  30  33
ATOM     33  C   UNL     1      -1.149  15.339  23.902  0.00  0.00    +0.000 C 
ATOM     34  N   UNL     1      -0.309  15.592  24.662  0.00  0.00    +0.000 NA
ENDBRANCH  30  33
ENDBRANCH  26  27
ENDBRANCH   7  26
TORSDOF 8
ENDMDL
MODEL 7
REMARK VINA RESULT:      -7.3      3.191      7.774
REMARK  Name = 
REMARK  9 active torsions:
REMARK  status: ('A' for Active; 'I' for Inactive)
REMARK    1  A    between atoms: C_1  and  C_2
REMARK    2  A    between atoms: C_2  and  N_3
REMARK    3  A    between atoms: C_2  and  C_24
REMARK    4  A    between atoms: C_4  and  C_6
REMARK    5  A    between atoms: N_12  and  C_13
REMARK    6  A    between atoms: C_13  and  C_14
REMARK    7  A    between atoms: C_17  and  C_18
REMARK    8  A    between atoms: C_27  and  C_28
REMARK    9  A    between atoms: C_28  and  O_30
REMARK                            x       y       z     vdW  Elec       q    Type
REMARK                         _______ _______ _______ _____ _____    ______ ____
ROOT
ATOM      1  C   UNL     1       4.479   3.982  18.832  0.00  0.00    +0.000 A 
ATOM      2  C   UNL     1       4.603   2.570  18.921  0.00  0.00    +0.000 A 
ATOM      3  C   UNL     1       3.694   1.678  18.357  0.00  0.00    +0.000 A 
ATOM      4  C   UNL     1       2.524   2.166  17.832  0.00  0.00    +0.000 A 
ATOM      5  C   UNL     1       2.301   3.533  17.920  0.00  0.00    +0.000 A 
ATOM      6  C   UNL     1       3.238   4.495  18.403  0.00  0.00    +0.000 A 
ATOM      7  N   UNL     1       2.627   5.746  18.344  0.00  0.00    +0.000 N 
ATOM      8  C   UNL     1       1.391   5.620  17.557  0.00  0.00    +0.000 C 
ATOM      9  C   UNL     1       0.984   4.161  17.606  0.00  0.00    +0.000 C 
ENDROOT
BRANCH   1  11
ATOM     10  N   UNL     1       6.409   5.570  18.364  0.00  0.00    +0.000 N 
ATOM     11  C   UNL     1       5.726   4.718  19.258  0.00  0.00    +0.000 C 
ATOM     12  O   UNL     1       6.215   4.557  20.386  0.00  0.00    +0.000 OA
ATOM     13  H   UNL     1       7.283   5.903  18.757  0.00  0.00    +0.000 HD
BRANCH  10  15
ATOM     14  C   UNL     1       6.739   7.590  16.951  0.00  0.00    +0.000 C 
ATOM     15  C   UNL     1       5.971   6.273  17.122  0.00  0.00    +0.000 C 
BRANCH  15  16
ATOM     16  C   UNL     1       6.030   5.422  15.836  0.00  0.00    +0.000 A 
ATOM     17  C   UNL     1       4.930   4.718  15.319  0.00  0.00    +0.000 A 
ATOM     18  C   UNL     1       5.033   3.978  14.123  0.00  0.00    +0.000 A 
ATOM     19  C   UNL     1       6.238   3.920  13.417  0.00  0.00    +0.000 A 
ATOM     20  C   UNL     1       7.333   4.647  13.888  0.00  0.00    +0.000 A 
ATOM     21  C   UNL     1       7.225   5.384  15.079  0.00  0.00    +0.000 A 
BRANCH  19  22
ATOM     22  C   UNL     1       6.293   3.133  12.151  0.00  0.00    +0.000 C 
ATOM     23  O   UNL     1       5.385   2.407  11.790  0.00  0.00    +0.000 OA
BRANCH  22  24
ATOM     24  O   UNL     1       7.446   3.268  11.468  0.00  0.00    +0.000 OA
ATOM     25  H   UNL     1       7.391   3.096  10.511  0.00  0.00    +0.000 HD
ENDBRANCH  22  24
ENDBRANCH  19  22
ENDBRANCH  15  16
ENDBRANCH  10  15
ENDBRANCH   1  11
BRANCH   7  26
ATOM     26  C   UNL     1       3.056   7.103  18.647  0.00  0.00    +0.000 C 
BRANCH  26  27
ATOM     27  C   UNL     1       2.064   7.923  19.452  0.00  0.00    +0.000 A 
ATOM     28  C   UNL     1       1.568   9.101  18.867  0.00  0.00    +0.000 A 
ATOM     29  C   UNL     1       0.832  10.016  19.617  0.00  0.00    +0.000 A 
ATOM     30  C   UNL     1       0.549   9.745  20.957  0.00  0.00    +0.000 A 
ATOM     31  C   UNL     1       0.877   8.498  21.494  0.00  0.00    +0.000 A 
ATOM     32  C   UNL     1       1.621   7.583  20.738  0.00  0.00    +0.000 A 
BRANCH  30  33
ATOM     33  C   UNL     1       0.011  10.780  21.791  0.00  0.00    +0.000 C 
ATOM     34  N   UNL     1      -0.454  11.638  22.419  0.00  0.00    +0.000 NA
ENDBRANCH  30  33
ENDBRANCH  26  27
ENDBRANCH   7  26
TORSDOF 8
ENDMDL
MODEL 8
REMARK VINA RESULT:      -7.2      3.278      7.755
REMARK  Name = 
REMARK  9 active torsions:
REMARK  status: ('A' for Active; 'I' for Inactive)
REMARK    1  A    between atoms: C_1  and  C_2
REMARK    2  A    between atoms: C_2  and  N_3
REMARK    3  A    between atoms: C_2  and  C_24
REMARK    4  A    between atoms: C_4  and  C_6
REMARK    5  A    between atoms: N_12  and  C_13
REMARK    6  A    between atoms: C_13  and  C_14
REMARK    7  A    between atoms: C_17  and  C_18
REMARK    8  A    between atoms: C_27  and  C_28
REMARK    9  A    between atoms: C_28  and  O_30
REMARK                            x       y       z     vdW  Elec       q    Type
REMARK                         _______ _______ _______ _____ _____    ______ ____
ROOT
ATOM      1  C   UNL     1       4.578   3.962  18.759  0.00  0.00    +0.000 A 
ATOM      2  C   UNL     1       4.689   2.547  18.749  0.00  0.00    +0.000 A 
ATOM      3  C   UNL     1       3.762   1.702  18.141  0.00  0.00    +0.000 A 
ATOM      4  C   UNL     1       2.589   2.235  17.669  0.00  0.00    +0.000 A 
ATOM      5  C   UNL     1       2.381   3.595  17.854  0.00  0.00    +0.000 A 
ATOM      6  C   UNL     1       3.335   4.513  18.386  0.00  0.00    +0.000 A 
ATOM      7  N   UNL     1       2.735   5.771  18.423  0.00  0.00    +0.000 N 
ATOM      8  C   UNL     1       1.486   5.709  17.650  0.00  0.00    +0.000 C 
ATOM      9  C   UNL     1       1.066   4.255  17.605  0.00  0.00    +0.000 C 
ENDROOT
BRANCH   1  11
ATOM     10  N   UNL     1       6.540   5.526  18.353  0.00  0.00    +0.000 N 
ATOM     11  C   UNL     1       5.838   4.656  19.214  0.00  0.00    +0.000 C 
ATOM     12  O   UNL     1       6.321   4.444  20.336  0.00  0.00    +0.000 OA
ATOM     13  H   UNL     1       7.420   5.826  18.759  0.00  0.00    +0.000 HD
BRANCH  10  15
ATOM     14  C   UNL     1       6.948   7.566  16.988  0.00  0.00    +0.000 C 
ATOM     15  C   UNL     1       6.119   6.282  17.136  0.00  0.00    +0.000 C 
BRANCH  15  16
ATOM     16  C   UNL     1       6.119   5.465  15.828  0.00  0.00    +0.000 A 
ATOM     17  C   UNL     1       7.264   5.256  15.041  0.00  0.00    +0.000 A 
ATOM     18  C   UNL     1       7.212   4.477  13.868  0.00  0.00    +0.000 A 
ATOM     19  C   UNL     1       6.015   3.890  13.449  0.00  0.00    +0.000 A 
ATOM     20  C   UNL     1       4.873   4.047  14.237  0.00  0.00    +0.000 A 
ATOM     21  C   UNL     1       4.931   4.824  15.406  0.00  0.00    +0.000 A 
BRANCH  19  22
ATOM     22  C   UNL     1       6.014   3.065  12.206  0.00  0.00    +0.000 C 
ATOM     23  O   UNL     1       4.996   2.804  11.591  0.00  0.00    +0.000 OA
BRANCH  22  24
ATOM     24  O   UNL     1       7.229   2.605  11.849  0.00  0.00    +0.000 OA
ATOM     25  H   UNL     1       7.637   1.971  12.466  0.00  0.00    +0.000 HD
ENDBRANCH  22  24
ENDBRANCH  19  22
ENDBRANCH  15  16
ENDBRANCH  10  15
ENDBRANCH   1  11
BRANCH   7  26
ATOM     26  C   UNL     1       3.182   7.101  18.811  0.00  0.00    +0.000 C 
BRANCH  26  27
ATOM     27  C   UNL     1       2.069   8.078  19.140  0.00  0.00    +0.000 A 
ATOM     28  C   UNL     1       1.628   8.931  18.114  0.00  0.00    +0.000 A 
ATOM     29  C   UNL     1       0.773   9.998  18.388  0.00  0.00    +0.000 A 
ATOM     30  C   UNL     1       0.317  10.202  19.692  0.00  0.00    +0.000 A 
ATOM     31  C   UNL     1       0.599   9.255  20.679  0.00  0.00    +0.000 A 
ATOM     32  C   UNL     1       1.463   8.188  20.400  0.00  0.00    +0.000 A 
BRANCH  30  33
ATOM     33  C   UNL     1      -0.356  11.424  20.023  0.00  0.00    +0.000 C 
ATOM     34  N   UNL     1      -0.950  12.381  20.301  0.00  0.00    +0.000 NA
ENDBRANCH  30  33
ENDBRANCH  26  27
ENDBRANCH   7  26
TORSDOF 8
ENDMDL
MODEL 9
REMARK VINA RESULT:      -7.2      6.811     11.149
REMARK  Name = 
REMARK  9 active torsions:
REMARK  status: ('A' for Active; 'I' for Inactive)
REMARK    1  A    between atoms: C_1  and  C_2
REMARK    2  A    between atoms: C_2  and  N_3
REMARK    3  A    between atoms: C_2  and  C_24
REMARK    4  A    between atoms: C_4  and  C_6
REMARK    5  A    between atoms: N_12  and  C_13
REMARK    6  A    between atoms: C_13  and  C_14
REMARK    7  A    between atoms: C_17  and  C_18
REMARK    8  A    between atoms: C_27  and  C_28
REMARK    9  A    between atoms: C_28  and  O_30
REMARK                            x       y       z     vdW  Elec       q    Type
REMARK                         _______ _______ _______ _____ _____    ______ ____
ROOT
ATOM      1  C   UNL     1      -6.767  13.337  20.528  0.00  0.00    +0.000 A 
ATOM      2  C   UNL     1      -7.114  14.537  21.203  0.00  0.00    +0.000 A 
ATOM      3  C   UNL     1      -7.665  15.649  20.570  0.00  0.00    +0.000 A 
ATOM      4  C   UNL     1      -7.729  15.668  19.199  0.00  0.00    +0.000 A 
ATOM      5  C   UNL     1      -7.207  14.578  18.516  0.00  0.00    +0.000 A 
ATOM      6  C   UNL     1      -6.717  13.382  19.120  0.00  0.00    +0.000 A 
ATOM      7  N   UNL     1      -6.269  12.546  18.098  0.00  0.00    +0.000 N 
ATOM      8  C   UNL     1      -6.732  13.098  16.815  0.00  0.00    +0.000 C 
ATOM      9  C   UNL     1      -6.999  14.572  17.039  0.00  0.00    +0.000 C 
ENDROOT
BRANCH   1  11
ATOM     10  N   UNL     1      -5.330  12.209  22.294  0.00  0.00    +0.000 N 
ATOM     11  C   UNL     1      -6.470  12.192  21.464  0.00  0.00    +0.000 C 
ATOM     12  O   UNL     1      -7.188  11.182  21.494  0.00  0.00    +0.000 OA
ATOM     13  H   UNL     1      -5.206  11.327  22.781  0.00  0.00    +0.000 HD
BRANCH  10  15
ATOM     14  C   UNL     1      -4.519  13.397  24.325  0.00  0.00    +0.000 C 
ATOM     15  C   UNL     1      -4.473  13.326  22.792  0.00  0.00    +0.000 C 
BRANCH  15  16
ATOM     16  C   UNL     1      -3.018  13.310  22.279  0.00  0.00    +0.000 A 
ATOM     17  C   UNL     1      -2.396  14.412  21.669  0.00  0.00    +0.000 A 
ATOM     18  C   UNL     1      -1.054  14.351  21.243  0.00  0.00    +0.000 A 
ATOM     19  C   UNL     1      -0.300  13.187  21.413  0.00  0.00    +0.000 A 
ATOM     20  C   UNL     1      -0.882  12.092  22.056  0.00  0.00    +0.000 A 
ATOM     21  C   UNL     1      -2.219  12.159  22.479  0.00  0.00    +0.000 A 
BRANCH  19  22
ATOM     22  C   UNL     1       1.120  13.176  20.956  0.00  0.00    +0.000 C 
ATOM     23  O   UNL     1       1.621  14.104  20.348  0.00  0.00    +0.000 OA
BRANCH  22  24
ATOM     24  O   UNL     1       1.783  12.039  21.242  0.00  0.00    +0.000 OA
ATOM     25  H   UNL     1       1.244  11.228  21.252  0.00  0.00    +0.000 HD
ENDBRANCH  22  24
ENDBRANCH  19  22
ENDBRANCH  15  16
ENDBRANCH  10  15
ENDBRANCH   1  11
BRANCH   7  26
ATOM     26  C   UNL     1      -5.710  11.204  18.052  0.00  0.00    +0.000 C 
BRANCH  26  27
ATOM     27  C   UNL     1      -4.194  11.142  18.036  0.00  0.00    +0.000 A 
ATOM     28  C   UNL     1      -3.595   9.994  17.491  0.00  0.00    +0.000 A 
ATOM     29  C   UNL     1      -2.228   9.761  17.637  0.00  0.00    +0.000 A 
ATOM     30  C   UNL     1      -1.434  10.699  18.300  0.00  0.00    +0.000 A 
ATOM     31  C   UNL     1      -1.984  11.925  18.680  0.00  0.00    +0.000 A 
ATOM     32  C   UNL     1      -3.359  12.152  18.536  0.00  0.00    +0.000 A 
BRANCH  30  33
ATOM     33  C   UNL     1      -0.091  10.357  18.664  0.00  0.00    +0.000 C 
ATOM     34  N   UNL     1       0.981  10.024  18.961  0.00  0.00    +0.000 NA
ENDBRANCH  30  33
ENDBRANCH  26  27
ENDBRANCH   7  26
TORSDOF 8
ENDMDL
