MODEL 1
REMARK VINA RESULT:      -7.5      0.000      0.000
REMARK  Name = 
REMARK  7 active torsions:
REMARK  status: ('A' for Active; 'I' for Inactive)
REMARK    1  A    between atoms: C_5  and  O_6
REMARK    2  A    between atoms: O_6  and  C_7
REMARK    3  A    between atoms: C_7  and  C_8
REMARK    4  A    between atoms: C_8  and  N_9
REMARK    5  A    between atoms: N_9  and  C_10
REMARK    6  A    between atoms: N_13  and  C_14
REMARK    7  A    between atoms: C_14  and  C_15
REMARK                            x       y       z     vdW  Elec       q    Type
REMARK                         _______ _______ _______ _____ _____    ______ ____
ROOT
ATOM      1  N   UNL     1       7.310   7.144  17.246  0.00  0.00    +0.000 NA
ATOM      2  H   UNL     1       7.598   7.247  16.272  0.00  0.00    +0.000 HD
ENDROOT
BRANCH   1   3
ATOM      3  C   UNL     1       7.353   5.715  17.615  0.00  0.00    +0.000 C 
ATOM      4  C   UNL     1       6.870   4.845  16.445  0.00  0.00    +0.000 C 
ATOM      5  C   UNL     1       5.351   4.856  16.270  0.00  0.00    +0.000 C 
ATOM      6  N   UNL     1       4.662   4.489  17.521  0.00  0.00    +0.000 NA
ATOM      7  C   UNL     1       5.023   5.440  18.588  0.00  0.00    +0.000 C 
ATOM      8  C   UNL     1       6.523   5.377  18.861  0.00  0.00    +0.000 C 
BRANCH   6   9
ATOM      9  C   UNL     1       3.198   4.469  17.348  0.00  0.00    +0.000 C 
BRANCH   9  10
ATOM     10  C   UNL     1       2.466   3.914  18.549  0.00  0.00    +0.000 A 
ATOM     11  C   UNL     1       1.742   4.754  19.400  0.00  0.00    +0.000 A 
ATOM     12  C   UNL     1       1.126   4.203  20.512  0.00  0.00    +0.000 A 
ATOM     13  N   UNL     1       1.172   2.890  20.824  0.00  0.00    +0.000 NA
ATOM     14  C   UNL     1       1.867   2.094  19.984  0.00  0.00    +0.000 A 
ATOM     15  C   UNL     1       2.519   2.551  18.849  0.00  0.00    +0.000 A 
ENDBRANCH   9  10
ENDBRANCH   6   9
ENDBRANCH   1   3
BRANCH   1  16
ATOM     16  C   UNL     1       8.152   8.018  18.084  0.00  0.00    +0.000 C 
BRANCH  16  17
ATOM     17  C   UNL     1       8.210   9.492  17.653  0.00  0.00    +0.000 C 
BRANCH  17  18
ATOM     18  O   UNL     1       8.647  10.292  18.753  0.00  0.00    +0.000 OA
BRANCH  18  23
ATOM     19  F   UNL     1      12.319  14.167  17.437  0.00  0.00    +0.000 F 
ATOM     20  C   UNL     1      11.440  13.217  17.779  0.00  0.00    +0.000 A 
ATOM     21  C   UNL     1      11.870  12.129  18.531  0.00  0.00    +0.000 A 
ATOM     22  C   UNL     1      10.960  11.127  18.889  0.00  0.00    +0.000 A 
ATOM     23  C   UNL     1       9.622  11.218  18.487  0.00  0.00    +0.000 A 
ATOM     24  C   UNL     1       9.218  12.331  17.738  0.00  0.00    +0.000 A 
ATOM     25  F   UNL     1       7.940  12.452  17.350  0.00  0.00    +0.000 F 
ATOM     26  C   UNL     1      10.118  13.331  17.379  0.00  0.00    +0.000 A 
ENDBRANCH  18  23
ENDBRANCH  17  18
ENDBRANCH  16  17
ENDBRANCH   1  16
TORSDOF 7
ENDMDL
MODEL 2
REMARK VINA RESULT:      -7.5      4.189      6.471
REMARK  Name = 
REMARK  7 active torsions:
REMARK  status: ('A' for Active; 'I' for Inactive)
REMARK    1  A    between atoms: C_5  and  O_6
REMARK    2  A    between atoms: O_6  and  C_7
REMARK    3  A    between atoms: C_7  and  C_8
REMARK    4  A    between atoms: C_8  and  N_9
REMARK    5  A    between atoms: N_9  and  C_10
REMARK    6  A    between atoms: N_13  and  C_14
REMARK    7  A    between atoms: C_14  and  C_15
REMARK                            x       y       z     vdW  Elec       q    Type
REMARK                         _______ _______ _______ _____ _____    ______ ____
ROOT
ATOM      1  N   UNL     1       2.407   1.906  18.620  0.00  0.00    +0.000 NA
ATOM      2  H   UNL     1       2.870   1.963  19.528  0.00  0.00    +0.000 HD
ENDROOT
BRANCH   1   3
ATOM      3  C   UNL     1       1.179   2.724  18.651  0.00  0.00    +0.000 C 
ATOM      4  C   UNL     1       1.255   3.846  17.605  0.00  0.00    +0.000 C 
ATOM      5  C   UNL     1       2.157   5.006  18.027  0.00  0.00    +0.000 C 
ATOM      6  N   UNL     1       1.766   5.540  19.345  0.00  0.00    +0.000 NA
ATOM      7  C   UNL     1       1.856   4.475  20.361  0.00  0.00    +0.000 C 
ATOM      8  C   UNL     1       0.887   3.345  20.025  0.00  0.00    +0.000 C 
BRANCH   6   9
ATOM      9  C   UNL     1       2.614   6.679  19.742  0.00  0.00    +0.000 C 
BRANCH   9  10
ATOM     10  C   UNL     1       1.914   8.013  19.609  0.00  0.00    +0.000 A 
ATOM     11  C   UNL     1       1.187   8.552  20.675  0.00  0.00    +0.000 A 
ATOM     12  C   UNL     1       0.528   9.756  20.488  0.00  0.00    +0.000 A 
ATOM     13  N   UNL     1       0.551  10.455  19.333  0.00  0.00    +0.000 NA
ATOM     14  C   UNL     1       1.268   9.924  18.320  0.00  0.00    +0.000 A 
ATOM     15  C   UNL     1       1.959   8.725  18.408  0.00  0.00    +0.000 A 
ENDBRANCH   9  10
ENDBRANCH   6   9
ENDBRANCH   1   3
BRANCH   1  16
ATOM     16  C   UNL     1       3.370   2.288  17.571  0.00  0.00    +0.000 C 
BRANCH  16  17
ATOM     17  C   UNL     1       4.646   2.988  18.067  0.00  0.00    +0.000 C 
BRANCH  17  18
ATOM     18  O   UNL     1       5.162   3.826  17.032  0.00  0.00    +0.000 OA
BRANCH  18  23
ATOM     19  F   UNL     1       8.370   8.097  18.338  0.00  0.00    +0.000 F 
ATOM     20  C   UNL     1       7.596   7.045  18.043  0.00  0.00    +0.000 A 
ATOM     21  C   UNL     1       7.902   5.800  18.583  0.00  0.00    +0.000 A 
ATOM     22  C   UNL     1       7.103   4.693  18.275  0.00  0.00    +0.000 A 
ATOM     23  C   UNL     1       6.001   4.837  17.424  0.00  0.00    +0.000 A 
ATOM     24  C   UNL     1       5.713   6.106  16.903  0.00  0.00    +0.000 A 
ATOM     25  F   UNL     1       4.657   6.277  16.096  0.00  0.00    +0.000 F 
ATOM     26  C   UNL     1       6.504   7.211  17.205  0.00  0.00    +0.000 A 
ENDBRANCH  18  23
ENDBRANCH  17  18
ENDBRANCH  16  17
ENDBRANCH   1  16
TORSDOF 7
ENDMDL
MODEL 3
REMARK VINA RESULT:      -7.4      1.383      1.523
REMARK  Name = 
REMARK  7 active torsions:
REMARK  status: ('A' for Active; 'I' for Inactive)
REMARK    1  A    between atoms: C_5  and  O_6
REMARK    2  A    between atoms: O_6  and  C_7
REMARK    3  A    between atoms: C_7  and  C_8
REMARK    4  A    between atoms: C_8  and  N_9
REMARK    5  A    between atoms: N_9  and  C_10
REMARK    6  A    between atoms: N_13  and  C_14
REMARK    7  A    between atoms: C_14  and  C_15
REMARK                            x       y       z     vdW  Elec       q    Type
REMARK                         _______ _______ _______ _____ _____    ______ ____
ROOT
ATOM      1  N   UNL     1       7.308   7.333  16.885  0.00  0.00    +0.000 NA
ATOM      2  H   UNL     1       7.914   7.659  16.133  0.00  0.00    +0.000 HD
ENDROOT
BRANCH   1   3
ATOM      3  C   UNL     1       7.412   5.864  16.989  0.00  0.00    +0.000 C 
ATOM      4  C   UNL     1       6.639   5.189  15.847  0.00  0.00    +0.000 C 
ATOM      5  C   UNL     1       5.124   5.195  16.056  0.00  0.00    +0.000 C 
ATOM      6  N   UNL     1       4.758   4.610  17.359  0.00  0.00    +0.000 NA
ATOM      7  C   UNL     1       5.390   5.378  18.446  0.00  0.00    +0.000 C 
ATOM      8  C   UNL     1       6.909   5.305  18.328  0.00  0.00    +0.000 C 
BRANCH   6   9
ATOM      9  C   UNL     1       3.296   4.586  17.550  0.00  0.00    +0.000 C 
BRANCH   9  10
ATOM     10  C   UNL     1       2.889   4.209  18.957  0.00  0.00    +0.000 A 
ATOM     11  C   UNL     1       2.178   5.103  19.763  0.00  0.00    +0.000 A 
ATOM     12  C   UNL     1       1.867   4.727  21.059  0.00  0.00    +0.000 A 
ATOM     13  N   UNL     1       2.201   3.534  21.597  0.00  0.00    +0.000 NA
ATOM     14  C   UNL     1       2.878   2.681  20.800  0.00  0.00    +0.000 A 
ATOM     15  C   UNL     1       3.237   2.966  19.492  0.00  0.00    +0.000 A 
ENDBRANCH   9  10
ENDBRANCH   6   9
ENDBRANCH   1   3
BRANCH   1  16
ATOM     16  C   UNL     1       7.653   8.060  18.121  0.00  0.00    +0.000 C 
BRANCH  16  17
ATOM     17  C   UNL     1       8.390   9.394  17.920  0.00  0.00    +0.000 C 
BRANCH  17  18
ATOM     18  O   UNL     1       9.126   9.713  19.103  0.00  0.00    +0.000 OA
BRANCH  18  23
ATOM     19  F   UNL     1      11.847  14.483  19.374  0.00  0.00    +0.000 F 
ATOM     20  C   UNL     1      11.199  13.315  19.286  0.00  0.00    +0.000 A 
ATOM     21  C   UNL     1      11.106  12.678  18.054  0.00  0.00    +0.000 A 
ATOM     22  C   UNL     1      10.426  11.459  17.950  0.00  0.00    +0.000 A 
ATOM     23  C   UNL     1       9.837  10.885  19.083  0.00  0.00    +0.000 A 
ATOM     24  C   UNL     1       9.955  11.547  20.312  0.00  0.00    +0.000 A 
ATOM     25  F   UNL     1       9.413  11.015  21.417  0.00  0.00    +0.000 F 
ATOM     26  C   UNL     1      10.631  12.759  20.422  0.00  0.00    +0.000 A 
ENDBRANCH  18  23
ENDBRANCH  17  18
ENDBRANCH  16  17
ENDBRANCH   1  16
TORSDOF 7
ENDMDL
MODEL 4
REMARK VINA RESULT:      -7.3      1.270      1.765
REMARK  Name = 
REMARK  7 active torsions:
REMARK  status: ('A' for Active; 'I' for Inactive)
REMARK    1  A    between atoms: C_5  and  O_6
REMARK    2  A    between atoms: O_6  and  C_7
REMARK    3  A    between atoms: C_7  and  C_8
REMARK    4  A    between atoms: C_8  and  N_9
REMARK    5  A    between atoms: N_9  and  C_10
REMARK    6  A    between atoms: N_13  and  C_14
REMARK    7  A    between atoms: C_14  and  C_15
REMARK                            x       y       z     vdW  Elec       q    Type
REMARK                         _______ _______ _______ _____ _____    ______ ____
ROOT
ATOM      1  N   UNL     1       7.532   6.905  16.846  0.00  0.00    +0.000 NA
ATOM      2  H   UNL     1       8.444   6.987  16.394  0.00  0.00    +0.000 HD
ENDROOT
BRANCH   1   3
ATOM      3  C   UNL     1       7.485   5.647  17.617  0.00  0.00    +0.000 C 
ATOM      4  C   UNL     1       7.261   4.452  16.679  0.00  0.00    +0.000 C 
ATOM      5  C   UNL     1       5.817   4.325  16.195  0.00  0.00    +0.000 C 
ATOM      6  N   UNL     1       4.871   4.293  17.325  0.00  0.00    +0.000 NA
ATOM      7  C   UNL     1       4.999   5.528  18.119  0.00  0.00    +0.000 C 
ATOM      8  C   UNL     1       6.403   5.633  18.706  0.00  0.00    +0.000 C 
BRANCH   6   9
ATOM      9  C   UNL     1       3.479   4.139  16.864  0.00  0.00    +0.000 C 
BRANCH   9  10
ATOM     10  C   UNL     1       2.534   3.708  17.963  0.00  0.00    +0.000 A 
ATOM     11  C   UNL     1       2.057   2.395  18.026  0.00  0.00    +0.000 A 
ATOM     12  C   UNL     1       1.159   2.062  19.027  0.00  0.00    +0.000 A 
ATOM     13  N   UNL     1       0.718   2.931  19.962  0.00  0.00    +0.000 NA
ATOM     14  C   UNL     1       1.199   4.190  19.891  0.00  0.00    +0.000 A 
ATOM     15  C   UNL     1       2.097   4.620  18.927  0.00  0.00    +0.000 A 
ENDBRANCH   9  10
ENDBRANCH   6   9
ENDBRANCH   1   3
BRANCH   1  16
ATOM     16  C   UNL     1       7.288   8.121  17.644  0.00  0.00    +0.000 C 
BRANCH  16  17
ATOM     17  C   UNL     1       8.546   8.878  18.099  0.00  0.00    +0.000 C 
BRANCH  17  18
ATOM     18  O   UNL     1       8.265  10.278  18.154  0.00  0.00    +0.000 OA
BRANCH  18  23
ATOM     19  F   UNL     1      12.327  13.510  19.967  0.00  0.00    +0.000 F 
ATOM     20  C   UNL     1      11.350  12.722  19.501  0.00  0.00    +0.000 A 
ATOM     21  C   UNL     1      11.068  12.718  18.139  0.00  0.00    +0.000 A 
ATOM     22  C   UNL     1      10.045  11.903  17.643  0.00  0.00    +0.000 A 
ATOM     23  C   UNL     1       9.303  11.097  18.516  0.00  0.00    +0.000 A 
ATOM     24  C   UNL     1       9.617  11.116  19.881  0.00  0.00    +0.000 A 
ATOM     25  F   UNL     1       8.934  10.345  20.739  0.00  0.00    +0.000 F 
ATOM     26  C   UNL     1      10.634  11.925  20.380  0.00  0.00    +0.000 A 
ENDBRANCH  18  23
ENDBRANCH  17  18
ENDBRANCH  16  17
ENDBRANCH   1  16
TORSDOF 7
ENDMDL
MODEL 5
REMARK VINA RESULT:      -7.2      4.183      6.639
REMARK  Name = 
REMARK  7 active torsions:
REMARK  status: ('A' for Active; 'I' for Inactive)
REMARK    1  A    between atoms: C_5  and  O_6
REMARK    2  A    between atoms: O_6  and  C_7
REMARK    3  A    between atoms: C_7  and  C_8
REMARK    4  A    between atoms: C_8  and  N_9
REMARK    5  A    between atoms: N_9  and  C_10
REMARK    6  A    between atoms: N_13  and  C_14
REMARK    7  A    between atoms: C_14  and  C_15
REMARK                            x       y       z     vdW  Elec       q    Type
REMARK                         _______ _______ _______ _____ _____    ______ ____
ROOT
ATOM      1  N   UNL     1       2.612   1.964  18.868  0.00  0.00    +0.000 NA
ATOM      2  H   UNL     1       3.150   2.059  19.730  0.00  0.00    +0.000 HD
ENDROOT
BRANCH   1   3
ATOM      3  C   UNL     1       1.340   2.700  19.008  0.00  0.00    +0.000 C 
ATOM      4  C   UNL     1       1.240   3.803  17.944  0.00  0.00    +0.000 C 
ATOM      5  C   UNL     1       2.098   5.028  18.261  0.00  0.00    +0.000 C 
ATOM      6  N   UNL     1       1.801   5.561  19.604  0.00  0.00    +0.000 NA
ATOM      7  C   UNL     1       2.059   4.525  20.620  0.00  0.00    +0.000 C 
ATOM      8  C   UNL     1       1.141   3.327  20.395  0.00  0.00    +0.000 C 
BRANCH   6   9
ATOM      9  C   UNL     1       2.604   6.761  19.901  0.00  0.00    +0.000 C 
BRANCH   9  10
ATOM     10  C   UNL     1       1.895   8.050  19.551  0.00  0.00    +0.000 A 
ATOM     11  C   UNL     1       2.027   8.621  18.281  0.00  0.00    +0.000 A 
ATOM     12  C   UNL     1       1.393   9.825  18.025  0.00  0.00    +0.000 A 
ATOM     13  N   UNL     1       0.638  10.486  18.929  0.00  0.00    +0.000 NA
ATOM     14  C   UNL     1       0.513   9.913  20.144  0.00  0.00    +0.000 A 
ATOM     15  C   UNL     1       1.110   8.713  20.498  0.00  0.00    +0.000 A 
ENDBRANCH   9  10
ENDBRANCH   6   9
ENDBRANCH   1   3
BRANCH   1  16
ATOM     16  C   UNL     1       3.451   2.400  17.736  0.00  0.00    +0.000 C 
BRANCH  16  17
ATOM     17  C   UNL     1       4.775   3.082  18.117  0.00  0.00    +0.000 C 
BRANCH  17  18
ATOM     18  O   UNL     1       5.362   3.665  16.952  0.00  0.00    +0.000 OA
BRANCH  18  23
ATOM     19  F   UNL     1       7.375   8.744  17.576  0.00  0.00    +0.000 F 
ATOM     20  C   UNL     1       6.866   7.517  17.407  0.00  0.00    +0.000 A 
ATOM     21  C   UNL     1       5.539   7.376  17.017  0.00  0.00    +0.000 A 
ATOM     22  C   UNL     1       4.996   6.098  16.843  0.00  0.00    +0.000 A 
ATOM     23  C   UNL     1       5.786   4.964  17.065  0.00  0.00    +0.000 A 
ATOM     24  C   UNL     1       7.122   5.138  17.449  0.00  0.00    +0.000 A 
ATOM     25  F   UNL     1       7.906   4.071  17.656  0.00  0.00    +0.000 F 
ATOM     26  C   UNL     1       7.668   6.407  17.623  0.00  0.00    +0.000 A 
ENDBRANCH  18  23
ENDBRANCH  17  18
ENDBRANCH  16  17
ENDBRANCH   1  16
TORSDOF 7
ENDMDL
MODEL 6
REMARK VINA RESULT:      -7.2      1.072      1.439
REMARK  Name = 
REMARK  7 active torsions:
REMARK  status: ('A' for Active; 'I' for Inactive)
REMARK    1  A    between atoms: C_5  and  O_6
REMARK    2  A    between atoms: O_6  and  C_7
REMARK    3  A    between atoms: C_7  and  C_8
REMARK    4  A    between atoms: C_8  and  N_9
REMARK    5  A    between atoms: N_9  and  C_10
REMARK    6  A    between atoms: N_13  and  C_14
REMARK    7  A    between atoms: C_14  and  C_15
REMARK                            x       y       z     vdW  Elec       q    Type
REMARK                         _______ _______ _______ _____ _____    ______ ____
ROOT
ATOM      1  N   UNL     1       7.220   7.441  17.681  0.00  0.00    +0.000 NA
ATOM      2  H   UNL     1       7.107   7.622  16.684  0.00  0.00    +0.000 HD
ENDROOT
BRANCH   1   3
ATOM      3  C   UNL     1       7.328   5.985  17.899  0.00  0.00    +0.000 C 
ATOM      4  C   UNL     1       6.921   5.221  16.631  0.00  0.00    +0.000 C 
ATOM      5  C   UNL     1       5.408   5.175  16.412  0.00  0.00    +0.000 C 
ATOM      6  N   UNL     1       4.709   4.644  17.597  0.00  0.00    +0.000 NA
ATOM      7  C   UNL     1       4.993   5.492  18.767  0.00  0.00    +0.000 C 
ATOM      8  C   UNL     1       6.487   5.475  19.078  0.00  0.00    +0.000 C 
BRANCH   6   9
ATOM      9  C   UNL     1       3.253   4.569  17.378  0.00  0.00    +0.000 C 
BRANCH   9  10
ATOM     10  C   UNL     1       2.509   3.957  18.544  0.00  0.00    +0.000 A 
ATOM     11  C   UNL     1       1.707   4.743  19.377  0.00  0.00    +0.000 A 
ATOM     12  C   UNL     1       1.082   4.143  20.457  0.00  0.00    +0.000 A 
ATOM     13  N   UNL     1       1.190   2.830  20.755  0.00  0.00    +0.000 NA
ATOM     14  C   UNL     1       1.958   2.086  19.932  0.00  0.00    +0.000 A 
ATOM     15  C   UNL     1       2.626   2.594  18.829  0.00  0.00    +0.000 A 
ENDBRANCH   9  10
ENDBRANCH   6   9
ENDBRANCH   1   3
BRANCH   1  16
ATOM     16  C   UNL     1       8.368   8.221  18.179  0.00  0.00    +0.000 C 
BRANCH  16  17
ATOM     17  C   UNL     1       8.322   9.729  17.880  0.00  0.00    +0.000 C 
BRANCH  17  18
ATOM     18  O   UNL     1       9.379  10.385  18.584  0.00  0.00    +0.000 OA
BRANCH  18  23
ATOM     19  F   UNL     1      10.679  15.568  17.289  0.00  0.00    +0.000 F 
ATOM     20  C   UNL     1      10.336  14.311  17.597  0.00  0.00    +0.000 A 
ATOM     21  C   UNL     1       9.014  14.022  17.916  0.00  0.00    +0.000 A 
ATOM     22  C   UNL     1       8.648  12.712  18.245  0.00  0.00    +0.000 A 
ATOM     23  C   UNL     1       9.610  11.696  18.257  0.00  0.00    +0.000 A 
ATOM     24  C   UNL     1      10.932  12.016  17.921  0.00  0.00    +0.000 A 
ATOM     25  F   UNL     1      11.873  11.061  17.910  0.00  0.00    +0.000 F 
ATOM     26  C   UNL     1      11.303  13.317  17.593  0.00  0.00    +0.000 A 
ENDBRANCH  18  23
ENDBRANCH  17  18
ENDBRANCH  16  17
ENDBRANCH   1  16
TORSDOF 7
ENDMDL
MODEL 7
REMARK VINA RESULT:      -7.1      1.682      2.199
REMARK  Name = 
REMARK  7 active torsions:
REMARK  status: ('A' for Active; 'I' for Inactive)
REMARK    1  A    between atoms: C_5  and  O_6
REMARK    2  A    between atoms: O_6  and  C_7
REMARK    3  A    between atoms: C_7  and  C_8
REMARK    4  A    between atoms: C_8  and  N_9
REMARK    5  A    between atoms: N_9  and  C_10
REMARK    6  A    between atoms: N_13  and  C_14
REMARK    7  A    between atoms: C_14  and  C_15
REMARK                            x       y       z     vdW  Elec       q    Type
REMARK                         _______ _______ _______ _____ _____    ______ ____
ROOT
ATOM      1  N   UNL     1       8.143   7.393  18.700  0.00  0.00    +0.000 NA
ATOM      2  H   UNL     1       7.491   7.510  19.476  0.00  0.00    +0.000 HD
ENDROOT
BRANCH   1   3
ATOM      3  C   UNL     1       7.676   6.291  17.836  0.00  0.00    +0.000 C 
ATOM      4  C   UNL     1       6.604   6.792  16.859  0.00  0.00    +0.000 C 
ATOM      5  C   UNL     1       5.236   6.992  17.512  0.00  0.00    +0.000 C 
ATOM      6  N   UNL     1       4.787   5.771  18.206  0.00  0.00    +0.000 NA
ATOM      7  C   UNL     1       5.762   5.402  19.248  0.00  0.00    +0.000 C 
ATOM      8  C   UNL     1       7.116   5.093  18.616  0.00  0.00    +0.000 C 
BRANCH   6   9
ATOM      9  C   UNL     1       3.455   5.949  18.811  0.00  0.00    +0.000 C 
BRANCH   9  10
ATOM     10  C   UNL     1       2.672   4.658  18.912  0.00  0.00    +0.000 A 
ATOM     11  C   UNL     1       2.674   3.733  17.865  0.00  0.00    +0.000 A 
ATOM     12  C   UNL     1       1.907   2.587  17.989  0.00  0.00    +0.000 A 
ATOM     13  N   UNL     1       1.156   2.298  19.074  0.00  0.00    +0.000 NA
ATOM     14  C   UNL     1       1.176   3.199  20.079  0.00  0.00    +0.000 A 
ATOM     15  C   UNL     1       1.909   4.375  20.048  0.00  0.00    +0.000 A 
ENDBRANCH   9  10
ENDBRANCH   6   9
ENDBRANCH   1   3
BRANCH   1  16
ATOM     16  C   UNL     1       8.297   8.688  18.011  0.00  0.00    +0.000 C 
BRANCH  16  17
ATOM     17  C   UNL     1       8.951   9.805  18.840  0.00  0.00    +0.000 C 
BRANCH  17  18
ATOM     18  O   UNL     1       9.587  10.737  17.963  0.00  0.00    +0.000 OA
BRANCH  18  23
ATOM     19  F   UNL     1      11.027  15.535  20.228  0.00  0.00    +0.000 F 
ATOM     20  C   UNL     1      10.659  14.380  19.660  0.00  0.00    +0.000 A 
ATOM     21  C   UNL     1       9.410  14.283  19.058  0.00  0.00    +0.000 A 
ATOM     22  C   UNL     1       9.014  13.078  18.467  0.00  0.00    +0.000 A 
ATOM     23  C   UNL     1       9.872  11.972  18.485  0.00  0.00    +0.000 A 
ATOM     24  C   UNL     1      11.128  12.103  19.091  0.00  0.00    +0.000 A 
ATOM     25  F   UNL     1      11.976  11.065  19.112  0.00  0.00    +0.000 F 
ATOM     26  C   UNL     1      11.527  13.299  19.681  0.00  0.00    +0.000 A 
ENDBRANCH  18  23
ENDBRANCH  17  18
ENDBRANCH  16  17
ENDBRANCH   1  16
TORSDOF 7
ENDMDL
MODEL 8
REMARK VINA RESULT:      -7.1      4.520      6.817
REMARK  Name = 
REMARK  7 active torsions:
REMARK  status: ('A' for Active; 'I' for Inactive)
REMARK    1  A    between atoms: C_5  and  O_6
REMARK    2  A    between atoms: O_6  and  C_7
REMARK    3  A    between atoms: C_7  and  C_8
REMARK    4  A    between atoms: C_8  and  N_9
REMARK    5  A    between atoms: N_9  and  C_10
REMARK    6  A    between atoms: N_13  and  C_14
REMARK    7  A    between atoms: C_14  and  C_15
REMARK                            x       y       z     vdW  Elec       q    Type
REMARK                         _______ _______ _______ _____ _____    ______ ____
ROOT
ATOM      1  N   UNL     1       2.366   1.777  18.787  0.00  0.00    +0.000 NA
ATOM      2  H   UNL     1       3.027   1.915  19.552  0.00  0.00    +0.000 HD
ENDROOT
BRANCH   1   3
ATOM      3  C   UNL     1       1.138   2.547  19.063  0.00  0.00    +0.000 C 
ATOM      4  C   UNL     1       0.987   3.695  18.055  0.00  0.00    +0.000 C 
ATOM      5  C   UNL     1       1.911   4.879  18.343  0.00  0.00    +0.000 C 
ATOM      6  N   UNL     1       1.748   5.365  19.725  0.00  0.00    +0.000 NA
ATOM      7  C   UNL     1       2.055   4.281  20.676  0.00  0.00    +0.000 C 
ATOM      8  C   UNL     1       1.079   3.123  20.485  0.00  0.00    +0.000 C 
BRANCH   6   9
ATOM      9  C   UNL     1       2.616   6.526  19.998  0.00  0.00    +0.000 C 
BRANCH   9  10
ATOM     10  C   UNL     1       1.912   7.850  19.804  0.00  0.00    +0.000 A 
ATOM     11  C   UNL     1       1.181   8.434  20.844  0.00  0.00    +0.000 A 
ATOM     12  C   UNL     1       0.519   9.626  20.603  0.00  0.00    +0.000 A 
ATOM     13  N   UNL     1       0.542  10.273  19.418  0.00  0.00    +0.000 NA
ATOM     14  C   UNL     1       1.262   9.700  18.430  0.00  0.00    +0.000 A 
ATOM     15  C   UNL     1       1.956   8.508  18.573  0.00  0.00    +0.000 A 
ENDBRANCH   9  10
ENDBRANCH   6   9
ENDBRANCH   1   3
BRANCH   1  16
ATOM     16  C   UNL     1       3.033   2.122  17.518  0.00  0.00    +0.000 C 
BRANCH  16  17
ATOM     17  C   UNL     1       4.458   2.684  17.650  0.00  0.00    +0.000 C 
BRANCH  17  18
ATOM     18  O   UNL     1       4.534   3.948  16.989  0.00  0.00    +0.000 OA
BRANCH  18  23
ATOM     19  F   UNL     1       8.600   7.180  18.793  0.00  0.00    +0.000 F 
ATOM     20  C   UNL     1       7.623   6.392  18.329  0.00  0.00    +0.000 A 
ATOM     21  C   UNL     1       7.361   6.360  16.964  0.00  0.00    +0.000 A 
ATOM     22  C   UNL     1       6.337   5.544  16.470  0.00  0.00    +0.000 A 
ATOM     23  C   UNL     1       5.575   4.765  17.349  0.00  0.00    +0.000 A 
ATOM     24  C   UNL     1       5.868   4.811  18.718  0.00  0.00    +0.000 A 
ATOM     25  F   UNL     1       5.164   4.066  19.581  0.00  0.00    +0.000 F 
ATOM     26  C   UNL     1       6.886   5.621  19.215  0.00  0.00    +0.000 A 
ENDBRANCH  18  23
ENDBRANCH  17  18
ENDBRANCH  16  17
ENDBRANCH   1  16
TORSDOF 7
ENDMDL
MODEL 9
REMARK VINA RESULT:      -7.1      1.636      1.984
REMARK  Name = 
REMARK  7 active torsions:
REMARK  status: ('A' for Active; 'I' for Inactive)
REMARK    1  A    between atoms: C_5  and  O_6
REMARK    2  A    between atoms: O_6  and  C_7
REMARK    3  A    between atoms: C_7  and  C_8
REMARK    4  A    between atoms: C_8  and  N_9
REMARK    5  A    between atoms: N_9  and  C_10
REMARK    6  A    between atoms: N_13  and  C_14
REMARK    7  A    between atoms: C_14  and  C_15
REMARK                            x       y       z     vdW  Elec       q    Type
REMARK                         _______ _______ _______ _____ _____    ______ ____
ROOT
ATOM      1  N   UNL     1       6.812   6.642  17.762  0.00  0.00    +0.000 NA
ATOM      2  H   UNL     1       6.503   6.772  18.726  0.00  0.00    +0.000 HD
ENDROOT
BRANCH   1   3
ATOM      3  C   UNL     1       5.644   6.723  16.864  0.00  0.00    +0.000 C 
ATOM      4  C   UNL     1       4.340   6.685  17.675  0.00  0.00    +0.000 C 
ATOM      5  C   UNL     1       3.981   5.286  18.177  0.00  0.00    +0.000 C 
ATOM      6  N   UNL     1       3.944   4.310  17.073  0.00  0.00    +0.000 NA
ATOM      7  C   UNL     1       5.260   4.254  16.412  0.00  0.00    +0.000 C 
ATOM      8  C   UNL     1       5.603   5.611  15.806  0.00  0.00    +0.000 C 
BRANCH   6   9
ATOM      9  C   UNL     1       3.568   2.967  17.548  0.00  0.00    +0.000 C 
BRANCH   9  10
ATOM     10  C   UNL     1       2.772   2.995  18.835  0.00  0.00    +0.000 A 
ATOM     11  C   UNL     1       1.427   3.374  18.839  0.00  0.00    +0.000 A 
ATOM     12  C   UNL     1       0.754   3.426  20.048  0.00  0.00    +0.000 A 
ATOM     13  N   UNL     1       1.319   3.119  21.237  0.00  0.00    +0.000 NA
ATOM     14  C   UNL     1       2.615   2.744  21.210  0.00  0.00    +0.000 A 
ATOM     15  C   UNL     1       3.373   2.665  20.052  0.00  0.00    +0.000 A 
ENDBRANCH   9  10
ENDBRANCH   6   9
ENDBRANCH   1   3
BRANCH   1  16
ATOM     16  C   UNL     1       7.878   7.618  17.470  0.00  0.00    +0.000 C 
BRANCH  16  17
ATOM     17  C   UNL     1       7.574   9.070  17.872  0.00  0.00    +0.000 C 
BRANCH  17  18
ATOM     18  O   UNL     1       8.700   9.894  17.567  0.00  0.00    +0.000 OA
BRANCH  18  23
ATOM     19  F   UNL     1      10.252  13.726  21.192  0.00  0.00    +0.000 F 
ATOM     20  C   UNL     1       9.869  12.776  20.330  0.00  0.00    +0.000 A 
ATOM     21  C   UNL     1       9.962  11.440  20.702  0.00  0.00    +0.000 A 
ATOM     22  C   UNL     1       9.570  10.439  19.806  0.00  0.00    +0.000 A 
ATOM     23  C   UNL     1       9.090  10.782  18.536  0.00  0.00    +0.000 A 
ATOM     24  C   UNL     1       8.999  12.138  18.194  0.00  0.00    +0.000 A 
ATOM     25  F   UNL     1       8.531  12.497  16.991  0.00  0.00    +0.000 F 
ATOM     26  C   UNL     1       9.388  13.137  19.081  0.00  0.00    +0.000 A 
ENDBRANCH  18  23
ENDBRANCH  17  18
ENDBRANCH  16  17
ENDBRANCH   1  16
TORSDOF 7
ENDMDL
