MODEL 1
REMARK VINA RESULT:      -7.8      0.000      0.000
REMARK  Name = 
REMARK  11 active torsions:
REMARK  status: ('A' for Active; 'I' for Inactive)
REMARK    1  A    between atoms: C_2  and  C_3
REMARK    2  A    between atoms: C_3  and  C_4
REMARK    3  A    between atoms: C_4  and  C_5
REMARK    4  A    between atoms: C_5  and  C_6
REMARK    5  A    between atoms: C_6  and  C_7
REMARK    6  A    between atoms: C_7  and  N_8
REMARK    7  A    between atoms: C_9  and  S_10
REMARK    8  A    between atoms: S_10  and  C_11
REMARK    9  A    between atoms: C_11  and  C_12
REMARK   10  A    between atoms: N_27  and  C_28
REMARK   11  A    between atoms: C_28  and  C_29
REMARK                            x       y       z     vdW  Elec       q    Type
REMARK                         _______ _______ _______ _____ _____    ______ ____
ROOT
ATOM      1  N   UNL     1       4.378   5.912  17.272  0.00  0.00    +0.000 N 
ATOM      2  C   UNL     1       3.239   6.521  17.793  0.00  0.00    +0.000 A 
ATOM      3  N   UNL     1       2.238   5.866  18.294  0.00  0.00    +0.000 NA
ATOM      4  C   UNL     1       2.291   4.463  18.323  0.00  0.00    +0.000 A 
ATOM      5  C   UNL     1       1.215   3.728  18.822  0.00  0.00    +0.000 A 
ATOM      6  C   UNL     1       1.243   2.324  18.834  0.00  0.00    +0.000 A 
ATOM      7  C   UNL     1       2.366   1.637  18.373  0.00  0.00    +0.000 A 
ATOM      8  C   UNL     1       3.444   2.356  17.875  0.00  0.00    +0.000 A 
ATOM      9  C   UNL     1       3.378   3.756  17.833  0.00  0.00    +0.000 A 
ATOM     10  C   UNL     1       4.438   4.523  17.187  0.00  0.00    +0.000 A 
ATOM     11  O   UNL     1       5.288   3.893  16.564  0.00  0.00    +0.000 OA
ENDROOT
BRANCH   1  12
ATOM     12  C   UNL     1       5.538   6.628  16.717  0.00  0.00    +0.000 C 
BRANCH  12  13
ATOM     13  C   UNL     1       6.628   6.921  17.763  0.00  0.00    +0.000 C 
BRANCH  13  14
ATOM     14  C   UNL     1       7.846   7.719  17.269  0.00  0.00    +0.000 C 
BRANCH  14  15
ATOM     15  C   UNL     1       7.996   9.138  17.824  0.00  0.00    +0.000 C 
BRANCH  15  16
ATOM     16  C   UNL     1       8.938   9.273  19.010  0.00  0.00    +0.000 C 
BRANCH  16  18
ATOM     17  O   UNL     1       9.729  11.182  20.238  0.00  0.00    +0.000 OA
ATOM     18  C   UNL     1       9.455  10.694  19.141  0.00  0.00    +0.000 C 
ATOM     19  N   UNL     1       9.545  11.392  17.960  0.00  0.00    +0.000 N 
ATOM     20  H   UNL     1       9.392  10.922  17.076  0.00  0.00    +0.000 HD
BRANCH  19  21
ATOM     21  C   UNL     1      10.019  12.754  17.901  0.00  0.00    +0.000 C 
BRANCH  21  22
ATOM     22  C   UNL     1       8.859  13.675  17.999  0.00  0.00    +0.000 A 
ATOM     23  C   UNL     1       8.677  14.908  18.591  0.00  0.00    +0.000 A 
ATOM     24  C   UNL     1       7.327  15.267  18.360  0.00  0.00    +0.000 A 
ATOM     25  C   UNL     1       6.775  14.236  17.638  0.00  0.00    +0.000 A 
ATOM     26  O   UNL     1       7.697  13.265  17.412  0.00  0.00    +0.000 OA
ENDBRANCH  21  22
ENDBRANCH  19  21
ENDBRANCH  16  18
ENDBRANCH  15  16
ENDBRANCH  14  15
ENDBRANCH  13  14
ENDBRANCH  12  13
ENDBRANCH   1  12
BRANCH   2  27
ATOM     27  S   UNL     1       3.125   8.284  17.717  0.00  0.00    +0.000 S 
BRANCH  27  28
ATOM     28  C   UNL     1       1.383   8.555  18.151  0.00  0.00    +0.000 C 
BRANCH  28  29
ATOM     29  C   UNL     1       1.161   9.141  19.532  0.00  0.00    +0.000 A 
ATOM     30  C   UNL     1       1.372   8.389  20.693  0.00  0.00    +0.000 A 
ATOM     31  C   UNL     1       1.254   9.012  21.931  0.00  0.00    +0.000 A 
ATOM     32  N   UNL     1       0.941  10.318  22.092  0.00  0.00    +0.000 NA
ATOM     33  C   UNL     1       0.739  11.026  20.965  0.00  0.00    +0.000 A 
ATOM     34  C   UNL     1       0.832  10.493  19.686  0.00  0.00    +0.000 A 
ENDBRANCH  28  29
ENDBRANCH  27  28
ENDBRANCH   2  27
TORSDOF 11
ENDMDL
MODEL 2
REMARK VINA RESULT:      -7.6      4.865      9.285
REMARK  Name = 
REMARK  11 active torsions:
REMARK  status: ('A' for Active; 'I' for Inactive)
REMARK    1  A    between atoms: C_2  and  C_3
REMARK    2  A    between atoms: C_3  and  C_4
REMARK    3  A    between atoms: C_4  and  C_5
REMARK    4  A    between atoms: C_5  and  C_6
REMARK    5  A    between atoms: C_6  and  C_7
REMARK    6  A    between atoms: C_7  and  N_8
REMARK    7  A    between atoms: C_9  and  S_10
REMARK    8  A    between atoms: S_10  and  C_11
REMARK    9  A    between atoms: C_11  and  C_12
REMARK   10  A    between atoms: N_27  and  C_28
REMARK   11  A    between atoms: C_28  and  C_29
REMARK                            x       y       z     vdW  Elec       q    Type
REMARK                         _______ _______ _______ _____ _____    ______ ____
ROOT
ATOM      1  N   UNL     1       3.049   6.874  18.348  0.00  0.00    +0.000 N 
ATOM      2  C   UNL     1       3.755   5.972  17.555  0.00  0.00    +0.000 A 
ATOM      3  N   UNL     1       3.703   4.685  17.708  0.00  0.00    +0.000 NA
ATOM      4  C   UNL     1       2.891   4.155  18.723  0.00  0.00    +0.000 A 
ATOM      5  C   UNL     1       2.842   2.776  18.937  0.00  0.00    +0.000 A 
ATOM      6  C   UNL     1       2.055   2.232  19.965  0.00  0.00    +0.000 A 
ATOM      7  C   UNL     1       1.281   3.062  20.775  0.00  0.00    +0.000 A 
ATOM      8  C   UNL     1       1.319   4.435  20.572  0.00  0.00    +0.000 A 
ATOM      9  C   UNL     1       2.145   4.961  19.568  0.00  0.00    +0.000 A 
ATOM     10  C   UNL     1       2.307   6.404  19.430  0.00  0.00    +0.000 A 
ATOM     11  O   UNL     1       1.822   7.111  20.309  0.00  0.00    +0.000 OA
ENDROOT
BRANCH   1  12
ATOM     12  C   UNL     1       3.070   8.336  18.185  0.00  0.00    +0.000 C 
BRANCH  12  13
ATOM     13  C   UNL     1       1.697   8.927  17.822  0.00  0.00    +0.000 C 
BRANCH  13  14
ATOM     14  C   UNL     1       1.137   9.987  18.784  0.00  0.00    +0.000 C 
BRANCH  14  15
ATOM     15  C   UNL     1      -0.388  10.114  18.839  0.00  0.00    +0.000 C 
BRANCH  15  16
ATOM     16  C   UNL     1      -1.004  10.989  17.758  0.00  0.00    +0.000 C 
BRANCH  16  18
ATOM     17  O   UNL     1      -2.873   9.482  17.632  0.00  0.00    +0.000 OA
ATOM     18  C   UNL     1      -2.464  10.640  17.536  0.00  0.00    +0.000 C 
ATOM     19  N   UNL     1      -3.267  11.698  17.180  0.00  0.00    +0.000 N 
ATOM     20  H   UNL     1      -2.905  12.644  17.199  0.00  0.00    +0.000 HD
BRANCH  19  21
ATOM     21  C   UNL     1      -4.682  11.546  16.933  0.00  0.00    +0.000 C 
BRANCH  21  22
ATOM     22  C   UNL     1      -5.410  11.641  18.223  0.00  0.00    +0.000 A 
ATOM     23  C   UNL     1      -5.332  12.510  19.292  0.00  0.00    +0.000 A 
ATOM     24  C   UNL     1      -6.278  12.060  20.244  0.00  0.00    +0.000 A 
ATOM     25  C   UNL     1      -6.878  10.952  19.693  0.00  0.00    +0.000 A 
ATOM     26  O   UNL     1      -6.359  10.691  18.465  0.00  0.00    +0.000 OA
ENDBRANCH  21  22
ENDBRANCH  19  21
ENDBRANCH  16  18
ENDBRANCH  15  16
ENDBRANCH  14  15
ENDBRANCH  13  14
ENDBRANCH  12  13
ENDBRANCH   1  12
BRANCH   2  27
ATOM     27  S   UNL     1       4.827   6.619  16.307  0.00  0.00    +0.000 S 
BRANCH  27  28
ATOM     28  C   UNL     1       6.018   5.264  16.111  0.00  0.00    +0.000 C 
BRANCH  28  29
ATOM     29  C   UNL     1       6.296   4.871  14.673  0.00  0.00    +0.000 A 
ATOM     30  C   UNL     1       7.413   5.352  13.980  0.00  0.00    +0.000 A 
ATOM     31  C   UNL     1       7.671   4.872  12.701  0.00  0.00    +0.000 A 
ATOM     32  N   UNL     1       6.902   3.958  12.067  0.00  0.00    +0.000 NA
ATOM     33  C   UNL     1       5.830   3.506  12.747  0.00  0.00    +0.000 A 
ATOM     34  C   UNL     1       5.490   3.926  14.026  0.00  0.00    +0.000 A 
ENDBRANCH  28  29
ENDBRANCH  27  28
ENDBRANCH   2  27
TORSDOF 11
ENDMDL
MODEL 3
REMARK VINA RESULT:      -7.5      0.882      1.223
REMARK  Name = 
REMARK  11 active torsions:
REMARK  status: ('A' for Active; 'I' for Inactive)
REMARK    1  A    between atoms: C_2  and  C_3
REMARK    2  A    between atoms: C_3  and  C_4
REMARK    3  A    between atoms: C_4  and  C_5
REMARK    4  A    between atoms: C_5  and  C_6
REMARK    5  A    between atoms: C_6  and  C_7
REMARK    6  A    between atoms: C_7  and  N_8
REMARK    7  A    between atoms: C_9  and  S_10
REMARK    8  A    between atoms: S_10  and  C_11
REMARK    9  A    between atoms: C_11  and  C_12
REMARK   10  A    between atoms: N_27  and  C_28
REMARK   11  A    between atoms: C_28  and  C_29
REMARK                            x       y       z     vdW  Elec       q    Type
REMARK                         _______ _______ _______ _____ _____    ______ ____
ROOT
ATOM      1  N   UNL     1       4.401   6.020  17.281  0.00  0.00    +0.000 N 
ATOM      2  C   UNL     1       3.240   6.607  17.781  0.00  0.00    +0.000 A 
ATOM      3  N   UNL     1       2.247   5.933  18.272  0.00  0.00    +0.000 NA
ATOM      4  C   UNL     1       2.331   4.533  18.313  0.00  0.00    +0.000 A 
ATOM      5  C   UNL     1       1.264   3.777  18.801  0.00  0.00    +0.000 A 
ATOM      6  C   UNL     1       1.323   2.374  18.825  0.00  0.00    +0.000 A 
ATOM      7  C   UNL     1       2.468   1.709  18.386  0.00  0.00    +0.000 A 
ATOM      8  C   UNL     1       3.537   2.448  17.899  0.00  0.00    +0.000 A 
ATOM      9  C   UNL     1       3.441   3.847  17.844  0.00  0.00    +0.000 A 
ATOM     10  C   UNL     1       4.493   4.632  17.209  0.00  0.00    +0.000 A 
ATOM     11  O   UNL     1       5.366   4.017  16.604  0.00  0.00    +0.000 OA
ENDROOT
BRANCH   1  12
ATOM     12  C   UNL     1       5.552   6.758  16.739  0.00  0.00    +0.000 C 
BRANCH  12  13
ATOM     13  C   UNL     1       6.666   6.993  17.774  0.00  0.00    +0.000 C 
BRANCH  13  14
ATOM     14  C   UNL     1       7.876   7.813  17.296  0.00  0.00    +0.000 C 
BRANCH  14  15
ATOM     15  C   UNL     1       7.930   9.272  17.759  0.00  0.00    +0.000 C 
BRANCH  15  16
ATOM     16  C   UNL     1       8.926   9.561  18.872  0.00  0.00    +0.000 C 
BRANCH  16  18
ATOM     17  O   UNL     1      10.255  11.182  17.697  0.00  0.00    +0.000 OA
ATOM     18  C   UNL     1       9.574  10.920  18.689  0.00  0.00    +0.000 C 
ATOM     19  N   UNL     1       9.380  11.802  19.726  0.00  0.00    +0.000 N 
ATOM     20  H   UNL     1       8.742  11.574  20.479  0.00  0.00    +0.000 HD
BRANCH  19  21
ATOM     21  C   UNL     1       9.923  13.140  19.716  0.00  0.00    +0.000 C 
BRANCH  21  22
ATOM     22  C   UNL     1       8.863  14.089  19.294  0.00  0.00    +0.000 A 
ATOM     23  C   UNL     1       7.645  14.449  19.834  0.00  0.00    +0.000 A 
ATOM     24  C   UNL     1       7.076  15.392  18.945  0.00  0.00    +0.000 A 
ATOM     25  C   UNL     1       7.984  15.554  17.926  0.00  0.00    +0.000 A 
ATOM     26  O   UNL     1       9.073  14.769  18.129  0.00  0.00    +0.000 OA
ENDBRANCH  21  22
ENDBRANCH  19  21
ENDBRANCH  16  18
ENDBRANCH  15  16
ENDBRANCH  14  15
ENDBRANCH  13  14
ENDBRANCH  12  13
ENDBRANCH   1  12
BRANCH   2  27
ATOM     27  S   UNL     1       3.088   8.366  17.689  0.00  0.00    +0.000 S 
BRANCH  27  28
ATOM     28  C   UNL     1       1.358   8.609  18.183  0.00  0.00    +0.000 C 
BRANCH  28  29
ATOM     29  C   UNL     1       1.175   9.275  19.534  0.00  0.00    +0.000 A 
ATOM     30  C   UNL     1       0.839  10.629  19.648  0.00  0.00    +0.000 A 
ATOM     31  C   UNL     1       0.580  11.155  20.908  0.00  0.00    +0.000 A 
ATOM     32  N   UNL     1       0.635  10.437  22.053  0.00  0.00    +0.000 NA
ATOM     33  C   UNL     1       0.961   9.136  21.925  0.00  0.00    +0.000 A 
ATOM     34  C   UNL     1       1.238   8.522  20.712  0.00  0.00    +0.000 A 
ENDBRANCH  28  29
ENDBRANCH  27  28
ENDBRANCH   2  27
TORSDOF 11
ENDMDL
MODEL 4
REMARK VINA RESULT:      -7.4      1.159      1.359
REMARK  Name = 
REMARK  11 active torsions:
REMARK  status: ('A' for Active; 'I' for Inactive)
REMARK    1  A    between atoms: C_2  and  C_3
REMARK    2  A    between atoms: C_3  and  C_4
REMARK    3  A    between atoms: C_4  and  C_5
REMARK    4  A    between atoms: C_5  and  C_6
REMARK    5  A    between atoms: C_6  and  C_7
REMARK    6  A    between atoms: C_7  and  N_8
REMARK    7  A    between atoms: C_9  and  S_10
REMARK    8  A    between atoms: S_10  and  C_11
REMARK    9  A    between atoms: C_11  and  C_12
REMARK   10  A    between atoms: N_27  and  C_28
REMARK   11  A    between atoms: C_28  and  C_29
REMARK                            x       y       z     vdW  Elec       q    Type
REMARK                         _______ _______ _______ _____ _____    ______ ____
ROOT
ATOM      1  N   UNL     1       4.542   5.943  17.173  0.00  0.00    +0.000 N 
ATOM      2  C   UNL     1       3.408   6.571  17.682  0.00  0.00    +0.000 A 
ATOM      3  N   UNL     1       2.387   5.933  18.164  0.00  0.00    +0.000 NA
ATOM      4  C   UNL     1       2.412   4.530  18.186  0.00  0.00    +0.000 A 
ATOM      5  C   UNL     1       1.313   3.813  18.665  0.00  0.00    +0.000 A 
ATOM      6  C   UNL     1       1.313   2.409  18.669  0.00  0.00    +0.000 A 
ATOM      7  C   UNL     1       2.429   1.702  18.219  0.00  0.00    +0.000 A 
ATOM      8  C   UNL     1       3.528   2.402  17.741  0.00  0.00    +0.000 A 
ATOM      9  C   UNL     1       3.491   3.804  17.707  0.00  0.00    +0.000 A 
ATOM     10  C   UNL     1       4.575   4.553  17.081  0.00  0.00    +0.000 A 
ATOM     11  O   UNL     1       5.421   3.909  16.466  0.00  0.00    +0.000 OA
ENDROOT
BRANCH   1  12
ATOM     12  C   UNL     1       5.723   6.638  16.639  0.00  0.00    +0.000 C 
BRANCH  12  13
ATOM     13  C   UNL     1       6.771   6.970  17.716  0.00  0.00    +0.000 C 
BRANCH  13  14
ATOM     14  C   UNL     1       7.817   8.033  17.341  0.00  0.00    +0.000 C 
BRANCH  14  15
ATOM     15  C   UNL     1       8.528   8.725  18.508  0.00  0.00    +0.000 C 
BRANCH  15  16
ATOM     16  C   UNL     1       8.419  10.242  18.523  0.00  0.00    +0.000 C 
BRANCH  16  18
ATOM     17  O   UNL     1      10.548  10.676  19.552  0.00  0.00    +0.000 OA
ATOM     18  C   UNL     1       9.789  10.889  18.605  0.00  0.00    +0.000 C 
ATOM     19  N   UNL     1      10.088  11.753  17.578  0.00  0.00    +0.000 N 
ATOM     20  H   UNL     1       9.470  11.829  16.778  0.00  0.00    +0.000 HD
BRANCH  19  21
ATOM     21  C   UNL     1      11.348  12.452  17.496  0.00  0.00    +0.000 C 
BRANCH  21  22
ATOM     22  C   UNL     1      11.179  13.818  18.052  0.00  0.00    +0.000 A 
ATOM     23  C   UNL     1      11.911  14.574  18.945  0.00  0.00    +0.000 A 
ATOM     24  C   UNL     1      11.218  15.799  19.095  0.00  0.00    +0.000 A 
ATOM     25  C   UNL     1      10.114  15.717  18.279  0.00  0.00    +0.000 A 
ATOM     26  O   UNL     1      10.083  14.519  17.640  0.00  0.00    +0.000 OA
ENDBRANCH  21  22
ENDBRANCH  19  21
ENDBRANCH  16  18
ENDBRANCH  15  16
ENDBRANCH  14  15
ENDBRANCH  13  14
ENDBRANCH  12  13
ENDBRANCH   1  12
BRANCH   2  27
ATOM     27  S   UNL     1       3.330   8.336  17.614  0.00  0.00    +0.000 S 
BRANCH  27  28
ATOM     28  C   UNL     1       1.584   8.639  18.006  0.00  0.00    +0.000 C 
BRANCH  28  29
ATOM     29  C   UNL     1       1.337   9.215  19.388  0.00  0.00    +0.000 A 
ATOM     30  C   UNL     1       1.431   8.428  20.542  0.00  0.00    +0.000 A 
ATOM     31  C   UNL     1       1.300   9.036  21.785  0.00  0.00    +0.000 A 
ATOM     32  N   UNL     1       1.081  10.359  21.960  0.00  0.00    +0.000 NA
ATOM     33  C   UNL     1       0.991  11.101  20.840  0.00  0.00    +0.000 A 
ATOM     34  C   UNL     1       1.107  10.585  19.556  0.00  0.00    +0.000 A 
ENDBRANCH  28  29
ENDBRANCH  27  28
ENDBRANCH   2  27
TORSDOF 11
ENDMDL
MODEL 5
REMARK VINA RESULT:      -7.2      3.427      4.765
REMARK  Name = 
REMARK  11 active torsions:
REMARK  status: ('A' for Active; 'I' for Inactive)
REMARK    1  A    between atoms: C_2  and  C_3
REMARK    2  A    between atoms: C_3  and  C_4
REMARK    3  A    between atoms: C_4  and  C_5
REMARK    4  A    between atoms: C_5  and  C_6
REMARK    5  A    between atoms: C_6  and  C_7
REMARK    6  A    between atoms: C_7  and  N_8
REMARK    7  A    between atoms: C_9  and  S_10
REMARK    8  A    between atoms: S_10  and  C_11
REMARK    9  A    between atoms: C_11  and  C_12
REMARK   10  A    between atoms: N_27  and  C_28
REMARK   11  A    between atoms: C_28  and  C_29
REMARK                            x       y       z     vdW  Elec       q    Type
REMARK                         _______ _______ _______ _____ _____    ______ ____
ROOT
ATOM      1  N   UNL     1       6.750   5.430  16.186  0.00  0.00    +0.000 N 
ATOM      2  C   UNL     1       5.421   5.042  16.337  0.00  0.00    +0.000 A 
ATOM      3  N   UNL     1       4.737   4.438  15.414  0.00  0.00    +0.000 NA
ATOM      4  C   UNL     1       5.359   4.148  14.190  0.00  0.00    +0.000 A 
ATOM      5  C   UNL     1       4.641   3.531  13.164  0.00  0.00    +0.000 A 
ATOM      6  C   UNL     1       5.242   3.258  11.924  0.00  0.00    +0.000 A 
ATOM      7  C   UNL     1       6.583   3.573  11.706  0.00  0.00    +0.000 A 
ATOM      8  C   UNL     1       7.310   4.185  12.718  0.00  0.00    +0.000 A 
ATOM      9  C   UNL     1       6.679   4.487  13.934  0.00  0.00    +0.000 A 
ATOM     10  C   UNL     1       7.381   5.254  14.957  0.00  0.00    +0.000 A 
ATOM     11  O   UNL     1       8.466   5.740  14.648  0.00  0.00    +0.000 OA
ENDROOT
BRANCH   1  12
ATOM     12  C   UNL     1       7.557   6.096  17.220  0.00  0.00    +0.000 C 
BRANCH  12  13
ATOM     13  C   UNL     1       7.461   7.631  17.170  0.00  0.00    +0.000 C 
BRANCH  13  14
ATOM     14  C   UNL     1       8.018   8.386  18.388  0.00  0.00    +0.000 C 
BRANCH  14  15
ATOM     15  C   UNL     1       8.678   9.739  18.102  0.00  0.00    +0.000 C 
BRANCH  15  16
ATOM     16  C   UNL     1       9.391  10.373  19.287  0.00  0.00    +0.000 C 
BRANCH  16  18
ATOM     17  O   UNL     1      11.550  11.422  19.427  0.00  0.00    +0.000 OA
ATOM     18  C   UNL     1      10.479  11.325  18.826  0.00  0.00    +0.000 C 
ATOM     19  N   UNL     1      10.157  12.089  17.729  0.00  0.00    +0.000 N 
ATOM     20  H   UNL     1       9.302  11.913  17.216  0.00  0.00    +0.000 HD
BRANCH  19  21
ATOM     21  C   UNL     1      11.075  13.045  17.155  0.00  0.00    +0.000 C 
BRANCH  21  22
ATOM     22  C   UNL     1      10.553  14.415  17.385  0.00  0.00    +0.000 A 
ATOM     23  C   UNL     1       9.571  14.928  18.207  0.00  0.00    +0.000 A 
ATOM     24  C   UNL     1       9.521  16.319  17.953  0.00  0.00    +0.000 A 
ATOM     25  C   UNL     1      10.480  16.568  17.000  0.00  0.00    +0.000 A 
ATOM     26  O   UNL     1      11.113  15.419  16.650  0.00  0.00    +0.000 OA
ENDBRANCH  21  22
ENDBRANCH  19  21
ENDBRANCH  16  18
ENDBRANCH  15  16
ENDBRANCH  14  15
ENDBRANCH  13  14
ENDBRANCH  12  13
ENDBRANCH   1  12
BRANCH   2  27
ATOM     27  S   UNL     1       4.600   5.446  17.850  0.00  0.00    +0.000 S 
BRANCH  27  28
ATOM     28  C   UNL     1       4.680   3.867  18.741  0.00  0.00    +0.000 C 
BRANCH  28  29
ATOM     29  C   UNL     1       3.360   3.409  19.334  0.00  0.00    +0.000 A 
ATOM     30  C   UNL     1       2.801   4.033  20.455  0.00  0.00    +0.000 A 
ATOM     31  C   UNL     1       1.539   3.638  20.886  0.00  0.00    +0.000 A 
ATOM     32  N   UNL     1       0.804   2.673  20.289  0.00  0.00    +0.000 NA
ATOM     33  C   UNL     1       1.359   2.081  19.214  0.00  0.00    +0.000 A 
ATOM     34  C   UNL     1       2.611   2.405  18.709  0.00  0.00    +0.000 A 
ENDBRANCH  28  29
ENDBRANCH  27  28
ENDBRANCH   2  27
TORSDOF 11
ENDMDL
MODEL 6
REMARK VINA RESULT:      -7.2      4.855      8.522
REMARK  Name = 
REMARK  11 active torsions:
REMARK  status: ('A' for Active; 'I' for Inactive)
REMARK    1  A    between atoms: C_2  and  C_3
REMARK    2  A    between atoms: C_3  and  C_4
REMARK    3  A    between atoms: C_4  and  C_5
REMARK    4  A    between atoms: C_5  and  C_6
REMARK    5  A    between atoms: C_6  and  C_7
REMARK    6  A    between atoms: C_7  and  N_8
REMARK    7  A    between atoms: C_9  and  S_10
REMARK    8  A    between atoms: S_10  and  C_11
REMARK    9  A    between atoms: C_11  and  C_12
REMARK   10  A    between atoms: N_27  and  C_28
REMARK   11  A    between atoms: C_28  and  C_29
REMARK                            x       y       z     vdW  Elec       q    Type
REMARK                         _______ _______ _______ _____ _____    ______ ____
ROOT
ATOM      1  N   UNL     1       3.430   6.416  18.435  0.00  0.00    +0.000 N 
ATOM      2  C   UNL     1       4.244   5.407  17.926  0.00  0.00    +0.000 A 
ATOM      3  N   UNL     1       4.283   4.203  18.405  0.00  0.00    +0.000 NA
ATOM      4  C   UNL     1       3.460   3.880  19.496  0.00  0.00    +0.000 A 
ATOM      5  C   UNL     1       3.504   2.602  20.058  0.00  0.00    +0.000 A 
ATOM      6  C   UNL     1       2.706   2.272  21.165  0.00  0.00    +0.000 A 
ATOM      7  C   UNL     1       1.828   3.211  21.707  0.00  0.00    +0.000 A 
ATOM      8  C   UNL     1       1.773   4.484  21.157  0.00  0.00    +0.000 A 
ATOM      9  C   UNL     1       2.609   4.807  20.078  0.00  0.00    +0.000 A 
ATOM     10  C   UNL     1       2.669   6.175  19.576  0.00  0.00    +0.000 A 
ATOM     11  O   UNL     1       2.085   7.037  20.226  0.00  0.00    +0.000 OA
ENDROOT
BRANCH   1  12
ATOM     12  C   UNL     1       3.349   7.784  17.900  0.00  0.00    +0.000 C 
BRANCH  12  13
ATOM     13  C   UNL     1       1.908   8.239  17.610  0.00  0.00    +0.000 C 
BRANCH  13  14
ATOM     14  C   UNL     1       1.592   9.717  17.892  0.00  0.00    +0.000 C 
BRANCH  14  15
ATOM     15  C   UNL     1       0.401   9.990  18.815  0.00  0.00    +0.000 C 
BRANCH  15  16
ATOM     16  C   UNL     1       0.763  10.339  20.251  0.00  0.00    +0.000 C 
BRANCH  16  18
ATOM     17  O   UNL     1      -0.873  10.608  21.993  0.00  0.00    +0.000 OA
ATOM     18  C   UNL     1      -0.385  11.045  20.949  0.00  0.00    +0.000 C 
ATOM     19  N   UNL     1      -0.855  12.166  20.308  0.00  0.00    +0.000 N 
ATOM     20  H   UNL     1      -0.367  12.537  19.501  0.00  0.00    +0.000 HD
BRANCH  19  21
ATOM     21  C   UNL     1      -1.941  12.961  20.834  0.00  0.00    +0.000 C 
BRANCH  21  22
ATOM     22  C   UNL     1      -3.190  12.608  20.114  0.00  0.00    +0.000 A 
ATOM     23  C   UNL     1      -3.447  11.923  18.944  0.00  0.00    +0.000 A 
ATOM     24  C   UNL     1      -4.852  11.939  18.770  0.00  0.00    +0.000 A 
ATOM     25  C   UNL     1      -5.362  12.625  19.847  0.00  0.00    +0.000 A 
ATOM     26  O   UNL     1      -4.362  13.033  20.670  0.00  0.00    +0.000 OA
ENDBRANCH  21  22
ENDBRANCH  19  21
ENDBRANCH  16  18
ENDBRANCH  15  16
ENDBRANCH  14  15
ENDBRANCH  13  14
ENDBRANCH  12  13
ENDBRANCH   1  12
BRANCH   2  27
ATOM     27  S   UNL     1       5.330   5.805  16.588  0.00  0.00    +0.000 S 
BRANCH  27  28
ATOM     28  C   UNL     1       5.394   4.229  15.690  0.00  0.00    +0.000 C 
BRANCH  28  29
ATOM     29  C   UNL     1       6.052   4.307  14.325  0.00  0.00    +0.000 A 
ATOM     30  C   UNL     1       7.168   5.119  14.090  0.00  0.00    +0.000 A 
ATOM     31  C   UNL     1       7.791   5.065  12.848  0.00  0.00    +0.000 A 
ATOM     32  N   UNL     1       7.383   4.272  11.832  0.00  0.00    +0.000 NA
ATOM     33  C   UNL     1       6.307   3.500  12.074  0.00  0.00    +0.000 A 
ATOM     34  C   UNL     1       5.618   3.484  13.279  0.00  0.00    +0.000 A 
ENDBRANCH  28  29
ENDBRANCH  27  28
ENDBRANCH   2  27
TORSDOF 11
ENDMDL
MODEL 7
REMARK VINA RESULT:      -7.2      4.550      8.220
REMARK  Name = 
REMARK  11 active torsions:
REMARK  status: ('A' for Active; 'I' for Inactive)
REMARK    1  A    between atoms: C_2  and  C_3
REMARK    2  A    between atoms: C_3  and  C_4
REMARK    3  A    between atoms: C_4  and  C_5
REMARK    4  A    between atoms: C_5  and  C_6
REMARK    5  A    between atoms: C_6  and  C_7
REMARK    6  A    between atoms: C_7  and  N_8
REMARK    7  A    between atoms: C_9  and  S_10
REMARK    8  A    between atoms: S_10  and  C_11
REMARK    9  A    between atoms: C_11  and  C_12
REMARK   10  A    between atoms: N_27  and  C_28
REMARK   11  A    between atoms: C_28  and  C_29
REMARK                            x       y       z     vdW  Elec       q    Type
REMARK                         _______ _______ _______ _____ _____    ______ ____
ROOT
ATOM      1  N   UNL     1       1.841   7.860  19.029  0.00  0.00    +0.000 N 
ATOM      2  C   UNL     1       1.721   7.561  20.384  0.00  0.00    +0.000 A 
ATOM      3  N   UNL     1       1.265   8.395  21.267  0.00  0.00    +0.000 NA
ATOM      4  C   UNL     1       0.862   9.673  20.849  0.00  0.00    +0.000 A 
ATOM      5  C   UNL     1       0.401  10.606  21.781  0.00  0.00    +0.000 A 
ATOM      6  C   UNL     1       0.018  11.896  21.381  0.00  0.00    +0.000 A 
ATOM      7  C   UNL     1       0.063  12.261  20.036  0.00  0.00    +0.000 A 
ATOM      8  C   UNL     1       0.518  11.343  19.099  0.00  0.00    +0.000 A 
ATOM      9  C   UNL     1       0.936  10.073  19.524  0.00  0.00    +0.000 A 
ATOM     10  C   UNL     1       1.547   9.145  18.580  0.00  0.00    +0.000 A 
ATOM     11  O   UNL     1       1.812   9.576  17.461  0.00  0.00    +0.000 OA
ENDROOT
BRANCH   1  12
ATOM     12  C   UNL     1       2.333   6.929  18.001  0.00  0.00    +0.000 C 
BRANCH  12  13
ATOM     13  C   UNL     1       3.867   6.806  17.978  0.00  0.00    +0.000 C 
BRANCH  13  14
ATOM     14  C   UNL     1       4.460   5.917  16.872  0.00  0.00    +0.000 C 
BRANCH  14  15
ATOM     15  C   UNL     1       5.165   4.639  17.335  0.00  0.00    +0.000 C 
BRANCH  15  16
ATOM     16  C   UNL     1       6.681   4.656  17.212  0.00  0.00    +0.000 C 
BRANCH  16  18
ATOM     17  O   UNL     1       7.740   6.148  15.653  0.00  0.00    +0.000 OA
ATOM     18  C   UNL     1       7.114   5.102  15.828  0.00  0.00    +0.000 C 
ATOM     19  N   UNL     1       6.715   4.281  14.801  0.00  0.00    +0.000 N 
ATOM     20  H   UNL     1       6.278   3.389  14.999  0.00  0.00    +0.000 HD
BRANCH  19  21
ATOM     21  C   UNL     1       7.042   4.553  13.420  0.00  0.00    +0.000 C 
BRANCH  21  22
ATOM     22  C   UNL     1       6.336   3.576  12.555  0.00  0.00    +0.000 A 
ATOM     23  C   UNL     1       5.004   3.357  12.266  0.00  0.00    +0.000 A 
ATOM     24  C   UNL     1       4.963   2.251  11.383  0.00  0.00    +0.000 A 
ATOM     25  C   UNL     1       6.269   1.871  11.184  0.00  0.00    +0.000 A 
ATOM     26  O   UNL     1       7.111   2.671  11.889  0.00  0.00    +0.000 OA
ENDBRANCH  21  22
ENDBRANCH  19  21
ENDBRANCH  16  18
ENDBRANCH  15  16
ENDBRANCH  14  15
ENDBRANCH  13  14
ENDBRANCH  12  13
ENDBRANCH   1  12
BRANCH   2  27
ATOM     27  S   UNL     1       2.275   5.978  20.943  0.00  0.00    +0.000 S 
BRANCH  27  28
ATOM     28  C   UNL     1       1.329   4.861  19.869  0.00  0.00    +0.000 C 
BRANCH  28  29
ATOM     29  C   UNL     1       2.085   3.623  19.424  0.00  0.00    +0.000 A 
ATOM     30  C   UNL     1       1.772   2.958  18.233  0.00  0.00    +0.000 A 
ATOM     31  C   UNL     1       2.570   1.894  17.826  0.00  0.00    +0.000 A 
ATOM     32  N   UNL     1       3.643   1.447  18.516  0.00  0.00    +0.000 NA
ATOM     33  C   UNL     1       3.929   2.097  19.660  0.00  0.00    +0.000 A 
ATOM     34  C   UNL     1       3.192   3.168  20.149  0.00  0.00    +0.000 A 
ENDBRANCH  28  29
ENDBRANCH  27  28
ENDBRANCH   2  27
TORSDOF 11
ENDMDL
MODEL 8
REMARK VINA RESULT:      -7.1      4.803      8.664
REMARK  Name = 
REMARK  11 active torsions:
REMARK  status: ('A' for Active; 'I' for Inactive)
REMARK    1  A    between atoms: C_2  and  C_3
REMARK    2  A    between atoms: C_3  and  C_4
REMARK    3  A    between atoms: C_4  and  C_5
REMARK    4  A    between atoms: C_5  and  C_6
REMARK    5  A    between atoms: C_6  and  C_7
REMARK    6  A    between atoms: C_7  and  N_8
REMARK    7  A    between atoms: C_9  and  S_10
REMARK    8  A    between atoms: S_10  and  C_11
REMARK    9  A    between atoms: C_11  and  C_12
REMARK   10  A    between atoms: N_27  and  C_28
REMARK   11  A    between atoms: C_28  and  C_29
REMARK                            x       y       z     vdW  Elec       q    Type
REMARK                         _______ _______ _______ _____ _____    ______ ____
ROOT
ATOM      1  N   UNL     1       3.174   6.613  18.326  0.00  0.00    +0.000 N 
ATOM      2  C   UNL     1       3.837   5.765  17.442  0.00  0.00    +0.000 A 
ATOM      3  N   UNL     1       3.674   4.478  17.420  0.00  0.00    +0.000 NA
ATOM      4  C   UNL     1       2.779   3.892  18.329  0.00  0.00    +0.000 A 
ATOM      5  C   UNL     1       2.608   2.507  18.356  0.00  0.00    +0.000 A 
ATOM      6  C   UNL     1       1.736   1.904  19.277  0.00  0.00    +0.000 A 
ATOM      7  C   UNL     1       0.998   2.686  20.166  0.00  0.00    +0.000 A 
ATOM      8  C   UNL     1       1.157   4.065  20.150  0.00  0.00    +0.000 A 
ATOM      9  C   UNL     1       2.065   4.644  19.250  0.00  0.00    +0.000 A 
ATOM     10  C   UNL     1       2.352   6.073  19.311  0.00  0.00    +0.000 A 
ATOM     11  O   UNL     1       1.889   6.698  20.261  0.00  0.00    +0.000 OA
ENDROOT
BRANCH   1  12
ATOM     12  C   UNL     1       3.322   8.077  18.360  0.00  0.00    +0.000 C 
BRANCH  12  13
ATOM     13  C   UNL     1       2.342   8.809  17.426  0.00  0.00    +0.000 C 
BRANCH  13  14
ATOM     14  C   UNL     1       0.999   9.229  18.046  0.00  0.00    +0.000 C 
BRANCH  14  15
ATOM     15  C   UNL     1       1.076  10.131  19.281  0.00  0.00    +0.000 C 
BRANCH  15  16
ATOM     16  C   UNL     1       0.422  11.496  19.126  0.00  0.00    +0.000 C 
BRANCH  16  18
ATOM     17  O   UNL     1      -0.998  10.948  20.987  0.00  0.00    +0.000 OA
ATOM     18  C   UNL     1      -0.852  11.589  19.946  0.00  0.00    +0.000 C 
ATOM     19  N   UNL     1      -1.828  12.399  19.414  0.00  0.00    +0.000 N 
ATOM     20  H   UNL     1      -1.631  12.973  18.603  0.00  0.00    +0.000 HD
BRANCH  19  21
ATOM     21  C   UNL     1      -3.101  12.604  20.063  0.00  0.00    +0.000 C 
BRANCH  21  22
ATOM     22  C   UNL     1      -4.184  12.136  19.163  0.00  0.00    +0.000 A 
ATOM     23  C   UNL     1      -5.560  12.120  19.265  0.00  0.00    +0.000 A 
ATOM     24  C   UNL     1      -6.043  11.516  18.079  0.00  0.00    +0.000 A 
ATOM     25  C   UNL     1      -4.934  11.209  17.327  0.00  0.00    +0.000 A 
ATOM     26  O   UNL     1      -3.801  11.583  17.975  0.00  0.00    +0.000 OA
ENDBRANCH  21  22
ENDBRANCH  19  21
ENDBRANCH  16  18
ENDBRANCH  15  16
ENDBRANCH  14  15
ENDBRANCH  13  14
ENDBRANCH  12  13
ENDBRANCH   1  12
BRANCH   2  27
ATOM     27  S   UNL     1       5.010   6.473  16.325  0.00  0.00    +0.000 S 
BRANCH  27  28
ATOM     28  C   UNL     1       6.142   5.081  16.054  0.00  0.00    +0.000 C 
BRANCH  28  29
ATOM     29  C   UNL     1       6.407   4.758  14.595  0.00  0.00    +0.000 A 
ATOM     30  C   UNL     1       7.477   5.330  13.897  0.00  0.00    +0.000 A 
ATOM     31  C   UNL     1       7.731   4.913  12.595  0.00  0.00    +0.000 A 
ATOM     32  N   UNL     1       7.002   3.978  11.945  0.00  0.00    +0.000 NA
ATOM     33  C   UNL     1       5.976   3.439  12.630  0.00  0.00    +0.000 A 
ATOM     34  C   UNL     1       5.642   3.791  13.931  0.00  0.00    +0.000 A 
ENDBRANCH  28  29
ENDBRANCH  27  28
ENDBRANCH   2  27
TORSDOF 11
ENDMDL
MODEL 9
REMARK VINA RESULT:      -7.1      3.868      6.720
REMARK  Name = 
REMARK  11 active torsions:
REMARK  status: ('A' for Active; 'I' for Inactive)
REMARK    1  A    between atoms: C_2  and  C_3
REMARK    2  A    between atoms: C_3  and  C_4
REMARK    3  A    between atoms: C_4  and  C_5
REMARK    4  A    between atoms: C_5  and  C_6
REMARK    5  A    between atoms: C_6  and  C_7
REMARK    6  A    between atoms: C_7  and  N_8
REMARK    7  A    between atoms: C_9  and  S_10
REMARK    8  A    between atoms: S_10  and  C_11
REMARK    9  A    between atoms: C_11  and  C_12
REMARK   10  A    between atoms: N_27  and  C_28
REMARK   11  A    between atoms: C_28  and  C_29
REMARK                            x       y       z     vdW  Elec       q    Type
REMARK                         _______ _______ _______ _____ _____    ______ ____
ROOT
ATOM      1  N   UNL     1       3.228   6.472  18.123  0.00  0.00    +0.000 N 
ATOM      2  C   UNL     1       3.943   5.712  17.200  0.00  0.00    +0.000 A 
ATOM      3  N   UNL     1       3.872   4.419  17.123  0.00  0.00    +0.000 NA
ATOM      4  C   UNL     1       3.028   3.732  18.010  0.00  0.00    +0.000 A 
ATOM      5  C   UNL     1       2.957   2.338  17.977  0.00  0.00    +0.000 A 
ATOM      6  C   UNL     1       2.138   1.635  18.875  0.00  0.00    +0.000 A 
ATOM      7  C   UNL     1       1.354   2.323  19.802  0.00  0.00    +0.000 A 
ATOM      8  C   UNL     1       1.414   3.709  19.845  0.00  0.00    +0.000 A 
ATOM      9  C   UNL     1       2.271   4.390  18.967  0.00  0.00    +0.000 A 
ATOM     10  C   UNL     1       2.455   5.832  19.088  0.00  0.00    +0.000 A 
ATOM     11  O   UNL     1       1.957   6.381  20.067  0.00  0.00    +0.000 OA
ENDROOT
BRANCH   1  12
ATOM     12  C   UNL     1       3.272   7.939  18.221  0.00  0.00    +0.000 C 
BRANCH  12  13
ATOM     13  C   UNL     1       1.973   8.618  17.752  0.00  0.00    +0.000 C 
BRANCH  13  14
ATOM     14  C   UNL     1       1.159   9.348  18.833  0.00  0.00    +0.000 C 
BRANCH  14  15
ATOM     15  C   UNL     1       0.423  10.615  18.387  0.00  0.00    +0.000 C 
BRANCH  15  16
ATOM     16  C   UNL     1       0.615  11.825  19.288  0.00  0.00    +0.000 C 
BRANCH  16  18
ATOM     17  O   UNL     1       2.531  12.302  17.916  0.00  0.00    +0.000 OA
ATOM     18  C   UNL     1       1.863  12.600  18.907  0.00  0.00    +0.000 C 
ATOM     19  N   UNL     1       2.205  13.613  19.771  0.00  0.00    +0.000 N 
ATOM     20  H   UNL     1       1.580  13.877  20.523  0.00  0.00    +0.000 HD
BRANCH  19  21
ATOM     21  C   UNL     1       3.361  14.453  19.561  0.00  0.00    +0.000 C 
BRANCH  21  22
ATOM     22  C   UNL     1       3.001  15.544  18.621  0.00  0.00    +0.000 A 
ATOM     23  C   UNL     1       3.522  15.964  17.414  0.00  0.00    +0.000 A 
ATOM     24  C   UNL     1       2.754  17.084  17.016  0.00  0.00    +0.000 A 
ATOM     25  C   UNL     1       1.811  17.272  17.998  0.00  0.00    +0.000 A 
ATOM     26  O   UNL     1       1.951  16.340  18.976  0.00  0.00    +0.000 OA
ENDBRANCH  21  22
ENDBRANCH  19  21
ENDBRANCH  16  18
ENDBRANCH  15  16
ENDBRANCH  14  15
ENDBRANCH  13  14
ENDBRANCH  12  13
ENDBRANCH   1  12
BRANCH   2  27
ATOM     27  S   UNL     1       5.053   6.550  16.109  0.00  0.00    +0.000 S 
BRANCH  27  28
ATOM     28  C   UNL     1       6.406   5.348  15.971  0.00  0.00    +0.000 C 
BRANCH  28  29
ATOM     29  C   UNL     1       6.625   4.802  14.573  0.00  0.00    +0.000 A 
ATOM     30  C   UNL     1       5.783   3.829  14.021  0.00  0.00    +0.000 A 
ATOM     31  C   UNL     1       5.972   3.447  12.698  0.00  0.00    +0.000 A 
ATOM     32  N   UNL     1       6.931   3.957  11.893  0.00  0.00    +0.000 NA
ATOM     33  C   UNL     1       7.733   4.890  12.440  0.00  0.00    +0.000 A 
ATOM     34  C   UNL     1       7.625   5.335  13.750  0.00  0.00    +0.000 A 
ENDBRANCH  28  29
ENDBRANCH  27  28
ENDBRANCH   2  27
TORSDOF 11
ENDMDL
