MODEL 1
REMARK VINA RESULT:     -10.3      0.000      0.000
REMARK  Name = 
REMARK  5 active torsions:
REMARK  status: ('A' for Active; 'I' for Inactive)
REMARK    1  A    between atoms: C_4  and  C_5
REMARK    2  A    between atoms: N_7  and  C_8
REMARK    3  A    between atoms: C_8  and  C_9
REMARK    4  A    between atoms: C_16  and  C_17
REMARK    5  A    between atoms: C_28  and  C_29
REMARK                            x       y       z     vdW  Elec       q    Type
REMARK                         _______ _______ _______ _____ _____    ______ ____
ROOT
ATOM      1  C   UNL     1       3.532   5.887  18.358  0.00  0.00    +0.000 C 
ATOM      2  C   UNL     1       4.177   6.149  17.000  0.00  0.00    +0.000 C 
ATOM      3  N   UNL     1       4.661   4.823  16.567  0.00  0.00    +0.000 NA
ATOM      4  C   UNL     1       3.543   3.927  16.935  0.00  0.00    +0.000 C 
ATOM      5  C   UNL     1       2.715   4.614  18.059  0.00  0.00    +0.000 C 
ENDROOT
BRANCH   1   9
ATOM      6  O   UNL     1       1.873  10.185  17.369  0.00  0.00    +0.000 OA
ATOM      7  C   UNL     1       1.947   9.270  18.189  0.00  0.00    +0.000 A 
ATOM      8  N   UNL     1       2.591   8.095  17.917  0.00  0.00    +0.000 N 
ATOM      9  C   UNL     1       2.725   7.077  18.828  0.00  0.00    +0.000 A 
ATOM     10  N   UNL     1       2.210   7.118  20.014  0.00  0.00    +0.000 NA
ATOM     11  C   UNL     1       1.525   8.283  20.391  0.00  0.00    +0.000 A 
ATOM     12  C   UNL     1       0.992   8.358  21.673  0.00  0.00    +0.000 A 
ATOM     13  C   UNL     1       0.280   9.490  22.081  0.00  0.00    +0.000 A 
ATOM     14  C   UNL     1       0.100  10.574  21.210  0.00  0.00    +0.000 A 
ATOM     15  C   UNL     1       0.650  10.514  19.927  0.00  0.00    +0.000 A 
ATOM     16  C   UNL     1       1.356   9.371  19.533  0.00  0.00    +0.000 A 
ATOM     17  H   UNL     1       3.036   8.059  17.013  0.00  0.00    +0.000 HD
BRANCH  14  18
ATOM     18  C   UNL     1      -0.650  11.740  21.635  0.00  0.00    +0.000 A 
ATOM     19  C   UNL     1      -0.930  12.953  20.960  0.00  0.00    +0.000 A 
ATOM     20  N   UNL     1      -1.653  13.799  21.698  0.00  0.00    +0.000 NA
ATOM     21  N   UNL     1      -1.839  13.129  22.847  0.00  0.00    +0.000 N 
ATOM     22  C   UNL     1      -1.254  11.894  22.861  0.00  0.00    +0.000 A 
ATOM     23  H   UNL     1      -2.377  13.575  23.585  0.00  0.00    +0.000 HD
ENDBRANCH  14  18
ENDBRANCH   1   9
BRANCH   5  24
ATOM     24  C   UNL     1       2.378   3.775  19.280  0.00  0.00    +0.000 A 
ATOM     25  C   UNL     1       1.064   3.569  19.730  0.00  0.00    +0.000 A 
ATOM     26  C   UNL     1       0.796   2.855  20.900  0.00  0.00    +0.000 A 
ATOM     27  C   UNL     1       1.836   2.317  21.647  0.00  0.00    +0.000 A 
ATOM     28  C   UNL     1       3.146   2.495  21.221  0.00  0.00    +0.000 A 
ATOM     29  C   UNL     1       3.404   3.224  20.063  0.00  0.00    +0.000 A 
ATOM     30  F   UNL     1       4.688   3.403  19.730  0.00  0.00    +0.000 F 
ENDBRANCH   5  24
BRANCH   3  31
ATOM     31  C   UNL     1       5.908   4.444  17.269  0.00  0.00    +0.000 C 
BRANCH  31  32
ATOM     32  C   UNL     1       6.788   5.616  17.667  0.00  0.00    +0.000 A 
ATOM     33  C   UNL     1       6.879   6.758  16.861  0.00  0.00    +0.000 A 
ATOM     34  C   UNL     1       7.659   7.846  17.262  0.00  0.00    +0.000 A 
ATOM     35  C   UNL     1       8.340   7.812  18.478  0.00  0.00    +0.000 A 
ATOM     36  C   UNL     1       8.270   6.678  19.282  0.00  0.00    +0.000 A 
ATOM     37  C   UNL     1       7.510   5.581  18.873  0.00  0.00    +0.000 A 
ENDBRANCH  31  32
ENDBRANCH   3  31
TORSDOF 5
ENDMDL
MODEL 2
REMARK VINA RESULT:     -10.1      0.093      1.020
REMARK  Name = 
REMARK  5 active torsions:
REMARK  status: ('A' for Active; 'I' for Inactive)
REMARK    1  A    between atoms: C_4  and  C_5
REMARK    2  A    between atoms: N_7  and  C_8
REMARK    3  A    between atoms: C_8  and  C_9
REMARK    4  A    between atoms: C_16  and  C_17
REMARK    5  A    between atoms: C_28  and  C_29
REMARK                            x       y       z     vdW  Elec       q    Type
REMARK                         _______ _______ _______ _____ _____    ______ ____
ROOT
ATOM      1  C   UNL     1       3.515   5.902  18.372  0.00  0.00    +0.000 C 
ATOM      2  C   UNL     1       4.147   6.170  17.009  0.00  0.00    +0.000 C 
ATOM      3  N   UNL     1       4.632   4.848  16.568  0.00  0.00    +0.000 NA
ATOM      4  C   UNL     1       3.521   3.946  16.944  0.00  0.00    +0.000 C 
ATOM      5  C   UNL     1       2.701   4.627  18.077  0.00  0.00    +0.000 C 
ENDROOT
BRANCH   1   9
ATOM      6  O   UNL     1       1.817  10.190  17.402  0.00  0.00    +0.000 OA
ATOM      7  C   UNL     1       1.908   9.276  18.222  0.00  0.00    +0.000 A 
ATOM      8  N   UNL     1       2.556   8.104  17.942  0.00  0.00    +0.000 N 
ATOM      9  C   UNL     1       2.709   7.089  18.852  0.00  0.00    +0.000 A 
ATOM     10  N   UNL     1       2.211   7.128  20.045  0.00  0.00    +0.000 NA
ATOM     11  C   UNL     1       1.524   8.289  20.431  0.00  0.00    +0.000 A 
ATOM     12  C   UNL     1       1.009   8.362  21.720  0.00  0.00    +0.000 A 
ATOM     13  C   UNL     1       0.296   9.490  22.137  0.00  0.00    +0.000 A 
ATOM     14  C   UNL     1       0.097  10.572  21.268  0.00  0.00    +0.000 A 
ATOM     15  C   UNL     1       0.629  10.514  19.977  0.00  0.00    +0.000 A 
ATOM     16  C   UNL     1       1.336   9.375  19.575  0.00  0.00    +0.000 A 
ATOM     17  H   UNL     1       2.988   8.070  17.032  0.00  0.00    +0.000 HD
BRANCH  14  18
ATOM     18  C   UNL     1      -0.654  11.734  21.703  0.00  0.00    +0.000 A 
ATOM     19  C   UNL     1      -1.525  11.908  22.806  0.00  0.00    +0.000 A 
ATOM     20  N   UNL     1      -2.042  13.138  22.865  0.00  0.00    +0.000 NA
ATOM     21  N   UNL     1      -1.502  13.755  21.801  0.00  0.00    +0.000 N 
ATOM     22  C   UNL     1      -0.668  12.955  21.072  0.00  0.00    +0.000 A 
ATOM     23  H   UNL     1      -1.746  14.726  21.630  0.00  0.00    +0.000 HD
ENDBRANCH  14  18
ENDBRANCH   1   9
BRANCH   5  24
ATOM     24  C   UNL     1       2.378   3.784  19.299  0.00  0.00    +0.000 A 
ATOM     25  C   UNL     1       1.070   3.582  19.768  0.00  0.00    +0.000 A 
ATOM     26  C   UNL     1       0.817   2.864  20.939  0.00  0.00    +0.000 A 
ATOM     27  C   UNL     1       1.865   2.317  21.667  0.00  0.00    +0.000 A 
ATOM     28  C   UNL     1       3.169   2.491  21.223  0.00  0.00    +0.000 A 
ATOM     29  C   UNL     1       3.414   3.224  20.064  0.00  0.00    +0.000 A 
ATOM     30  F   UNL     1       4.693   3.398  19.713  0.00  0.00    +0.000 F 
ENDBRANCH   5  24
BRANCH   3  31
ATOM     31  C   UNL     1       5.887   4.471  17.258  0.00  0.00    +0.000 C 
BRANCH  31  32
ATOM     32  C   UNL     1       6.732   5.648  17.714  0.00  0.00    +0.000 A 
ATOM     33  C   UNL     1       7.454   5.598  18.913  0.00  0.00    +0.000 A 
ATOM     34  C   UNL     1       8.260   6.672  19.299  0.00  0.00    +0.000 A 
ATOM     35  C   UNL     1       8.369   7.798  18.483  0.00  0.00    +0.000 A 
ATOM     36  C   UNL     1       7.645   7.867  17.295  0.00  0.00    +0.000 A 
ATOM     37  C   UNL     1       6.822   6.805  16.919  0.00  0.00    +0.000 A 
ENDBRANCH  31  32
ENDBRANCH   3  31
TORSDOF 5
ENDMDL
MODEL 3
REMARK VINA RESULT:      -9.8      0.795      1.279
REMARK  Name = 
REMARK  5 active torsions:
REMARK  status: ('A' for Active; 'I' for Inactive)
REMARK    1  A    between atoms: C_4  and  C_5
REMARK    2  A    between atoms: N_7  and  C_8
REMARK    3  A    between atoms: C_8  and  C_9
REMARK    4  A    between atoms: C_16  and  C_17
REMARK    5  A    between atoms: C_28  and  C_29
REMARK                            x       y       z     vdW  Elec       q    Type
REMARK                         _______ _______ _______ _____ _____    ______ ____
ROOT
ATOM      1  C   UNL     1       3.684   5.753  18.412  0.00  0.00    +0.000 C 
ATOM      2  C   UNL     1       4.251   5.977  17.012  0.00  0.00    +0.000 C 
ATOM      3  N   UNL     1       4.790   4.658  16.624  0.00  0.00    +0.000 NA
ATOM      4  C   UNL     1       3.743   3.723  17.092  0.00  0.00    +0.000 C 
ATOM      5  C   UNL     1       2.930   4.423  18.218  0.00  0.00    +0.000 C 
ENDROOT
BRANCH   1   9
ATOM      6  O   UNL     1       1.900   9.985  17.355  0.00  0.00    +0.000 OA
ATOM      7  C   UNL     1       1.992   9.081  18.186  0.00  0.00    +0.000 A 
ATOM      8  N   UNL     1       2.678   7.925  17.935  0.00  0.00    +0.000 N 
ATOM      9  C   UNL     1       2.834   6.922  18.858  0.00  0.00    +0.000 A 
ATOM     10  N   UNL     1       2.302   6.958  20.037  0.00  0.00    +0.000 NA
ATOM     11  C   UNL     1       1.575   8.103  20.393  0.00  0.00    +0.000 A 
ATOM     12  C   UNL     1       1.022   8.174  21.667  0.00  0.00    +0.000 A 
ATOM     13  C   UNL     1       0.268   9.286  22.053  0.00  0.00    +0.000 A 
ATOM     14  C   UNL     1       0.064  10.355  21.169  0.00  0.00    +0.000 A 
ATOM     15  C   UNL     1       0.633  10.299  19.893  0.00  0.00    +0.000 A 
ATOM     16  C   UNL     1       1.381   9.177  19.521  0.00  0.00    +0.000 A 
ATOM     17  H   UNL     1       3.136   7.894  17.037  0.00  0.00    +0.000 HD
BRANCH  14  18
ATOM     18  C   UNL     1      -0.729  11.500  21.572  0.00  0.00    +0.000 A 
ATOM     19  C   UNL     1      -1.224  11.875  22.845  0.00  0.00    +0.000 A 
ATOM     20  N   UNL     1      -1.933  13.006  22.808  0.00  0.00    +0.000 NA
ATOM     21  N   UNL     1      -1.892  13.359  21.513  0.00  0.00    +0.000 N 
ATOM     22  C   UNL     1      -1.187  12.487  20.732  0.00  0.00    +0.000 A 
ATOM     23  H   UNL     1      -2.368  14.210  21.228  0.00  0.00    +0.000 HD
ENDBRANCH  14  18
ENDBRANCH   1   9
BRANCH   5  24
ATOM     24  C   UNL     1       2.697   3.635  19.495  0.00  0.00    +0.000 A 
ATOM     25  C   UNL     1       3.683   2.835  20.094  0.00  0.00    +0.000 A 
ATOM     26  C   UNL     1       3.410   2.063  21.226  0.00  0.00    +0.000 A 
ATOM     27  C   UNL     1       2.145   2.080  21.798  0.00  0.00    +0.000 A 
ATOM     28  C   UNL     1       1.152   2.870  21.235  0.00  0.00    +0.000 A 
ATOM     29  C   UNL     1       1.428   3.621  20.095  0.00  0.00    +0.000 A 
ATOM     30  F   UNL     1       0.417   4.324  19.570  0.00  0.00    +0.000 F 
ENDBRANCH   5  24
BRANCH   3  31
ATOM     31  C   UNL     1       6.088   4.386  17.284  0.00  0.00    +0.000 C 
BRANCH  31  32
ATOM     32  C   UNL     1       6.886   5.628  17.637  0.00  0.00    +0.000 A 
ATOM     33  C   UNL     1       6.903   6.743  16.790  0.00  0.00    +0.000 A 
ATOM     34  C   UNL     1       7.608   7.895  17.149  0.00  0.00    +0.000 A 
ATOM     35  C   UNL     1       8.287   7.952  18.366  0.00  0.00    +0.000 A 
ATOM     36  C   UNL     1       8.291   6.846  19.211  0.00  0.00    +0.000 A 
ATOM     37  C   UNL     1       7.606   5.687  18.844  0.00  0.00    +0.000 A 
ENDBRANCH  31  32
ENDBRANCH   3  31
TORSDOF 5
ENDMDL
MODEL 4
REMARK VINA RESULT:      -9.8      4.053      8.999
REMARK  Name = 
REMARK  5 active torsions:
REMARK  status: ('A' for Active; 'I' for Inactive)
REMARK    1  A    between atoms: C_4  and  C_5
REMARK    2  A    between atoms: N_7  and  C_8
REMARK    3  A    between atoms: C_8  and  C_9
REMARK    4  A    between atoms: C_16  and  C_17
REMARK    5  A    between atoms: C_28  and  C_29
REMARK                            x       y       z     vdW  Elec       q    Type
REMARK                         _______ _______ _______ _____ _____    ______ ____
ROOT
ATOM      1  C   UNL     1       0.176  11.740  19.107  0.00  0.00    +0.000 C 
ATOM      2  C   UNL     1       0.755  12.735  20.110  0.00  0.00    +0.000 C 
ATOM      3  N   UNL     1      -0.124  13.916  19.997  0.00  0.00    +0.000 NA
ATOM      4  C   UNL     1      -1.474  13.316  19.918  0.00  0.00    +0.000 C 
ATOM      5  C   UNL     1      -1.331  11.852  19.412  0.00  0.00    +0.000 C 
ENDROOT
BRANCH   1   9
ATOM      6  O   UNL     1       0.832   8.052  21.965  0.00  0.00    +0.000 OA
ATOM      7  C   UNL     1       1.034   8.548  20.857  0.00  0.00    +0.000 A 
ATOM      8  N   UNL     1       0.526   9.766  20.498  0.00  0.00    +0.000 N 
ATOM      9  C   UNL     1       0.772  10.362  19.287  0.00  0.00    +0.000 A 
ATOM     10  N   UNL     1       1.469   9.800  18.353  0.00  0.00    +0.000 NA
ATOM     11  C   UNL     1       2.035   8.545  18.621  0.00  0.00    +0.000 A 
ATOM     12  C   UNL     1       2.813   7.940  17.641  0.00  0.00    +0.000 A 
ATOM     13  C   UNL     1       3.374   6.677  17.857  0.00  0.00    +0.000 A 
ATOM     14  C   UNL     1       3.171   6.003  19.070  0.00  0.00    +0.000 A 
ATOM     15  C   UNL     1       2.406   6.614  20.068  0.00  0.00    +0.000 A 
ATOM     16  C   UNL     1       1.848   7.875  19.832  0.00  0.00    +0.000 A 
ATOM     17  H   UNL     1       0.015  10.240  21.227  0.00  0.00    +0.000 HD
BRANCH  14  18
ATOM     18  C   UNL     1       3.745   4.689  19.283  0.00  0.00    +0.000 A 
ATOM     19  C   UNL     1       3.179   3.515  19.839  0.00  0.00    +0.000 A 
ATOM     20  N   UNL     1       4.041   2.496  19.876  0.00  0.00    +0.000 NA
ATOM     21  N   UNL     1       5.160   3.014  19.343  0.00  0.00    +0.000 N 
ATOM     22  C   UNL     1       5.035   4.324  18.977  0.00  0.00    +0.000 A 
ATOM     23  H   UNL     1       5.977   2.415  19.258  0.00  0.00    +0.000 HD
ENDBRANCH  14  18
ENDBRANCH   1   9
BRANCH   5  24
ATOM     24  C   UNL     1      -2.241  11.421  18.275  0.00  0.00    +0.000 A 
ATOM     25  C   UNL     1      -1.761  10.922  17.054  0.00  0.00    +0.000 A 
ATOM     26  C   UNL     1      -2.626  10.607  16.003  0.00  0.00    +0.000 A 
ATOM     27  C   UNL     1      -3.997  10.772  16.149  0.00  0.00    +0.000 A 
ATOM     28  C   UNL     1      -4.503  11.253  17.349  0.00  0.00    +0.000 A 
ATOM     29  C   UNL     1      -3.632  11.582  18.385  0.00  0.00    +0.000 A 
ATOM     30  F   UNL     1      -4.175  12.087  19.500  0.00  0.00    +0.000 F 
ENDBRANCH   5  24
BRANCH   3  31
ATOM     31  C   UNL     1       0.185  14.709  18.785  0.00  0.00    +0.000 C 
BRANCH  31  32
ATOM     32  C   UNL     1       1.577  15.313  18.766  0.00  0.00    +0.000 A 
ATOM     33  C   UNL     1       2.567  14.823  17.904  0.00  0.00    +0.000 A 
ATOM     34  C   UNL     1       3.831  15.418  17.867  0.00  0.00    +0.000 A 
ATOM     35  C   UNL     1       4.114  16.518  18.676  0.00  0.00    +0.000 A 
ATOM     36  C   UNL     1       3.145  17.006  19.548  0.00  0.00    +0.000 A 
ATOM     37  C   UNL     1       1.889  16.400  19.603  0.00  0.00    +0.000 A 
ENDBRANCH  31  32
ENDBRANCH   3  31
TORSDOF 5
ENDMDL
MODEL 5
REMARK VINA RESULT:      -9.7      0.786      1.385
REMARK  Name = 
REMARK  5 active torsions:
REMARK  status: ('A' for Active; 'I' for Inactive)
REMARK    1  A    between atoms: C_4  and  C_5
REMARK    2  A    between atoms: N_7  and  C_8
REMARK    3  A    between atoms: C_8  and  C_9
REMARK    4  A    between atoms: C_16  and  C_17
REMARK    5  A    between atoms: C_28  and  C_29
REMARK                            x       y       z     vdW  Elec       q    Type
REMARK                         _______ _______ _______ _____ _____    ______ ____
ROOT
ATOM      1  C   UNL     1       3.675   5.762  18.374  0.00  0.00    +0.000 C 
ATOM      2  C   UNL     1       4.211   5.985  16.962  0.00  0.00    +0.000 C 
ATOM      3  N   UNL     1       4.737   4.665  16.562  0.00  0.00    +0.000 NA
ATOM      4  C   UNL     1       3.697   3.733  17.051  0.00  0.00    +0.000 C 
ATOM      5  C   UNL     1       2.911   4.435  18.196  0.00  0.00    +0.000 C 
ENDROOT
BRANCH   1   9
ATOM      6  O   UNL     1       1.888  10.003  17.363  0.00  0.00    +0.000 OA
ATOM      7  C   UNL     1       1.993   9.097  18.189  0.00  0.00    +0.000 A 
ATOM      8  N   UNL     1       2.669   7.939  17.922  0.00  0.00    +0.000 N 
ATOM      9  C   UNL     1       2.838   6.933  18.840  0.00  0.00    +0.000 A 
ATOM     10  N   UNL     1       2.329   6.968  20.029  0.00  0.00    +0.000 NA
ATOM     11  C   UNL     1       1.614   8.115  20.402  0.00  0.00    +0.000 A 
ATOM     12  C   UNL     1       1.087   8.185  21.686  0.00  0.00    +0.000 A 
ATOM     13  C   UNL     1       0.345   9.300  22.090  0.00  0.00    +0.000 A 
ATOM     14  C   UNL     1       0.129  10.372  21.213  0.00  0.00    +0.000 A 
ATOM     15  C   UNL     1       0.673  10.317  19.926  0.00  0.00    +0.000 A 
ATOM     16  C   UNL     1       1.408   9.192  19.537  0.00  0.00    +0.000 A 
ATOM     17  H   UNL     1       3.109   7.908  17.016  0.00  0.00    +0.000 HD
BRANCH  14  18
ATOM     18  C   UNL     1      -0.652  11.519  21.634  0.00  0.00    +0.000 A 
ATOM     19  C   UNL     1      -0.799  12.800  21.047  0.00  0.00    +0.000 A 
ATOM     20  N   UNL     1      -1.606  13.598  21.749  0.00  0.00    +0.000 NA
ATOM     21  N   UNL     1      -1.980  12.830  22.786  0.00  0.00    +0.000 N 
ATOM     22  C   UNL     1      -1.432  11.579  22.765  0.00  0.00    +0.000 A 
ATOM     23  H   UNL     1      -2.614  13.224  23.475  0.00  0.00    +0.000 HD
ENDBRANCH  14  18
ENDBRANCH   1   9
BRANCH   5  24
ATOM     24  C   UNL     1       2.704   3.646  19.477  0.00  0.00    +0.000 A 
ATOM     25  C   UNL     1       3.704   2.851  20.060  0.00  0.00    +0.000 A 
ATOM     26  C   UNL     1       3.454   2.079  21.196  0.00  0.00    +0.000 A 
ATOM     27  C   UNL     1       2.198   2.089  21.789  0.00  0.00    +0.000 A 
ATOM     28  C   UNL     1       1.191   2.873  21.242  0.00  0.00    +0.000 A 
ATOM     29  C   UNL     1       1.445   3.626  20.098  0.00  0.00    +0.000 A 
ATOM     30  F   UNL     1       0.422   4.323  19.589  0.00  0.00    +0.000 F 
ENDBRANCH   5  24
BRANCH   3  31
ATOM     31  C   UNL     1       6.048   4.387  17.193  0.00  0.00    +0.000 C 
BRANCH  31  32
ATOM     32  C   UNL     1       6.808   5.626  17.634  0.00  0.00    +0.000 A 
ATOM     33  C   UNL     1       7.508   5.650  18.846  0.00  0.00    +0.000 A 
ATOM     34  C   UNL     1       8.239   6.782  19.219  0.00  0.00    +0.000 A 
ATOM     35  C   UNL     1       8.292   7.892  18.377  0.00  0.00    +0.000 A 
ATOM     36  C   UNL     1       7.589   7.887  17.175  0.00  0.00    +0.000 A 
ATOM     37  C   UNL     1       6.841   6.766  16.812  0.00  0.00    +0.000 A 
ENDBRANCH  31  32
ENDBRANCH   3  31
TORSDOF 5
ENDMDL
MODEL 6
REMARK VINA RESULT:      -9.6      1.009      1.207
REMARK  Name = 
REMARK  5 active torsions:
REMARK  status: ('A' for Active; 'I' for Inactive)
REMARK    1  A    between atoms: C_4  and  C_5
REMARK    2  A    between atoms: N_7  and  C_8
REMARK    3  A    between atoms: C_8  and  C_9
REMARK    4  A    between atoms: C_16  and  C_17
REMARK    5  A    between atoms: C_28  and  C_29
REMARK                            x       y       z     vdW  Elec       q    Type
REMARK                         _______ _______ _______ _____ _____    ______ ____
ROOT
ATOM      1  C   UNL     1       3.327   6.276  18.553  0.00  0.00    +0.000 C 
ATOM      2  C   UNL     1       4.057   6.517  17.234  0.00  0.00    +0.000 C 
ATOM      3  N   UNL     1       4.566   5.185  16.853  0.00  0.00    +0.000 NA
ATOM      4  C   UNL     1       3.425   4.294  17.163  0.00  0.00    +0.000 C 
ATOM      5  C   UNL     1       2.530   4.999  18.223  0.00  0.00    +0.000 C 
ENDROOT
BRANCH   1   9
ATOM      6  O   UNL     1       1.797  10.588  17.426  0.00  0.00    +0.000 OA
ATOM      7  C   UNL     1       1.793   9.673  18.249  0.00  0.00    +0.000 A 
ATOM      8  N   UNL     1       2.447   8.492  18.033  0.00  0.00    +0.000 N 
ATOM      9  C   UNL     1       2.495   7.474  18.952  0.00  0.00    +0.000 A 
ATOM     10  N   UNL     1       1.881   7.520  20.090  0.00  0.00    +0.000 NA
ATOM     11  C   UNL     1       1.177   8.691  20.408  0.00  0.00    +0.000 A 
ATOM     12  C   UNL     1       0.537   8.772  21.640  0.00  0.00    +0.000 A 
ATOM     13  C   UNL     1      -0.197   9.911  21.985  0.00  0.00    +0.000 A 
ATOM     14  C   UNL     1      -0.293  10.996  21.102  0.00  0.00    +0.000 A 
ATOM     15  C   UNL     1       0.364  10.930  19.871  0.00  0.00    +0.000 A 
ATOM     16  C   UNL     1       1.090   9.781  19.538  0.00  0.00    +0.000 A 
ATOM     17  H   UNL     1       2.968   8.451  17.170  0.00  0.00    +0.000 HD
BRANCH  14  18
ATOM     18  C   UNL     1      -1.066  12.168  21.463  0.00  0.00    +0.000 A 
ATOM     19  C   UNL     1      -2.246  12.705  20.892  0.00  0.00    +0.000 A 
ATOM     20  N   UNL     1      -2.654  13.819  21.505  0.00  0.00    +0.000 NA
ATOM     21  N   UNL     1      -1.739  13.996  22.471  0.00  0.00    +0.000 N 
ATOM     22  C   UNL     1      -0.765  13.038  22.484  0.00  0.00    +0.000 A 
ATOM     23  H   UNL     1      -1.838  14.796  23.090  0.00  0.00    +0.000 HD
ENDBRANCH  14  18
ENDBRANCH   1   9
BRANCH   5  24
ATOM     24  C   UNL     1       2.115   4.179  19.432  0.00  0.00    +0.000 A 
ATOM     25  C   UNL     1       2.700   4.331  20.700  0.00  0.00    +0.000 A 
ATOM     26  C   UNL     1       2.347   3.507  21.771  0.00  0.00    +0.000 A 
ATOM     27  C   UNL     1       1.389   2.516  21.607  0.00  0.00    +0.000 A 
ATOM     28  C   UNL     1       0.784   2.349  20.368  0.00  0.00    +0.000 A 
ATOM     29  C   UNL     1       1.156   3.163  19.301  0.00  0.00    +0.000 A 
ATOM     30  F   UNL     1       0.573   2.922  18.120  0.00  0.00    +0.000 F 
ENDBRANCH   5  24
BRANCH   3  31
ATOM     31  C   UNL     1       5.766   4.816  17.638  0.00  0.00    +0.000 C 
BRANCH  31  32
ATOM     32  C   UNL     1       6.731   5.961  17.888  0.00  0.00    +0.000 A 
ATOM     33  C   UNL     1       6.760   7.079  17.045  0.00  0.00    +0.000 A 
ATOM     34  C   UNL     1       7.624   8.144  17.312  0.00  0.00    +0.000 A 
ATOM     35  C   UNL     1       8.453   8.113  18.433  0.00  0.00    +0.000 A 
ATOM     36  C   UNL     1       8.445   7.001  19.271  0.00  0.00    +0.000 A 
ATOM     37  C   UNL     1       7.600   5.926  18.993  0.00  0.00    +0.000 A 
ENDBRANCH  31  32
ENDBRANCH   3  31
TORSDOF 5
ENDMDL
MODEL 7
REMARK VINA RESULT:      -9.5      1.162      1.630
REMARK  Name = 
REMARK  5 active torsions:
REMARK  status: ('A' for Active; 'I' for Inactive)
REMARK    1  A    between atoms: C_4  and  C_5
REMARK    2  A    between atoms: N_7  and  C_8
REMARK    3  A    between atoms: C_8  and  C_9
REMARK    4  A    between atoms: C_16  and  C_17
REMARK    5  A    between atoms: C_28  and  C_29
REMARK                            x       y       z     vdW  Elec       q    Type
REMARK                         _______ _______ _______ _____ _____    ______ ____
ROOT
ATOM      1  C   UNL     1       3.133   6.433  18.842  0.00  0.00    +0.000 C 
ATOM      2  C   UNL     1       3.827   6.802  17.533  0.00  0.00    +0.000 C 
ATOM      3  N   UNL     1       4.348   5.519  17.024  0.00  0.00    +0.000 NA
ATOM      4  C   UNL     1       3.231   4.583  17.280  0.00  0.00    +0.000 C 
ATOM      5  C   UNL     1       2.349   5.175  18.418  0.00  0.00    +0.000 C 
ENDROOT
BRANCH   1   9
ATOM      6  O   UNL     1       1.095  10.585  17.942  0.00  0.00    +0.000 OA
ATOM      7  C   UNL     1       1.306   9.694  18.766  0.00  0.00    +0.000 A 
ATOM      8  N   UNL     1       2.004   8.561  18.454  0.00  0.00    +0.000 N 
ATOM      9  C   UNL     1       2.291   7.575  19.365  0.00  0.00    +0.000 A 
ATOM     10  N   UNL     1       1.883   7.606  20.592  0.00  0.00    +0.000 NA
ATOM     11  C   UNL     1       1.155   8.729  21.012  0.00  0.00    +0.000 A 
ATOM     12  C   UNL     1       0.735   8.795  22.336  0.00  0.00    +0.000 A 
ATOM     13  C   UNL     1      -0.016   9.884  22.790  0.00  0.00    +0.000 A 
ATOM     14  C   UNL     1      -0.349  10.934  21.922  0.00  0.00    +0.000 A 
ATOM     15  C   UNL     1       0.087  10.884  20.595  0.00  0.00    +0.000 A 
ATOM     16  C   UNL     1       0.833   9.784  20.156  0.00  0.00    +0.000 A 
ATOM     17  H   UNL     1       2.368   8.536  17.514  0.00  0.00    +0.000 HD
BRANCH  14  18
ATOM     18  C   UNL     1      -1.138  12.055  22.396  0.00  0.00    +0.000 A 
ATOM     19  C   UNL     1      -2.496  12.123  22.795  0.00  0.00    +0.000 A 
ATOM     20  N   UNL     1      -2.863  13.353  23.162  0.00  0.00    +0.000 NA
ATOM     21  N   UNL     1      -1.742  14.075  23.002  0.00  0.00    +0.000 N 
ATOM     22  C   UNL     1      -0.683  13.344  22.541  0.00  0.00    +0.000 A 
ATOM     23  H   UNL     1      -1.769  15.066  23.226  0.00  0.00    +0.000 HD
ENDBRANCH  14  18
ENDBRANCH   1   9
BRANCH   5  24
ATOM     24  C   UNL     1       1.978   4.244  19.559  0.00  0.00    +0.000 A 
ATOM     25  C   UNL     1       2.519   4.358  20.850  0.00  0.00    +0.000 A 
ATOM     26  C   UNL     1       2.213   3.437  21.854  0.00  0.00    +0.000 A 
ATOM     27  C   UNL     1       1.345   2.384  21.599  0.00  0.00    +0.000 A 
ATOM     28  C   UNL     1       0.784   2.251  20.336  0.00  0.00    +0.000 A 
ATOM     29  C   UNL     1       1.111   3.163  19.335  0.00  0.00    +0.000 A 
ATOM     30  F   UNL     1       0.578   2.955  18.125  0.00  0.00    +0.000 F 
ENDBRANCH   5  24
BRANCH   3  31
ATOM     31  C   UNL     1       5.573   5.104  17.746  0.00  0.00    +0.000 C 
BRANCH  31  32
ATOM     32  C   UNL     1       6.573   6.222  17.981  0.00  0.00    +0.000 A 
ATOM     33  C   UNL     1       7.552   6.119  18.978  0.00  0.00    +0.000 A 
ATOM     34  C   UNL     1       8.493   7.137  19.154  0.00  0.00    +0.000 A 
ATOM     35  C   UNL     1       8.477   8.259  18.326  0.00  0.00    +0.000 A 
ATOM     36  C   UNL     1       7.501   8.381  17.340  0.00  0.00    +0.000 A 
ATOM     37  C   UNL     1       6.547   7.376  17.178  0.00  0.00    +0.000 A 
ENDBRANCH  31  32
ENDBRANCH   3  31
TORSDOF 5
ENDMDL
MODEL 8
REMARK VINA RESULT:      -9.5      1.191      1.847
REMARK  Name = 
REMARK  5 active torsions:
REMARK  status: ('A' for Active; 'I' for Inactive)
REMARK    1  A    between atoms: C_4  and  C_5
REMARK    2  A    between atoms: N_7  and  C_8
REMARK    3  A    between atoms: C_8  and  C_9
REMARK    4  A    between atoms: C_16  and  C_17
REMARK    5  A    between atoms: C_28  and  C_29
REMARK                            x       y       z     vdW  Elec       q    Type
REMARK                         _______ _______ _______ _____ _____    ______ ____
ROOT
ATOM      1  C   UNL     1       3.430   6.133  18.522  0.00  0.00    +0.000 C 
ATOM      2  C   UNL     1       4.117   6.459  17.198  0.00  0.00    +0.000 C 
ATOM      3  N   UNL     1       4.660   5.164  16.744  0.00  0.00    +0.000 NA
ATOM      4  C   UNL     1       3.560   4.220  17.042  0.00  0.00    +0.000 C 
ATOM      5  C   UNL     1       2.669   4.845  18.154  0.00  0.00    +0.000 C 
ENDROOT
BRANCH   1   9
ATOM      6  O   UNL     1       1.245   8.212  22.143  0.00  0.00    +0.000 OA
ATOM      7  C   UNL     1       1.498   8.235  20.938  0.00  0.00    +0.000 A 
ATOM      8  N   UNL     1       2.306   7.305  20.343  0.00  0.00    +0.000 N 
ATOM      9  C   UNL     1       2.568   7.282  18.997  0.00  0.00    +0.000 A 
ATOM     10  N   UNL     1       2.112   8.169  18.173  0.00  0.00    +0.000 NA
ATOM     11  C   UNL     1       1.273   9.170  18.685  0.00  0.00    +0.000 A 
ATOM     12  C   UNL     1       0.749  10.114  17.809  0.00  0.00    +0.000 A 
ATOM     13  C   UNL     1      -0.071  11.143  18.282  0.00  0.00    +0.000 A 
ATOM     14  C   UNL     1      -0.389  11.236  19.645  0.00  0.00    +0.000 A 
ATOM     15  C   UNL     1       0.119  10.279  20.528  0.00  0.00    +0.000 A 
ATOM     16  C   UNL     1       0.942   9.258  20.039  0.00  0.00    +0.000 A 
ATOM     17  H   UNL     1       2.637   6.580  20.960  0.00  0.00    +0.000 HD
BRANCH  14  18
ATOM     18  C   UNL     1      -1.230  12.313  20.130  0.00  0.00    +0.000 A 
ATOM     19  C   UNL     1      -2.263  12.311  21.100  0.00  0.00    +0.000 A 
ATOM     20  N   UNL     1      -2.817  13.514  21.264  0.00  0.00    +0.000 NA
ATOM     21  N   UNL     1      -2.140  14.290  20.402  0.00  0.00    +0.000 N 
ATOM     22  C   UNL     1      -1.183  13.617  19.696  0.00  0.00    +0.000 A 
ATOM     23  H   UNL     1      -2.383  15.275  20.344  0.00  0.00    +0.000 HD
ENDBRANCH  14  18
ENDBRANCH   1   9
BRANCH   5  24
ATOM     24  C   UNL     1       2.314   3.958  19.335  0.00  0.00    +0.000 A 
ATOM     25  C   UNL     1       0.995   3.745  19.766  0.00  0.00    +0.000 A 
ATOM     26  C   UNL     1       0.712   2.985  20.903  0.00  0.00    +0.000 A 
ATOM     27  C   UNL     1       1.741   2.405  21.633  0.00  0.00    +0.000 A 
ATOM     28  C   UNL     1       3.055   2.588  21.225  0.00  0.00    +0.000 A 
ATOM     29  C   UNL     1       3.329   3.363  20.101  0.00  0.00    +0.000 A 
ATOM     30  F   UNL     1       4.617   3.544  19.786  0.00  0.00    +0.000 F 
ENDBRANCH   5  24
BRANCH   3  31
ATOM     31  C   UNL     1       5.893   4.803  17.482  0.00  0.00    +0.000 C 
BRANCH  31  32
ATOM     32  C   UNL     1       6.806   5.975  17.792  0.00  0.00    +0.000 A 
ATOM     33  C   UNL     1       6.814   7.120  16.985  0.00  0.00    +0.000 A 
ATOM     34  C   UNL     1       7.629   8.208  17.308  0.00  0.00    +0.000 A 
ATOM     35  C   UNL     1       8.430   8.172  18.449  0.00  0.00    +0.000 A 
ATOM     36  C   UNL     1       8.444   7.035  19.252  0.00  0.00    +0.000 A 
ATOM     37  C   UNL     1       7.647   5.938  18.919  0.00  0.00    +0.000 A 
ENDBRANCH  31  32
ENDBRANCH   3  31
TORSDOF 5
ENDMDL
MODEL 9
REMARK VINA RESULT:      -9.5      3.951      9.722
REMARK  Name = 
REMARK  5 active torsions:
REMARK  status: ('A' for Active; 'I' for Inactive)
REMARK    1  A    between atoms: C_4  and  C_5
REMARK    2  A    between atoms: N_7  and  C_8
REMARK    3  A    between atoms: C_8  and  C_9
REMARK    4  A    between atoms: C_16  and  C_17
REMARK    5  A    between atoms: C_28  and  C_29
REMARK                            x       y       z     vdW  Elec       q    Type
REMARK                         _______ _______ _______ _____ _____    ______ ____
ROOT
ATOM      1  C   UNL     1       0.065  11.540  19.142  0.00  0.00    +0.000 C 
ATOM      2  C   UNL     1       0.542  12.525  20.206  0.00  0.00    +0.000 C 
ATOM      3  N   UNL     1      -0.379  13.671  20.077  0.00  0.00    +0.000 NA
ATOM      4  C   UNL     1      -1.696  13.020  19.902  0.00  0.00    +0.000 C 
ATOM      5  C   UNL     1      -1.460  11.580  19.361  0.00  0.00    +0.000 C 
ENDROOT
BRANCH   1   9
ATOM      6  O   UNL     1       0.811   7.843  21.966  0.00  0.00    +0.000 OA
ATOM      7  C   UNL     1       1.012   8.360  20.867  0.00  0.00    +0.000 A 
ATOM      8  N   UNL     1       0.465   9.563  20.515  0.00  0.00    +0.000 N 
ATOM      9  C   UNL     1       0.709  10.182  19.315  0.00  0.00    +0.000 A 
ATOM     10  N   UNL     1       1.440   9.658  18.385  0.00  0.00    +0.000 NA
ATOM     11  C   UNL     1       2.047   8.421  18.648  0.00  0.00    +0.000 A 
ATOM     12  C   UNL     1       2.862   7.857  17.673  0.00  0.00    +0.000 A 
ATOM     13  C   UNL     1       3.466   6.613  17.883  0.00  0.00    +0.000 A 
ATOM     14  C   UNL     1       3.269   5.917  19.085  0.00  0.00    +0.000 A 
ATOM     15  C   UNL     1       2.466   6.487  20.077  0.00  0.00    +0.000 A 
ATOM     16  C   UNL     1       1.866   7.730  19.848  0.00  0.00    +0.000 A 
ATOM     17  H   UNL     1      -0.074  10.008  21.241  0.00  0.00    +0.000 HD
BRANCH  14  18
ATOM     18  C   UNL     1       3.888   4.622  19.291  0.00  0.00    +0.000 A 
ATOM     19  C   UNL     1       3.382   3.445  19.896  0.00  0.00    +0.000 A 
ATOM     20  N   UNL     1       4.272   2.450  19.907  0.00  0.00    +0.000 NA
ATOM     21  N   UNL     1       5.348   2.985  19.308  0.00  0.00    +0.000 N 
ATOM     22  C   UNL     1       5.170   4.285  18.926  0.00  0.00    +0.000 A 
ATOM     23  H   UNL     1       6.175   2.406  19.192  0.00  0.00    +0.000 HD
ENDBRANCH  14  18
ENDBRANCH   1   9
BRANCH   5  24
ATOM     24  C   UNL     1      -2.285  11.149  18.161  0.00  0.00    +0.000 A 
ATOM     25  C   UNL     1      -1.737  10.486  17.051  0.00  0.00    +0.000 A 
ATOM     26  C   UNL     1      -2.512  10.173  15.931  0.00  0.00    +0.000 A 
ATOM     27  C   UNL     1      -3.860  10.503  15.897  0.00  0.00    +0.000 A 
ATOM     28  C   UNL     1      -4.433  11.148  16.985  0.00  0.00    +0.000 A 
ATOM     29  C   UNL     1      -3.649  11.473  18.089  0.00  0.00    +0.000 A 
ATOM     30  F   UNL     1      -4.247  12.138  19.085  0.00  0.00    +0.000 F 
ENDBRANCH   5  24
BRANCH   3  31
ATOM     31  C   UNL     1      -0.036  14.515  18.910  0.00  0.00    +0.000 C 
BRANCH  31  32
ATOM     32  C   UNL     1      -0.535  15.946  19.000  0.00  0.00    +0.000 A 
ATOM     33  C   UNL     1      -1.049  16.459  20.197  0.00  0.00    +0.000 A 
ATOM     34  C   UNL     1      -1.464  17.791  20.276  0.00  0.00    +0.000 A 
ATOM     35  C   UNL     1      -1.353  18.629  19.167  0.00  0.00    +0.000 A 
ATOM     36  C   UNL     1      -0.858  18.129  17.966  0.00  0.00    +0.000 A 
ATOM     37  C   UNL     1      -0.463  16.793  17.878  0.00  0.00    +0.000 A 
ENDBRANCH  31  32
ENDBRANCH   3  31
TORSDOF 5
ENDMDL
