MODEL 1
REMARK VINA RESULT:      -8.1      0.000      0.000
REMARK  Name = 
REMARK  8 active torsions:
REMARK  status: ('A' for Active; 'I' for Inactive)
REMARK    1  A    between atoms: C_1  and  O_2
REMARK    2  A    between atoms: O_2  and  C_3
REMARK    3  A    between atoms: C_9  and  C_10
REMARK    4  A    between atoms: C_10  and  O_11
REMARK    5  A    between atoms: C_10  and  C_12
REMARK    6  A    between atoms: N_19  and  C_20
REMARK    7  A    between atoms: C_24  and  O_25
REMARK    8  A    between atoms: O_25  and  C_26
REMARK                            x       y       z     vdW  Elec       q    Type
REMARK                         _______ _______ _______ _____ _____    ______ ____
ROOT
ATOM      1  C   UNL     1      -3.500  11.372  17.915  0.00  0.00    +0.000 A 
ATOM      2  C   UNL     1      -2.868  11.805  19.096  0.00  0.00    +0.000 A 
ATOM      3  C   UNL     1      -1.555  11.453  19.415  0.00  0.00    +0.000 A 
ATOM      4  N   UNL     1      -1.007  12.035  20.492  0.00  0.00    +0.000 NA
ATOM      5  C   UNL     1       0.285  11.772  20.762  0.00  0.00    +0.000 A 
ATOM      6  C   UNL     1       1.077  10.937  19.999  0.00  0.00    +0.000 A 
ATOM      7  C   UNL     1       0.518  10.330  18.865  0.00  0.00    +0.000 A 
ATOM      8  C   UNL     1      -0.861  10.559  18.589  0.00  0.00    +0.000 A 
ATOM      9  C   UNL     1      -1.581   9.977  17.513  0.00  0.00    +0.000 A 
ATOM     10  C   UNL     1      -2.872  10.397  17.142  0.00  0.00    +0.000 A 
ENDROOT
BRANCH   1  12
ATOM     11  C   UNL     1      -5.856  11.168  18.031  0.00  0.00    +0.000 C 
ATOM     12  O   UNL     1      -4.710  11.881  17.537  0.00  0.00    +0.000 OA
ENDBRANCH   1  12
BRANCH  10  13
ATOM     13  O   UNL     1      -3.280   9.747  16.015  0.00  0.00    +0.000 OA
ATOM     14  C   UNL     1      -3.178  10.349  14.739  0.00  0.00    +0.000 C 
ENDBRANCH  10  13
BRANCH   7  15
ATOM     15  C   UNL     1       1.434   9.578  17.907  0.00  0.00    +0.000 C 
BRANCH  15  16
ATOM     16  C   UNL     1       2.175   8.357  18.441  0.00  0.00    +0.000 A 
ATOM     17  C   UNL     1       3.211   7.781  17.684  0.00  0.00    +0.000 A 
ATOM     18  C   UNL     1       3.734   6.516  17.978  0.00  0.00    +0.000 A 
ATOM     19  C   UNL     1       3.171   5.812  19.046  0.00  0.00    +0.000 A 
ATOM     20  C   UNL     1       2.190   6.374  19.867  0.00  0.00    +0.000 A 
ATOM     21  C   UNL     1       1.858   5.404  20.849  0.00  0.00    +0.000 A 
ATOM     22  C   UNL     1       2.581   4.265  20.577  0.00  0.00    +0.000 A 
ATOM     23  N   UNL     1       3.374   4.520  19.488  0.00  0.00    +0.000 N 
ATOM     24  C   UNL     1       4.222   3.545  18.842  0.00  0.00    +0.000 C 
ATOM     25  C   UNL     1       1.704   7.667  19.573  0.00  0.00    +0.000 A 
ENDBRANCH  15  16
BRANCH  15  26
ATOM     26  O   UNL     1       2.362  10.493  17.310  0.00  0.00    +0.000 OA
ATOM     27  H   UNL     1       2.553  11.191  17.954  0.00  0.00    +0.000 HD
ENDBRANCH  15  26
ENDBRANCH   7  15
TORSDOF 5
ENDMDL
MODEL 2
REMARK VINA RESULT:      -8.0      3.116      8.260
REMARK  Name = 
REMARK  8 active torsions:
REMARK  status: ('A' for Active; 'I' for Inactive)
REMARK    1  A    between atoms: C_1  and  O_2
REMARK    2  A    between atoms: O_2  and  C_3
REMARK    3  A    between atoms: C_9  and  C_10
REMARK    4  A    between atoms: C_10  and  O_11
REMARK    5  A    between atoms: C_10  and  C_12
REMARK    6  A    between atoms: N_19  and  C_20
REMARK    7  A    between atoms: C_24  and  O_25
REMARK    8  A    between atoms: O_25  and  C_26
REMARK                            x       y       z     vdW  Elec       q    Type
REMARK                         _______ _______ _______ _____ _____    ______ ____
ROOT
ATOM      1  C   UNL     1       5.985   4.626  16.193  0.00  0.00    +0.000 A 
ATOM      2  C   UNL     1       4.827   3.933  16.594  0.00  0.00    +0.000 A 
ATOM      3  C   UNL     1       3.766   4.565  17.248  0.00  0.00    +0.000 A 
ATOM      4  N   UNL     1       2.657   3.842  17.458  0.00  0.00    +0.000 NA
ATOM      5  C   UNL     1       1.596   4.461  18.008  0.00  0.00    +0.000 A 
ATOM      6  C   UNL     1       1.585   5.793  18.374  0.00  0.00    +0.000 A 
ATOM      7  C   UNL     1       2.737   6.561  18.152  0.00  0.00    +0.000 A 
ATOM      8  C   UNL     1       3.886   5.913  17.612  0.00  0.00    +0.000 A 
ATOM      9  C   UNL     1       5.137   6.541  17.378  0.00  0.00    +0.000 A 
ATOM     10  C   UNL     1       6.171   5.932  16.642  0.00  0.00    +0.000 A 
ENDROOT
BRANCH   1  12
ATOM     11  C   UNL     1       6.635   4.073  13.983  0.00  0.00    +0.000 C 
ATOM     12  O   UNL     1       6.918   4.031  15.392  0.00  0.00    +0.000 OA
ENDBRANCH   1  12
BRANCH  10  13
ATOM     13  O   UNL     1       7.214   6.795  16.480  0.00  0.00    +0.000 OA
ATOM     14  C   UNL     1       7.651   7.629  17.535  0.00  0.00    +0.000 C 
ENDBRANCH  10  13
BRANCH   7  15
ATOM     15  C   UNL     1       2.665   8.069  18.357  0.00  0.00    +0.000 C 
BRANCH  15  16
ATOM     16  C   UNL     1       1.522   8.619  19.202  0.00  0.00    +0.000 A 
ATOM     17  C   UNL     1       0.624   9.548  18.646  0.00  0.00    +0.000 A 
ATOM     18  C   UNL     1      -0.263  10.292  19.434  0.00  0.00    +0.000 A 
ATOM     19  C   UNL     1      -0.214  10.106  20.818  0.00  0.00    +0.000 A 
ATOM     20  C   UNL     1       0.611   9.144  21.407  0.00  0.00    +0.000 A 
ATOM     21  C   UNL     1       0.402   9.213  22.810  0.00  0.00    +0.000 A 
ATOM     22  C   UNL     1      -0.482  10.240  23.054  0.00  0.00    +0.000 A 
ATOM     23  N   UNL     1      -0.852  10.772  21.846  0.00  0.00    +0.000 N 
ATOM     24  C   UNL     1      -1.707  11.926  21.684  0.00  0.00    +0.000 C 
ATOM     25  C   UNL     1       1.471   8.380  20.588  0.00  0.00    +0.000 A 
ENDBRANCH  15  16
BRANCH  15  26
ATOM     26  O   UNL     1       2.698   8.731  17.085  0.00  0.00    +0.000 OA
ATOM     27  H   UNL     1       2.707   8.054  16.393  0.00  0.00    +0.000 HD
ENDBRANCH  15  26
ENDBRANCH   7  15
TORSDOF 5
ENDMDL
MODEL 3
REMARK VINA RESULT:      -7.3      4.012      7.375
REMARK  Name = 
REMARK  8 active torsions:
REMARK  status: ('A' for Active; 'I' for Inactive)
REMARK    1  A    between atoms: C_1  and  O_2
REMARK    2  A    between atoms: O_2  and  C_3
REMARK    3  A    between atoms: C_9  and  C_10
REMARK    4  A    between atoms: C_10  and  O_11
REMARK    5  A    between atoms: C_10  and  C_12
REMARK    6  A    between atoms: N_19  and  C_20
REMARK    7  A    between atoms: C_24  and  O_25
REMARK    8  A    between atoms: O_25  and  C_26
REMARK                            x       y       z     vdW  Elec       q    Type
REMARK                         _______ _______ _______ _____ _____    ______ ____
ROOT
ATOM      1  C   UNL     1       1.643   7.091  20.181  0.00  0.00    +0.000 A 
ATOM      2  C   UNL     1       1.699   5.749  20.602  0.00  0.00    +0.000 A 
ATOM      3  C   UNL     1       2.700   4.873  20.178  0.00  0.00    +0.000 A 
ATOM      4  N   UNL     1       2.738   3.660  20.750  0.00  0.00    +0.000 NA
ATOM      5  C   UNL     1       3.749   2.837  20.416  0.00  0.00    +0.000 A 
ATOM      6  C   UNL     1       4.745   3.164  19.517  0.00  0.00    +0.000 A 
ATOM      7  C   UNL     1       4.721   4.433  18.919  0.00  0.00    +0.000 A 
ATOM      8  C   UNL     1       3.634   5.303  19.225  0.00  0.00    +0.000 A 
ATOM      9  C   UNL     1       3.443   6.592  18.664  0.00  0.00    +0.000 A 
ATOM     10  C   UNL     1       2.489   7.504  19.153  0.00  0.00    +0.000 A 
ENDROOT
BRANCH   1  12
ATOM     11  C   UNL     1       1.333   8.823  21.767  0.00  0.00    +0.000 C 
ATOM     12  O   UNL     1       0.770   7.972  20.753  0.00  0.00    +0.000 OA
ENDBRANCH   1  12
BRANCH  10  13
ATOM     13  O   UNL     1       2.594   8.698  18.504  0.00  0.00    +0.000 OA
ATOM     14  C   UNL     1       1.475   9.305  17.889  0.00  0.00    +0.000 C 
ENDBRANCH  10  13
BRANCH   7  15
ATOM     15  C   UNL     1       5.922   4.878  18.093  0.00  0.00    +0.000 C 
BRANCH  15  16
ATOM     16  C   UNL     1       5.826   4.757  16.576  0.00  0.00    +0.000 A 
ATOM     17  C   UNL     1       4.837   3.938  16.001  0.00  0.00    +0.000 A 
ATOM     18  C   UNL     1       4.870   3.567  14.651  0.00  0.00    +0.000 A 
ATOM     19  C   UNL     1       5.946   4.015  13.880  0.00  0.00    +0.000 A 
ATOM     20  C   UNL     1       6.910   4.887  14.391  0.00  0.00    +0.000 A 
ATOM     21  C   UNL     1       7.837   5.148  13.347  0.00  0.00    +0.000 A 
ATOM     22  C   UNL     1       7.465   4.395  12.257  0.00  0.00    +0.000 A 
ATOM     23  N   UNL     1       6.320   3.716  12.585  0.00  0.00    +0.000 N 
ATOM     24  C   UNL     1       5.662   2.754  11.732  0.00  0.00    +0.000 C 
ATOM     25  C   UNL     1       6.837   5.277  15.747  0.00  0.00    +0.000 A 
ENDBRANCH  15  16
BRANCH  15  26
ATOM     26  O   UNL     1       7.103   4.218  18.565  0.00  0.00    +0.000 OA
ATOM     27  H   UNL     1       7.273   4.515  19.470  0.00  0.00    +0.000 HD
ENDBRANCH  15  26
ENDBRANCH   7  15
TORSDOF 5
ENDMDL
MODEL 4
REMARK VINA RESULT:      -7.2      1.940      2.770
REMARK  Name = 
REMARK  8 active torsions:
REMARK  status: ('A' for Active; 'I' for Inactive)
REMARK    1  A    between atoms: C_1  and  O_2
REMARK    2  A    between atoms: O_2  and  C_3
REMARK    3  A    between atoms: C_9  and  C_10
REMARK    4  A    between atoms: C_10  and  O_11
REMARK    5  A    between atoms: C_10  and  C_12
REMARK    6  A    between atoms: N_19  and  C_20
REMARK    7  A    between atoms: C_24  and  O_25
REMARK    8  A    between atoms: O_25  and  C_26
REMARK                            x       y       z     vdW  Elec       q    Type
REMARK                         _______ _______ _______ _____ _____    ______ ____
ROOT
ATOM      1  C   UNL     1      -1.650  12.200  20.281  0.00  0.00    +0.000 A 
ATOM      2  C   UNL     1      -1.018  11.499  21.326  0.00  0.00    +0.000 A 
ATOM      3  C   UNL     1      -0.137  10.441  21.091  0.00  0.00    +0.000 A 
ATOM      4  N   UNL     1       0.515   9.938  22.149  0.00  0.00    +0.000 NA
ATOM      5  C   UNL     1       1.431   8.977  21.927  0.00  0.00    +0.000 A 
ATOM      6  C   UNL     1       1.735   8.476  20.676  0.00  0.00    +0.000 A 
ATOM      7  C   UNL     1       1.065   9.000  19.561  0.00  0.00    +0.000 A 
ATOM      8  C   UNL     1       0.059   9.986  19.780  0.00  0.00    +0.000 A 
ATOM      9  C   UNL     1      -0.738  10.572  18.762  0.00  0.00    +0.000 A 
ATOM     10  C   UNL     1      -1.558  11.694  18.986  0.00  0.00    +0.000 A 
ENDROOT
BRANCH   1  12
ATOM     11  C   UNL     1      -1.584  14.558  20.494  0.00  0.00    +0.000 C 
ATOM     12  O   UNL     1      -2.354  13.344  20.528  0.00  0.00    +0.000 OA
ENDBRANCH   1  12
BRANCH  10  13
ATOM     13  O   UNL     1      -2.124  12.112  17.818  0.00  0.00    +0.000 OA
ATOM     14  C   UNL     1      -2.617  11.190  16.866  0.00  0.00    +0.000 C 
ENDBRANCH  10  13
BRANCH   7  15
ATOM     15  C   UNL     1       1.539   8.605  18.167  0.00  0.00    +0.000 C 
BRANCH  15  16
ATOM     16  C   UNL     1       2.530   7.452  18.052  0.00  0.00    +0.000 A 
ATOM     17  C   UNL     1       3.802   7.676  17.497  0.00  0.00    +0.000 A 
ATOM     18  C   UNL     1       4.642   6.624  17.110  0.00  0.00    +0.000 A 
ATOM     19  C   UNL     1       4.164   5.320  17.266  0.00  0.00    +0.000 A 
ATOM     20  C   UNL     1       2.938   5.050  17.878  0.00  0.00    +0.000 A 
ATOM     21  C   UNL     1       2.773   3.640  17.886  0.00  0.00    +0.000 A 
ATOM     22  C   UNL     1       3.852   3.087  17.234  0.00  0.00    +0.000 A 
ATOM     23  N   UNL     1       4.689   4.108  16.866  0.00  0.00    +0.000 N 
ATOM     24  C   UNL     1       5.894   3.942  16.085  0.00  0.00    +0.000 C 
ATOM     25  C   UNL     1       2.123   6.127  18.293  0.00  0.00    +0.000 A 
ENDBRANCH  15  16
BRANCH  15  26
ATOM     26  O   UNL     1       2.048   9.760  17.486  0.00  0.00    +0.000 OA
ATOM     27  H   UNL     1       2.698  10.187  18.062  0.00  0.00    +0.000 HD
ENDBRANCH  15  26
ENDBRANCH   7  15
TORSDOF 5
ENDMDL
MODEL 5
REMARK VINA RESULT:      -7.1      4.016      8.509
REMARK  Name = 
REMARK  8 active torsions:
REMARK  status: ('A' for Active; 'I' for Inactive)
REMARK    1  A    between atoms: C_1  and  O_2
REMARK    2  A    between atoms: O_2  and  C_3
REMARK    3  A    between atoms: C_9  and  C_10
REMARK    4  A    between atoms: C_10  and  O_11
REMARK    5  A    between atoms: C_10  and  C_12
REMARK    6  A    between atoms: N_19  and  C_20
REMARK    7  A    between atoms: C_24  and  O_25
REMARK    8  A    between atoms: O_25  and  C_26
REMARK                            x       y       z     vdW  Elec       q    Type
REMARK                         _______ _______ _______ _____ _____    ______ ____
ROOT
ATOM      1  C   UNL     1       5.534   4.397  17.192  0.00  0.00    +0.000 A 
ATOM      2  C   UNL     1       4.494   3.481  16.943  0.00  0.00    +0.000 A 
ATOM      3  C   UNL     1       3.373   3.378  17.770  0.00  0.00    +0.000 A 
ATOM      4  N   UNL     1       2.381   2.575  17.362  0.00  0.00    +0.000 NA
ATOM      5  C   UNL     1       1.259   2.532  18.104  0.00  0.00    +0.000 A 
ATOM      6  C   UNL     1       1.071   3.262  19.261  0.00  0.00    +0.000 A 
ATOM      7  C   UNL     1       2.100   4.113  19.693  0.00  0.00    +0.000 A 
ATOM      8  C   UNL     1       3.313   4.138  18.946  0.00  0.00    +0.000 A 
ATOM      9  C   UNL     1       4.458   4.905  19.284  0.00  0.00    +0.000 A 
ATOM     10  C   UNL     1       5.548   5.076  18.409  0.00  0.00    +0.000 A 
ENDROOT
BRANCH   1  12
ATOM     11  C   UNL     1       6.104   4.529  14.897  0.00  0.00    +0.000 C 
ATOM     12  O   UNL     1       6.520   4.610  16.271  0.00  0.00    +0.000 OA
ENDBRANCH   1  12
BRANCH  10  13
ATOM     13  O   UNL     1       6.455   5.944  18.941  0.00  0.00    +0.000 OA
ATOM     14  C   UNL     1       7.746   5.516  19.328  0.00  0.00    +0.000 C 
ENDBRANCH  10  13
BRANCH   7  15
ATOM     15  C   UNL     1       1.824   5.073  20.844  0.00  0.00    +0.000 C 
BRANCH  15  16
ATOM     16  C   UNL     1       1.791   6.565  20.534  0.00  0.00    +0.000 A 
ATOM     17  C   UNL     1       1.096   7.442  21.388  0.00  0.00    +0.000 A 
ATOM     18  C   UNL     1       0.794   8.758  21.019  0.00  0.00    +0.000 A 
ATOM     19  C   UNL     1       1.182   9.180  19.744  0.00  0.00    +0.000 A 
ATOM     20  C   UNL     1       1.935   8.368  18.893  0.00  0.00    +0.000 A 
ATOM     21  C   UNL     1       2.165   9.106  17.701  0.00  0.00    +0.000 A 
ATOM     22  C   UNL     1       1.507  10.309  17.819  0.00  0.00    +0.000 A 
ATOM     23  N   UNL     1       0.918  10.348  19.056  0.00  0.00    +0.000 N 
ATOM     24  C   UNL     1       0.065  11.415  19.527  0.00  0.00    +0.000 C 
ATOM     25  C   UNL     1       2.259   7.055  19.301  0.00  0.00    +0.000 A 
ENDBRANCH  15  16
BRANCH  15  26
ATOM     26  O   UNL     1       2.738   4.814  21.918  0.00  0.00    +0.000 OA
ATOM     27  H   UNL     1       3.303   4.071  21.660  0.00  0.00    +0.000 HD
ENDBRANCH  15  26
ENDBRANCH   7  15
TORSDOF 5
ENDMDL
MODEL 6
REMARK VINA RESULT:      -6.9      3.383      8.106
REMARK  Name = 
REMARK  8 active torsions:
REMARK  status: ('A' for Active; 'I' for Inactive)
REMARK    1  A    between atoms: C_1  and  O_2
REMARK    2  A    between atoms: O_2  and  C_3
REMARK    3  A    between atoms: C_9  and  C_10
REMARK    4  A    between atoms: C_10  and  O_11
REMARK    5  A    between atoms: C_10  and  C_12
REMARK    6  A    between atoms: N_19  and  C_20
REMARK    7  A    between atoms: C_24  and  O_25
REMARK    8  A    between atoms: O_25  and  C_26
REMARK                            x       y       z     vdW  Elec       q    Type
REMARK                         _______ _______ _______ _____ _____    ______ ____
ROOT
ATOM      1  C   UNL     1       3.097   4.746  19.356  0.00  0.00    +0.000 A 
ATOM      2  C   UNL     1       3.024   5.783  18.406  0.00  0.00    +0.000 A 
ATOM      3  C   UNL     1       2.447   7.022  18.693  0.00  0.00    +0.000 A 
ATOM      4  N   UNL     1       2.558   7.981  17.763  0.00  0.00    +0.000 NA
ATOM      5  C   UNL     1       2.083   9.205  18.061  0.00  0.00    +0.000 A 
ATOM      6  C   UNL     1       1.485   9.529  19.263  0.00  0.00    +0.000 A 
ATOM      7  C   UNL     1       1.371   8.535  20.246  0.00  0.00    +0.000 A 
ATOM      8  C   UNL     1       1.826   7.221  19.934  0.00  0.00    +0.000 A 
ATOM      9  C   UNL     1       1.733   6.103  20.802  0.00  0.00    +0.000 A 
ATOM     10  C   UNL     1       2.390   4.883  20.549  0.00  0.00    +0.000 A 
ENDROOT
BRANCH   1  12
ATOM     11  C   UNL     1       4.067   3.330  17.725  0.00  0.00    +0.000 C 
ATOM     12  O   UNL     1       3.830   3.619  19.113  0.00  0.00    +0.000 OA
ENDBRANCH   1  12
BRANCH  10  13
ATOM     13  O   UNL     1       2.218   4.024  21.593  0.00  0.00    +0.000 OA
ATOM     14  C   UNL     1       1.448   2.845  21.459  0.00  0.00    +0.000 C 
ENDBRANCH  10  13
BRANCH   7  15
ATOM     15  C   UNL     1       0.906   8.934  21.642  0.00  0.00    +0.000 C 
BRANCH  15  16
ATOM     16  C   UNL     1      -0.016  10.142  21.767  0.00  0.00    +0.000 A 
ATOM     17  C   UNL     1      -0.580  10.465  23.014  0.00  0.00    +0.000 A 
ATOM     18  C   UNL     1      -1.637  11.375  23.141  0.00  0.00    +0.000 A 
ATOM     19  C   UNL     1      -2.146  11.945  21.971  0.00  0.00    +0.000 A 
ATOM     20  C   UNL     1      -1.570  11.708  20.721  0.00  0.00    +0.000 A 
ATOM     21  C   UNL     1      -2.319  12.448  19.767  0.00  0.00    +0.000 A 
ATOM     22  C   UNL     1      -3.357  13.061  20.430  0.00  0.00    +0.000 A 
ATOM     23  N   UNL     1      -3.245  12.756  21.762  0.00  0.00    +0.000 N 
ATOM     24  C   UNL     1      -4.196  13.145  22.777  0.00  0.00    +0.000 C 
ATOM     25  C   UNL     1      -0.482  10.814  20.622  0.00  0.00    +0.000 A 
ENDBRANCH  15  16
BRANCH  15  26
ATOM     26  O   UNL     1       2.042   9.091  22.502  0.00  0.00    +0.000 OA
ATOM     27  H   UNL     1       1.957   9.940  22.960  0.00  0.00    +0.000 HD
ENDBRANCH  15  26
ENDBRANCH   7  15
TORSDOF 5
ENDMDL
MODEL 7
REMARK VINA RESULT:      -6.9      1.296      2.327
REMARK  Name = 
REMARK  8 active torsions:
REMARK  status: ('A' for Active; 'I' for Inactive)
REMARK    1  A    between atoms: C_1  and  O_2
REMARK    2  A    between atoms: O_2  and  C_3
REMARK    3  A    between atoms: C_9  and  C_10
REMARK    4  A    between atoms: C_10  and  O_11
REMARK    5  A    between atoms: C_10  and  C_12
REMARK    6  A    between atoms: N_19  and  C_20
REMARK    7  A    between atoms: C_24  and  O_25
REMARK    8  A    between atoms: O_25  and  C_26
REMARK                            x       y       z     vdW  Elec       q    Type
REMARK                         _______ _______ _______ _____ _____    ______ ____
ROOT
ATOM      1  C   UNL     1      -4.357  11.466  17.945  0.00  0.00    +0.000 A 
ATOM      2  C   UNL     1      -4.193  12.174  19.151  0.00  0.00    +0.000 A 
ATOM      3  C   UNL     1      -2.945  12.343  19.756  0.00  0.00    +0.000 A 
ATOM      4  N   UNL     1      -2.884  13.152  20.823  0.00  0.00    +0.000 NA
ATOM      5  C   UNL     1      -1.675  13.393  21.364  0.00  0.00    +0.000 A 
ATOM      6  C   UNL     1      -0.497  12.853  20.888  0.00  0.00    +0.000 A 
ATOM      7  C   UNL     1      -0.547  12.011  19.766  0.00  0.00    +0.000 A 
ATOM      8  C   UNL     1      -1.822  11.708  19.207  0.00  0.00    +0.000 A 
ATOM      9  C   UNL     1      -2.040  10.836  18.109  0.00  0.00    +0.000 A 
ATOM     10  C   UNL     1      -3.279  10.736  17.448  0.00  0.00    +0.000 A 
ENDROOT
BRANCH   1  12
ATOM     11  C   UNL     1      -6.651  12.050  18.005  0.00  0.00    +0.000 C 
ATOM     12  O   UNL     1      -5.550  11.477  17.280  0.00  0.00    +0.000 OA
ENDBRANCH   1  12
BRANCH  10  13
ATOM     13  O   UNL     1      -3.178   9.910  16.368  0.00  0.00    +0.000 OA
ATOM     14  C   UNL     1      -2.966  10.422  15.067  0.00  0.00    +0.000 C 
ENDBRANCH  10  13
BRANCH   7  15
ATOM     15  C   UNL     1       0.760  11.581  19.112  0.00  0.00    +0.000 C 
BRANCH  15  16
ATOM     16  C   UNL     1       1.086  10.092  19.084  0.00  0.00    +0.000 A 
ATOM     17  C   UNL     1       0.828   9.298  20.216  0.00  0.00    +0.000 A 
ATOM     18  C   UNL     1       1.352   8.007  20.356  0.00  0.00    +0.000 A 
ATOM     19  C   UNL     1       2.178   7.527  19.336  0.00  0.00    +0.000 A 
ATOM     20  C   UNL     1       2.403   8.253  18.163  0.00  0.00    +0.000 A 
ATOM     21  C   UNL     1       3.266   7.474  17.347  0.00  0.00    +0.000 A 
ATOM     22  C   UNL     1       3.597   6.337  18.048  0.00  0.00    +0.000 A 
ATOM     23  N   UNL     1       2.934   6.375  19.247  0.00  0.00    +0.000 N 
ATOM     24  C   UNL     1       3.086   5.398  20.301  0.00  0.00    +0.000 C 
ATOM     25  C   UNL     1       1.835   9.538  18.029  0.00  0.00    +0.000 A 
ENDBRANCH  15  16
BRANCH  15  26
ATOM     26  O   UNL     1       1.851  12.312  19.688  0.00  0.00    +0.000 OA
ATOM     27  H   UNL     1       1.483  13.024  20.231  0.00  0.00    +0.000 HD
ENDBRANCH  15  26
ENDBRANCH   7  15
TORSDOF 5
ENDMDL
MODEL 8
REMARK VINA RESULT:      -6.8      1.690      2.603
REMARK  Name = 
REMARK  8 active torsions:
REMARK  status: ('A' for Active; 'I' for Inactive)
REMARK    1  A    between atoms: C_1  and  O_2
REMARK    2  A    between atoms: O_2  and  C_3
REMARK    3  A    between atoms: C_9  and  C_10
REMARK    4  A    between atoms: C_10  and  O_11
REMARK    5  A    between atoms: C_10  and  C_12
REMARK    6  A    between atoms: N_19  and  C_20
REMARK    7  A    between atoms: C_24  and  O_25
REMARK    8  A    between atoms: O_25  and  C_26
REMARK                            x       y       z     vdW  Elec       q    Type
REMARK                         _______ _______ _______ _____ _____    ______ ____
ROOT
ATOM      1  C   UNL     1      -1.920  12.159  20.027  0.00  0.00    +0.000 A 
ATOM      2  C   UNL     1      -1.233  11.557  21.099  0.00  0.00    +0.000 A 
ATOM      3  C   UNL     1      -0.278  10.557  20.908  0.00  0.00    +0.000 A 
ATOM      4  N   UNL     1       0.414  10.155  21.983  0.00  0.00    +0.000 NA
ATOM      5  C   UNL     1       1.397   9.254  21.800  0.00  0.00    +0.000 A 
ATOM      6  C   UNL     1       1.733   8.717  20.573  0.00  0.00    +0.000 A 
ATOM      7  C   UNL     1       1.021   9.137  19.439  0.00  0.00    +0.000 A 
ATOM      8  C   UNL     1      -0.054  10.055  19.618  0.00  0.00    +0.000 A 
ATOM      9  C   UNL     1      -0.895  10.532  18.580  0.00  0.00    +0.000 A 
ATOM     10  C   UNL     1      -1.796  11.600  18.757  0.00  0.00    +0.000 A 
ENDROOT
BRANCH   1  12
ATOM     11  C   UNL     1      -3.411  13.293  21.476  0.00  0.00    +0.000 C 
ATOM     12  O   UNL     1      -2.705  13.259  20.224  0.00  0.00    +0.000 OA
ENDBRANCH   1  12
BRANCH  10  13
ATOM     13  O   UNL     1      -2.395  11.919  17.574  0.00  0.00    +0.000 OA
ATOM     14  C   UNL     1      -2.987  10.929  16.757  0.00  0.00    +0.000 C 
ENDBRANCH  10  13
BRANCH   7  15
ATOM     15  C   UNL     1       1.517   8.712  18.062  0.00  0.00    +0.000 C 
BRANCH  15  16
ATOM     16  C   UNL     1       2.312   7.414  17.961  0.00  0.00    +0.000 A 
ATOM     17  C   UNL     1       1.712   6.196  18.329  0.00  0.00    +0.000 A 
ATOM     18  C   UNL     1       2.457   5.027  18.525  0.00  0.00    +0.000 A 
ATOM     19  C   UNL     1       3.844   5.108  18.371  0.00  0.00    +0.000 A 
ATOM     20  C   UNL     1       4.473   6.277  17.939  0.00  0.00    +0.000 A 
ATOM     21  C   UNL     1       5.866   6.007  17.878  0.00  0.00    +0.000 A 
ATOM     22  C   UNL     1       6.065   4.721  18.327  0.00  0.00    +0.000 A 
ATOM     23  N   UNL     1       4.839   4.183  18.620  0.00  0.00    +0.000 N 
ATOM     24  C   UNL     1       4.632   2.876  19.199  0.00  0.00    +0.000 C 
ATOM     25  C   UNL     1       3.697   7.435  17.712  0.00  0.00    +0.000 A 
ENDBRANCH  15  16
BRANCH  15  26
ATOM     26  O   UNL     1       2.253   9.786  17.461  0.00  0.00    +0.000 OA
ATOM     27  H   UNL     1       3.062   9.922  17.976  0.00  0.00    +0.000 HD
ENDBRANCH  15  26
ENDBRANCH   7  15
TORSDOF 5
ENDMDL
MODEL 9
REMARK VINA RESULT:      -6.8      4.085      8.603
REMARK  Name = 
REMARK  8 active torsions:
REMARK  status: ('A' for Active; 'I' for Inactive)
REMARK    1  A    between atoms: C_1  and  O_2
REMARK    2  A    between atoms: O_2  and  C_3
REMARK    3  A    between atoms: C_9  and  C_10
REMARK    4  A    between atoms: C_10  and  O_11
REMARK    5  A    between atoms: C_10  and  C_12
REMARK    6  A    between atoms: N_19  and  C_20
REMARK    7  A    between atoms: C_24  and  O_25
REMARK    8  A    between atoms: O_25  and  C_26
REMARK                            x       y       z     vdW  Elec       q    Type
REMARK                         _______ _______ _______ _____ _____    ______ ____
ROOT
ATOM      1  C   UNL     1       6.240   4.744  15.284  0.00  0.00    +0.000 A 
ATOM      2  C   UNL     1       5.224   3.775  15.387  0.00  0.00    +0.000 A 
ATOM      3  C   UNL     1       4.355   3.715  16.478  0.00  0.00    +0.000 A 
ATOM      4  N   UNL     1       3.338   2.844  16.406  0.00  0.00    +0.000 NA
ATOM      5  C   UNL     1       2.443   2.835  17.412  0.00  0.00    +0.000 A 
ATOM      6  C   UNL     1       2.513   3.665  18.513  0.00  0.00    +0.000 A 
ATOM      7  C   UNL     1       3.567   4.587  18.595  0.00  0.00    +0.000 A 
ATOM      8  C   UNL     1       4.551   4.580  17.563  0.00  0.00    +0.000 A 
ATOM      9  C   UNL     1       5.699   5.413  17.532  0.00  0.00    +0.000 A 
ATOM     10  C   UNL     1       6.522   5.535  16.396  0.00  0.00    +0.000 A 
ENDROOT
BRANCH   1  12
ATOM     11  C   UNL     1       6.602   3.993  13.068  0.00  0.00    +0.000 C 
ATOM     12  O   UNL     1       6.949   4.900  14.127  0.00  0.00    +0.000 OA
ENDBRANCH   1  12
BRANCH  10  13
ATOM     13  O   UNL     1       7.484   6.479  16.604  0.00  0.00    +0.000 OA
ATOM     14  C   UNL     1       7.539   7.223  17.805  0.00  0.00    +0.000 C 
ENDBRANCH  10  13
BRANCH   7  15
ATOM     15  C   UNL     1       3.537   5.642  19.694  0.00  0.00    +0.000 C 
BRANCH  15  16
ATOM     16  C   UNL     1       2.560   6.802  19.540  0.00  0.00    +0.000 A 
ATOM     17  C   UNL     1       2.570   7.574  18.363  0.00  0.00    +0.000 A 
ATOM     18  C   UNL     1       1.907   8.803  18.273  0.00  0.00    +0.000 A 
ATOM     19  C   UNL     1       1.244   9.269  19.411  0.00  0.00    +0.000 A 
ATOM     20  C   UNL     1       1.148   8.504  20.576  0.00  0.00    +0.000 A 
ATOM     21  C   UNL     1       0.403   9.264  21.517  0.00  0.00    +0.000 A 
ATOM     22  C   UNL     1       0.117  10.482  20.943  0.00  0.00    +0.000 A 
ATOM     23  N   UNL     1       0.626  10.477  19.670  0.00  0.00    +0.000 N 
ATOM     24  C   UNL     1       0.602  11.608  18.772  0.00  0.00    +0.000 C 
ATOM     25  C   UNL     1       1.795   7.250  20.632  0.00  0.00    +0.000 A 
ENDBRANCH  15  16
BRANCH  15  26
ATOM     26  O   UNL     1       4.861   6.142  19.920  0.00  0.00    +0.000 OA
ATOM     27  H   UNL     1       5.254   5.636  20.647  0.00  0.00    +0.000 HD
ENDBRANCH  15  26
ENDBRANCH   7  15
TORSDOF 5
ENDMDL
