MODEL 1
REMARK VINA RESULT:      -5.8      0.000      0.000
REMARK  Name = 
REMARK  4 active torsions:
REMARK  status: ('A' for Active; 'I' for Inactive)
REMARK    1  A    between atoms: C_2  and  C_3
REMARK    2  A    between atoms: C_3  and  N_4
REMARK    3  A    between atoms: C_5  and  S_6
REMARK    4  A    between atoms: C_9  and  C_10
REMARK                            x       y       z     vdW  Elec       q    Type
REMARK                         _______ _______ _______ _____ _____    ______ ____
ROOT
ATOM      1  N   UNL     1       3.546   4.801  19.683  0.00  0.00    +0.000 N 
ATOM      2  C   UNL     1       2.835   3.672  20.002  0.00  0.00    +0.000 A 
ATOM      3  N   UNL     1       3.583   2.609  19.818  0.00  0.00    +0.000 NA
ATOM      4  N   UNL     1       4.820   3.030  19.405  0.00  0.00    +0.000 NA
ATOM      5  C   UNL     1       4.805   4.347  19.340  0.00  0.00    +0.000 A 
ENDROOT
BRANCH   5   6
ATOM      6  C   UNL     1       5.947   5.138  18.991  0.00  0.00    +0.000 A 
ATOM      7  C   UNL     1       6.182   5.817  17.806  0.00  0.00    +0.000 A 
ATOM      8  C   UNL     1       7.448   6.439  17.914  0.00  0.00    +0.000 A 
ATOM      9  C   UNL     1       7.920   6.114  19.162  0.00  0.00    +0.000 A 
ATOM     10  O   UNL     1       7.028   5.330  19.815  0.00  0.00    +0.000 OA
ENDBRANCH   5   6
BRANCH   2  11
ATOM     11  S   UNL     1       1.202   3.623  20.565  0.00  0.00    +0.000 S 
ATOM     12  H   UNL     1       1.325   2.835  21.639  0.00  0.00    +0.000 HD
ENDBRANCH   2  11
BRANCH   1  13
ATOM     13  C   UNL     1       3.085   6.174  19.643  0.00  0.00    +0.000 C 
BRANCH  13  15
ATOM     14  C   UNL     1       2.322   7.829  17.902  0.00  0.00    +0.000 C 
ATOM     15  C   UNL     1       2.595   6.573  18.280  0.00  0.00    +0.000 C 
ENDBRANCH  13  15
ENDBRANCH   1  13
TORSDOF 4
ENDMDL
MODEL 2
REMARK VINA RESULT:      -5.6      1.802      2.845
REMARK  Name = 
REMARK  4 active torsions:
REMARK  status: ('A' for Active; 'I' for Inactive)
REMARK    1  A    between atoms: C_2  and  C_3
REMARK    2  A    between atoms: C_3  and  N_4
REMARK    3  A    between atoms: C_5  and  S_6
REMARK    4  A    between atoms: C_9  and  C_10
REMARK                            x       y       z     vdW  Elec       q    Type
REMARK                         _______ _______ _______ _____ _____    ______ ____
ROOT
ATOM      1  N   UNL     1       3.735   3.527  19.725  0.00  0.00    +0.000 N 
ATOM      2  C   UNL     1       2.673   4.048  20.420  0.00  0.00    +0.000 A 
ATOM      3  N   UNL     1       2.709   5.359  20.368  0.00  0.00    +0.000 NA
ATOM      4  N   UNL     1       3.786   5.722  19.602  0.00  0.00    +0.000 NA
ATOM      5  C   UNL     1       4.393   4.622  19.201  0.00  0.00    +0.000 A 
ENDROOT
BRANCH   5   6
ATOM      6  C   UNL     1       5.536   4.616  18.337  0.00  0.00    +0.000 A 
ATOM      7  C   UNL     1       5.556   4.541  16.954  0.00  0.00    +0.000 A 
ATOM      8  C   UNL     1       6.911   4.548  16.545  0.00  0.00    +0.000 A 
ATOM      9  C   UNL     1       7.650   4.633  17.700  0.00  0.00    +0.000 A 
ATOM     10  O   UNL     1       6.834   4.671  18.781  0.00  0.00    +0.000 OA
ENDBRANCH   5   6
BRANCH   2  11
ATOM     11  S   UNL     1       1.454   3.144  21.245  0.00  0.00    +0.000 S 
ATOM     12  H   UNL     1       1.555   1.959  20.634  0.00  0.00    +0.000 HD
ENDBRANCH   2  11
BRANCH   1  13
ATOM     13  C   UNL     1       4.139   2.140  19.607  0.00  0.00    +0.000 C 
BRANCH  13  15
ATOM     14  C   UNL     1       2.672   2.048  17.560  0.00  0.00    +0.000 C 
ATOM     15  C   UNL     1       3.517   1.463  18.419  0.00  0.00    +0.000 C 
ENDBRANCH  13  15
ENDBRANCH   1  13
TORSDOF 4
ENDMDL
MODEL 3
REMARK VINA RESULT:      -5.6      1.004      1.202
REMARK  Name = 
REMARK  4 active torsions:
REMARK  status: ('A' for Active; 'I' for Inactive)
REMARK    1  A    between atoms: C_2  and  C_3
REMARK    2  A    between atoms: C_3  and  N_4
REMARK    3  A    between atoms: C_5  and  S_6
REMARK    4  A    between atoms: C_9  and  C_10
REMARK                            x       y       z     vdW  Elec       q    Type
REMARK                         _______ _______ _______ _____ _____    ______ ____
ROOT
ATOM      1  N   UNL     1       3.541   4.203  19.834  0.00  0.00    +0.000 N 
ATOM      2  C   UNL     1       3.028   3.107  20.480  0.00  0.00    +0.000 A 
ATOM      3  N   UNL     1       3.911   2.136  20.477  0.00  0.00    +0.000 NA
ATOM      4  N   UNL     1       5.041   2.596  19.852  0.00  0.00    +0.000 NA
ATOM      5  C   UNL     1       4.827   3.843  19.481  0.00  0.00    +0.000 A 
ENDROOT
BRANCH   5   6
ATOM      6  C   UNL     1       5.813   4.661  18.841  0.00  0.00    +0.000 A 
ATOM      7  C   UNL     1       5.957   4.918  17.487  0.00  0.00    +0.000 A 
ATOM      8  C   UNL     1       7.081   5.764  17.330  0.00  0.00    +0.000 A 
ATOM      9  C   UNL     1       7.563   5.985  18.596  0.00  0.00    +0.000 A 
ATOM     10  O   UNL     1       6.811   5.326  19.510  0.00  0.00    +0.000 OA
ENDBRANCH   5   6
BRANCH   2  11
ATOM     11  S   UNL     1       1.463   2.992  21.203  0.00  0.00    +0.000 S 
ATOM     12  H   UNL     1       0.879   4.098  20.728  0.00  0.00    +0.000 HD
ENDBRANCH   2  11
BRANCH   1  13
ATOM     13  C   UNL     1       2.880   5.453  19.518  0.00  0.00    +0.000 C 
BRANCH  13  15
ATOM     14  C   UNL     1       1.582   4.429  17.617  0.00  0.00    +0.000 C 
ATOM     15  C   UNL     1       2.272   5.448  18.145  0.00  0.00    +0.000 C 
ENDBRANCH  13  15
ENDBRANCH   1  13
TORSDOF 4
ENDMDL
MODEL 4
REMARK VINA RESULT:      -5.6      2.770      4.454
REMARK  Name = 
REMARK  4 active torsions:
REMARK  status: ('A' for Active; 'I' for Inactive)
REMARK    1  A    between atoms: C_2  and  C_3
REMARK    2  A    between atoms: C_3  and  N_4
REMARK    3  A    between atoms: C_5  and  S_6
REMARK    4  A    between atoms: C_9  and  C_10
REMARK                            x       y       z     vdW  Elec       q    Type
REMARK                         _______ _______ _______ _____ _____    ______ ____
ROOT
ATOM      1  N   UNL     1       4.562   5.281  18.131  0.00  0.00    +0.000 N 
ATOM      2  C   UNL     1       5.930   5.339  18.223  0.00  0.00    +0.000 A 
ATOM      3  N   UNL     1       6.360   4.403  19.037  0.00  0.00    +0.000 NA
ATOM      4  N   UNL     1       5.273   3.688  19.468  0.00  0.00    +0.000 NA
ATOM      5  C   UNL     1       4.195   4.203  18.911  0.00  0.00    +0.000 A 
ENDROOT
BRANCH   5   6
ATOM      6  C   UNL     1       2.876   3.674  19.096  0.00  0.00    +0.000 A 
ATOM      7  C   UNL     1       1.990   3.940  20.127  0.00  0.00    +0.000 A 
ATOM      8  C   UNL     1       0.822   3.176  19.894  0.00  0.00    +0.000 A 
ATOM      9  C   UNL     1       1.052   2.486  18.729  0.00  0.00    +0.000 A 
ATOM     10  O   UNL     1       2.283   2.776  18.243  0.00  0.00    +0.000 OA
ENDBRANCH   5   6
BRANCH   2  11
ATOM     11  S   UNL     1       6.959   6.459  17.404  0.00  0.00    +0.000 S 
ATOM     12  H   UNL     1       7.073   7.423  18.324  0.00  0.00    +0.000 HD
ENDBRANCH   2  11
BRANCH   1  13
ATOM     13  C   UNL     1       3.669   6.181  17.429  0.00  0.00    +0.000 C 
BRANCH  13  15
ATOM     14  C   UNL     1       2.188   8.149  17.960  0.00  0.00    +0.000 C 
ATOM     15  C   UNL     1       3.099   7.239  18.329  0.00  0.00    +0.000 C 
ENDBRANCH  13  15
ENDBRANCH   1  13
TORSDOF 4
ENDMDL
MODEL 5
REMARK VINA RESULT:      -5.6      3.239      4.722
REMARK  Name = 
REMARK  4 active torsions:
REMARK  status: ('A' for Active; 'I' for Inactive)
REMARK    1  A    between atoms: C_2  and  C_3
REMARK    2  A    between atoms: C_3  and  N_4
REMARK    3  A    between atoms: C_5  and  S_6
REMARK    4  A    between atoms: C_9  and  C_10
REMARK                            x       y       z     vdW  Elec       q    Type
REMARK                         _______ _______ _______ _____ _____    ______ ____
ROOT
ATOM      1  N   UNL     1       5.468   5.621  17.852  0.00  0.00    +0.000 N 
ATOM      2  C   UNL     1       6.626   6.023  18.467  0.00  0.00    +0.000 A 
ATOM      3  N   UNL     1       6.785   5.363  19.590  0.00  0.00    +0.000 NA
ATOM      4  N   UNL     1       5.740   4.484  19.714  0.00  0.00    +0.000 NA
ATOM      5  C   UNL     1       4.958   4.625  18.662  0.00  0.00    +0.000 A 
ENDROOT
BRANCH   5   6
ATOM      6  C   UNL     1       3.789   3.829  18.429  0.00  0.00    +0.000 A 
ATOM      7  C   UNL     1       3.712   2.593  17.809  0.00  0.00    +0.000 A 
ATOM      8  C   UNL     1       2.350   2.208  17.792  0.00  0.00    +0.000 A 
ATOM      9  C   UNL     1       1.665   3.227  18.408  0.00  0.00    +0.000 A 
ATOM     10  O   UNL     1       2.520   4.207  18.791  0.00  0.00    +0.000 OA
ENDBRANCH   5   6
BRANCH   2  11
ATOM     11  S   UNL     1       7.732   7.212  17.877  0.00  0.00    +0.000 S 
ATOM     12  H   UNL     1       8.900   6.585  18.051  0.00  0.00    +0.000 HD
ENDBRANCH   2  11
BRANCH   1  13
ATOM     13  C   UNL     1       4.856   6.152  16.651  0.00  0.00    +0.000 C 
BRANCH  13  15
ATOM     14  C   UNL     1       5.479   4.352  15.001  0.00  0.00    +0.000 C 
ATOM     15  C   UNL     1       5.503   5.630  15.400  0.00  0.00    +0.000 C 
ENDBRANCH  13  15
ENDBRANCH   1  13
TORSDOF 4
ENDMDL
MODEL 6
REMARK VINA RESULT:      -5.6      1.185      1.381
REMARK  Name = 
REMARK  4 active torsions:
REMARK  status: ('A' for Active; 'I' for Inactive)
REMARK    1  A    between atoms: C_2  and  C_3
REMARK    2  A    between atoms: C_3  and  N_4
REMARK    3  A    between atoms: C_5  and  S_6
REMARK    4  A    between atoms: C_9  and  C_10
REMARK                            x       y       z     vdW  Elec       q    Type
REMARK                         _______ _______ _______ _____ _____    ______ ____
ROOT
ATOM      1  N   UNL     1       3.328   4.037  18.771  0.00  0.00    +0.000 N 
ATOM      2  C   UNL     1       2.665   3.138  19.567  0.00  0.00    +0.000 A 
ATOM      3  N   UNL     1       3.532   2.390  20.209  0.00  0.00    +0.000 NA
ATOM      4  N   UNL     1       4.790   2.814  19.866  0.00  0.00    +0.000 NA
ATOM      5  C   UNL     1       4.668   3.815  19.016  0.00  0.00    +0.000 A 
ENDROOT
BRANCH   5   6
ATOM      6  C   UNL     1       5.781   4.541  18.481  0.00  0.00    +0.000 A 
ATOM      7  C   UNL     1       6.560   5.494  19.116  0.00  0.00    +0.000 A 
ATOM      8  C   UNL     1       7.526   5.946  18.186  0.00  0.00    +0.000 A 
ATOM      9  C   UNL     1       7.292   5.242  17.031  0.00  0.00    +0.000 A 
ATOM     10  O   UNL     1       6.244   4.398  17.196  0.00  0.00    +0.000 OA
ENDBRANCH   5   6
BRANCH   2  11
ATOM     11  S   UNL     1       0.951   2.989  19.727  0.00  0.00    +0.000 S 
ATOM     12  H   UNL     1       0.842   1.723  20.142  0.00  0.00    +0.000 HD
ENDBRANCH   2  11
BRANCH   1  13
ATOM     13  C   UNL     1       2.771   4.980  17.822  0.00  0.00    +0.000 C 
BRANCH  13  15
ATOM     14  C   UNL     1       3.160   7.468  17.894  0.00  0.00    +0.000 C 
ATOM     15  C   UNL     1       2.617   6.355  18.404  0.00  0.00    +0.000 C 
ENDBRANCH  13  15
ENDBRANCH   1  13
TORSDOF 4
ENDMDL
MODEL 7
REMARK VINA RESULT:      -5.5      3.201      4.762
REMARK  Name = 
REMARK  4 active torsions:
REMARK  status: ('A' for Active; 'I' for Inactive)
REMARK    1  A    between atoms: C_2  and  C_3
REMARK    2  A    between atoms: C_3  and  N_4
REMARK    3  A    between atoms: C_5  and  S_6
REMARK    4  A    between atoms: C_9  and  C_10
REMARK                            x       y       z     vdW  Elec       q    Type
REMARK                         _______ _______ _______ _____ _____    ______ ____
ROOT
ATOM      1  N   UNL     1       5.544   5.614  17.807  0.00  0.00    +0.000 N 
ATOM      2  C   UNL     1       6.673   6.019  18.474  0.00  0.00    +0.000 A 
ATOM      3  N   UNL     1       6.756   5.395  19.626  0.00  0.00    +0.000 NA
ATOM      4  N   UNL     1       5.691   4.537  19.719  0.00  0.00    +0.000 NA
ATOM      5  C   UNL     1       4.972   4.656  18.619  0.00  0.00    +0.000 A 
ENDROOT
BRANCH   5   6
ATOM      6  C   UNL     1       3.805   3.871  18.346  0.00  0.00    +0.000 A 
ATOM      7  C   UNL     1       2.478   4.240  18.492  0.00  0.00    +0.000 A 
ATOM      8  C   UNL     1       1.682   3.132  18.119  0.00  0.00    +0.000 A 
ATOM      9  C   UNL     1       2.563   2.142  17.758  0.00  0.00    +0.000 A 
ATOM     10  O   UNL     1       3.840   2.575  17.894  0.00  0.00    +0.000 OA
ENDBRANCH   5   6
BRANCH   2  11
ATOM     11  S   UNL     1       7.832   7.170  17.909  0.00  0.00    +0.000 S 
ATOM     12  H   UNL     1       8.002   7.920  19.003  0.00  0.00    +0.000 HD
ENDBRANCH   2  11
BRANCH   1  13
ATOM     13  C   UNL     1       5.011   6.114  16.556  0.00  0.00    +0.000 C 
BRANCH  13  15
ATOM     14  C   UNL     1       6.585   4.930  14.985  0.00  0.00    +0.000 C 
ATOM     15  C   UNL     1       5.344   5.222  15.395  0.00  0.00    +0.000 C 
ENDBRANCH  13  15
ENDBRANCH   1  13
TORSDOF 4
ENDMDL
MODEL 8
REMARK VINA RESULT:      -5.4      2.999      4.329
REMARK  Name = 
REMARK  4 active torsions:
REMARK  status: ('A' for Active; 'I' for Inactive)
REMARK    1  A    between atoms: C_2  and  C_3
REMARK    2  A    between atoms: C_3  and  N_4
REMARK    3  A    between atoms: C_5  and  S_6
REMARK    4  A    between atoms: C_9  and  C_10
REMARK                            x       y       z     vdW  Elec       q    Type
REMARK                         _______ _______ _______ _____ _____    ______ ____
ROOT
ATOM      1  N   UNL     1       5.255   5.647  17.890  0.00  0.00    +0.000 N 
ATOM      2  C   UNL     1       6.546   5.943  18.248  0.00  0.00    +0.000 A 
ATOM      3  N   UNL     1       6.954   5.104  19.171  0.00  0.00    +0.000 NA
ATOM      4  N   UNL     1       5.940   4.214  19.411  0.00  0.00    +0.000 NA
ATOM      5  C   UNL     1       4.925   4.529  18.629  0.00  0.00    +0.000 A 
ENDROOT
BRANCH   5   6
ATOM      6  C   UNL     1       3.704   3.780  18.574  0.00  0.00    +0.000 A 
ATOM      7  C   UNL     1       3.357   2.783  17.678  0.00  0.00    +0.000 A 
ATOM      8  C   UNL     1       2.049   2.352  18.003  0.00  0.00    +0.000 A 
ATOM      9  C   UNL     1       1.666   3.104  19.086  0.00  0.00    +0.000 A 
ATOM     10  O   UNL     1       2.651   3.967  19.435  0.00  0.00    +0.000 OA
ENDBRANCH   5   6
BRANCH   2  11
ATOM     11  S   UNL     1       7.516   7.217  17.598  0.00  0.00    +0.000 S 
ATOM     12  H   UNL     1       6.583   7.976  17.012  0.00  0.00    +0.000 HD
ENDBRANCH   2  11
BRANCH   1  13
ATOM     13  C   UNL     1       4.383   6.371  16.987  0.00  0.00    +0.000 C 
BRANCH  13  15
ATOM     14  C   UNL     1       2.371   7.303  18.183  0.00  0.00    +0.000 C 
ATOM     15  C   UNL     1       3.605   7.450  17.685  0.00  0.00    +0.000 C 
ENDBRANCH  13  15
ENDBRANCH   1  13
TORSDOF 4
ENDMDL
MODEL 9
REMARK VINA RESULT:      -5.4      1.677      1.867
REMARK  Name = 
REMARK  4 active torsions:
REMARK  status: ('A' for Active; 'I' for Inactive)
REMARK    1  A    between atoms: C_2  and  C_3
REMARK    2  A    between atoms: C_3  and  N_4
REMARK    3  A    between atoms: C_5  and  S_6
REMARK    4  A    between atoms: C_9  and  C_10
REMARK                            x       y       z     vdW  Elec       q    Type
REMARK                         _______ _______ _______ _____ _____    ______ ____
ROOT
ATOM      1  N   UNL     1       3.292   4.124  18.938  0.00  0.00    +0.000 N 
ATOM      2  C   UNL     1       2.452   3.173  19.458  0.00  0.00    +0.000 A 
ATOM      3  N   UNL     1       2.643   2.028  18.847  0.00  0.00    +0.000 NA
ATOM      4  N   UNL     1       3.647   2.202  17.930  0.00  0.00    +0.000 NA
ATOM      5  C   UNL     1       4.050   3.456  17.996  0.00  0.00    +0.000 A 
ENDROOT
BRANCH   5   6
ATOM      6  C   UNL     1       5.126   3.987  17.212  0.00  0.00    +0.000 A 
ATOM      7  C   UNL     1       5.145   4.231  15.849  0.00  0.00    +0.000 A 
ATOM      8  C   UNL     1       6.426   4.736  15.523  0.00  0.00    +0.000 A 
ATOM      9  C   UNL     1       7.123   4.781  16.706  0.00  0.00    +0.000 A 
ATOM     10  O   UNL     1       6.352   4.331  17.726  0.00  0.00    +0.000 OA
ENDBRANCH   5   6
BRANCH   2  11
ATOM     11  S   UNL     1       1.305   3.414  20.729  0.00  0.00    +0.000 S 
ATOM     12  H   UNL     1       2.092   3.318  21.806  0.00  0.00    +0.000 HD
ENDBRANCH   2  11
BRANCH   1  13
ATOM     13  C   UNL     1       3.349   5.539  19.244  0.00  0.00    +0.000 C 
BRANCH  13  15
ATOM     14  C   UNL     1       2.598   7.705  18.197  0.00  0.00    +0.000 C 
ATOM     15  C   UNL     1       2.564   6.368  18.268  0.00  0.00    +0.000 C 
ENDBRANCH  13  15
ENDBRANCH   1  13
TORSDOF 4
ENDMDL
