MODEL 1
REMARK VINA RESULT:      -7.8      0.000      0.000
REMARK  Name = 
REMARK  5 active torsions:
REMARK  status: ('A' for Active; 'I' for Inactive)
REMARK    1  A    between atoms: C_1  and  C_2
REMARK    2  A    between atoms: C_2  and  C_3
REMARK    3  A    between atoms: C_7  and  C_8
REMARK    4  A    between atoms: C_13  and  N_14
REMARK    5  A    between atoms: C_21  and  O_22
REMARK                            x       y       z     vdW  Elec       q    Type
REMARK                         _______ _______ _______ _____ _____    ______ ____
ROOT
ATOM      1  C   UNL     1       3.335   2.131  19.846  0.00  0.00    +0.000 C 
ATOM      2  C   UNL     1       2.393   3.125  19.130  0.00  0.00    +0.000 C 
ATOM      3  C   UNL     1       1.111   2.347  18.774  0.00  0.00    +0.000 C 
ATOM      4  O   UNL     1       2.017   4.051  20.174  0.00  0.00    +0.000 OA
ATOM      5  C   UNL     1       1.982   5.365  19.873  0.00  0.00    +0.000 A 
ATOM      6  C   UNL     1       1.480   6.362  20.755  0.00  0.00    +0.000 A 
ATOM      7  C   UNL     1       1.694   7.644  20.275  0.00  0.00    +0.000 A 
ATOM      8  S   UNL     1       2.376   7.600  18.703  0.00  0.00    +0.000 S 
ATOM      9  C   UNL     1       2.580   5.909  18.775  0.00  0.00    +0.000 A 
ATOM     10  C   UNL     1       3.410   5.185  17.788  0.00  0.00    +0.000 C 
ATOM     11  C   UNL     1       3.136   3.663  17.848  0.00  0.00    +0.000 C 
ENDROOT
BRANCH  10  12
ATOM     12  N   UNL     1       4.830   5.543  18.011  0.00  0.00    +0.000 N 
ATOM     13  C   UNL     1       5.586   4.832  19.045  0.00  0.00    +0.000 C 
ATOM     14  C   UNL     1       6.839   5.569  19.476  0.00  0.00    +0.000 C 
ATOM     15  C   UNL     1       7.672   5.845  18.242  0.00  0.00    +0.000 C 
ATOM     16  C   UNL     1       6.892   6.732  17.292  0.00  0.00    +0.000 C 
ATOM     17  C   UNL     1       5.464   6.293  17.028  0.00  0.00    +0.000 C 
ATOM     18  O   UNL     1       4.881   6.699  16.022  0.00  0.00    +0.000 OA
ENDBRANCH  10  12
BRANCH   7  19
ATOM     19  C   UNL     1       1.436   8.901  20.957  0.00  0.00    +0.000 C 
ATOM     20  N   UNL     1       1.726   8.945  22.294  0.00  0.00    +0.000 N 
ATOM     21  O   UNL     1       0.948   9.890  20.417  0.00  0.00    +0.000 OA
ATOM     22  H   UNL     1       2.083   8.139  22.785  0.00  0.00    +0.000 HD
ATOM     23  H   UNL     1       1.500   9.785  22.807  0.00  0.00    +0.000 HD
ENDBRANCH   7  19
BRANCH  11  24
ATOM     24  O   UNL     1       2.448   3.245  16.644  0.00  0.00    +0.000 OA
ATOM     25  H   UNL     1       1.487   3.340  16.788  0.00  0.00    +0.000 HD
ENDBRANCH  11  24
TORSDOF 3
ENDMDL
MODEL 2
REMARK VINA RESULT:      -7.7      2.098      4.649
REMARK  Name = 
REMARK  5 active torsions:
REMARK  status: ('A' for Active; 'I' for Inactive)
REMARK    1  A    between atoms: C_1  and  C_2
REMARK    2  A    between atoms: C_2  and  C_3
REMARK    3  A    between atoms: C_7  and  C_8
REMARK    4  A    between atoms: C_13  and  N_14
REMARK    5  A    between atoms: C_21  and  O_22
REMARK                            x       y       z     vdW  Elec       q    Type
REMARK                         _______ _______ _______ _____ _____    ______ ____
ROOT
ATOM      1  C   UNL     1       5.138   5.153  16.230  0.00  0.00    +0.000 C 
ATOM      2  C   UNL     1       5.136   6.129  17.428  0.00  0.00    +0.000 C 
ATOM      3  C   UNL     1       6.505   6.837  17.431  0.00  0.00    +0.000 C 
ATOM      4  O   UNL     1       4.169   7.135  17.048  0.00  0.00    +0.000 OA
ATOM      5  C   UNL     1       3.307   7.572  17.987  0.00  0.00    +0.000 A 
ATOM      6  C   UNL     1       2.416   8.664  17.791  0.00  0.00    +0.000 A 
ATOM      7  C   UNL     1       1.531   8.816  18.847  0.00  0.00    +0.000 A 
ATOM      8  S   UNL     1       1.894   7.715  20.111  0.00  0.00    +0.000 S 
ATOM      9  C   UNL     1       3.061   6.916  19.157  0.00  0.00    +0.000 A 
ATOM     10  C   UNL     1       3.628   5.610  19.558  0.00  0.00    +0.000 C 
ATOM     11  C   UNL     1       4.901   5.288  18.742  0.00  0.00    +0.000 C 
ENDROOT
BRANCH  10  12
ATOM     12  N   UNL     1       2.569   4.580  19.442  0.00  0.00    +0.000 N 
ATOM     13  C   UNL     1       2.308   3.978  18.132  0.00  0.00    +0.000 C 
ATOM     14  C   UNL     1       0.953   3.302  18.050  0.00  0.00    +0.000 C 
ATOM     15  C   UNL     1       0.859   2.293  19.176  0.00  0.00    +0.000 C 
ATOM     16  C   UNL     1       0.962   3.009  20.508  0.00  0.00    +0.000 C 
ATOM     17  C   UNL     1       2.104   4.003  20.617  0.00  0.00    +0.000 C 
ATOM     18  O   UNL     1       2.502   4.348  21.730  0.00  0.00    +0.000 OA
ENDBRANCH  10  12
BRANCH   7  19
ATOM     19  C   UNL     1       0.407   9.732  18.936  0.00  0.00    +0.000 C 
ATOM     20  N   UNL     1      -0.035  10.279  17.762  0.00  0.00    +0.000 N 
ATOM     21  O   UNL     1      -0.131  10.061  19.990  0.00  0.00    +0.000 OA
ATOM     22  H   UNL     1       0.411  10.070  16.881  0.00  0.00    +0.000 HD
ATOM     23  H   UNL     1      -0.774  10.965  17.800  0.00  0.00    +0.000 HD
ENDBRANCH   7  19
BRANCH  11  24
ATOM     24  O   UNL     1       6.063   5.352  19.605  0.00  0.00    +0.000 OA
ATOM     25  H   UNL     1       5.830   5.872  20.398  0.00  0.00    +0.000 HD
ENDBRANCH  11  24
TORSDOF 3
ENDMDL
MODEL 3
REMARK VINA RESULT:      -7.2      2.169      4.667
REMARK  Name = 
REMARK  5 active torsions:
REMARK  status: ('A' for Active; 'I' for Inactive)
REMARK    1  A    between atoms: C_1  and  C_2
REMARK    2  A    between atoms: C_2  and  C_3
REMARK    3  A    between atoms: C_7  and  C_8
REMARK    4  A    between atoms: C_13  and  N_14
REMARK    5  A    between atoms: C_21  and  O_22
REMARK                            x       y       z     vdW  Elec       q    Type
REMARK                         _______ _______ _______ _____ _____    ______ ____
ROOT
ATOM      1  C   UNL     1       6.130   4.515  16.545  0.00  0.00    +0.000 C 
ATOM      2  C   UNL     1       5.957   5.606  17.626  0.00  0.00    +0.000 C 
ATOM      3  C   UNL     1       7.331   6.281  17.803  0.00  0.00    +0.000 C 
ATOM      4  O   UNL     1       5.112   6.590  16.987  0.00  0.00    +0.000 OA
ATOM      5  C   UNL     1       4.116   7.137  17.713  0.00  0.00    +0.000 A 
ATOM      6  C   UNL     1       3.316   8.223  17.260  0.00  0.00    +0.000 A 
ATOM      7  C   UNL     1       2.268   8.499  18.124  0.00  0.00    +0.000 A 
ATOM      8  S   UNL     1       2.363   7.523  19.530  0.00  0.00    +0.000 S 
ATOM      9  C   UNL     1       3.646   6.608  18.878  0.00  0.00    +0.000 A 
ATOM     10  C   UNL     1       4.082   5.336  19.495  0.00  0.00    +0.000 C 
ATOM     11  C   UNL     1       5.465   4.906  18.951  0.00  0.00    +0.000 C 
ENDROOT
BRANCH  10  12
ATOM     12  N   UNL     1       3.021   4.323  19.291  0.00  0.00    +0.000 N 
ATOM     13  C   UNL     1       3.093   3.447  18.119  0.00  0.00    +0.000 C 
ATOM     14  C   UNL     1       1.767   2.792  17.786  0.00  0.00    +0.000 C 
ATOM     15  C   UNL     1       1.279   2.061  19.019  0.00  0.00    +0.000 C 
ATOM     16  C   UNL     1       1.058   3.055  20.143  0.00  0.00    +0.000 C 
ATOM     17  C   UNL     1       2.198   4.030  20.372  0.00  0.00    +0.000 C 
ATOM     18  O   UNL     1       2.292   4.608  21.455  0.00  0.00    +0.000 OA
ENDBRANCH  10  12
BRANCH   7  19
ATOM     19  C   UNL     1       1.183   9.444  17.925  0.00  0.00    +0.000 C 
ATOM     20  N   UNL     1       1.506  10.773  17.980  0.00  0.00    +0.000 N 
ATOM     21  O   UNL     1       0.011   9.120  17.750  0.00  0.00    +0.000 OA
ATOM     22  H   UNL     1       2.449  11.080  18.169  0.00  0.00    +0.000 HD
ATOM     23  H   UNL     1       0.763  11.452  17.906  0.00  0.00    +0.000 HD
ENDBRANCH   7  19
BRANCH  11  24
ATOM     24  O   UNL     1       6.460   5.031  19.996  0.00  0.00    +0.000 OA
ATOM     25  H   UNL     1       7.114   5.702  19.722  0.00  0.00    +0.000 HD
ENDBRANCH  11  24
TORSDOF 3
ENDMDL
MODEL 4
REMARK VINA RESULT:      -7.0      2.146      5.225
REMARK  Name = 
REMARK  5 active torsions:
REMARK  status: ('A' for Active; 'I' for Inactive)
REMARK    1  A    between atoms: C_1  and  C_2
REMARK    2  A    between atoms: C_2  and  C_3
REMARK    3  A    between atoms: C_7  and  C_8
REMARK    4  A    between atoms: C_13  and  N_14
REMARK    5  A    between atoms: C_21  and  O_22
REMARK                            x       y       z     vdW  Elec       q    Type
REMARK                         _______ _______ _______ _____ _____    ______ ____
ROOT
ATOM      1  C   UNL     1       0.492   3.326  18.480  0.00  0.00    +0.000 C 
ATOM      2  C   UNL     1       1.828   3.243  19.252  0.00  0.00    +0.000 C 
ATOM      3  C   UNL     1       1.825   1.900  20.008  0.00  0.00    +0.000 C 
ATOM      4  O   UNL     1       2.819   3.109  18.208  0.00  0.00    +0.000 OA
ATOM      5  C   UNL     1       3.960   3.817  18.321  0.00  0.00    +0.000 A 
ATOM      6  C   UNL     1       5.075   3.658  17.453  0.00  0.00    +0.000 A 
ATOM      7  C   UNL     1       6.060   4.606  17.684  0.00  0.00    +0.000 A 
ATOM      8  S   UNL     1       5.665   5.578  19.040  0.00  0.00    +0.000 S 
ATOM      9  C   UNL     1       4.112   4.882  19.159  0.00  0.00    +0.000 A 
ATOM     10  C   UNL     1       3.060   5.476  20.012  0.00  0.00    +0.000 C 
ATOM     11  C   UNL     1       1.901   4.476  20.233  0.00  0.00    +0.000 C 
ENDROOT
BRANCH  10  12
ATOM     12  N   UNL     1       2.632   6.760  19.411  0.00  0.00    +0.000 N 
ATOM     13  C   UNL     1       2.774   6.948  17.965  0.00  0.00    +0.000 C 
ATOM     14  C   UNL     1       2.734   8.405  17.549  0.00  0.00    +0.000 C 
ATOM     15  C   UNL     1       1.456   9.014  18.085  0.00  0.00    +0.000 C 
ATOM     16  C   UNL     1       1.457   8.944  19.600  0.00  0.00    +0.000 C 
ATOM     17  C   UNL     1       1.827   7.591  20.180  0.00  0.00    +0.000 C 
ATOM     18  O   UNL     1       1.504   7.320  21.337  0.00  0.00    +0.000 OA
ENDBRANCH  10  12
BRANCH   7  19
ATOM     19  C   UNL     1       7.271   4.831  16.913  0.00  0.00    +0.000 C 
ATOM     20  N   UNL     1       7.194   5.750  15.903  0.00  0.00    +0.000 N 
ATOM     21  O   UNL     1       8.325   4.227  17.096  0.00  0.00    +0.000 OA
ATOM     22  H   UNL     1       6.333   6.233  15.691  0.00  0.00    +0.000 HD
ATOM     23  H   UNL     1       8.002   5.883  15.312  0.00  0.00    +0.000 HD
ENDBRANCH   7  19
BRANCH  11  24
ATOM     24  O   UNL     1       1.895   4.034  21.613  0.00  0.00    +0.000 OA
ATOM     25  H   UNL     1       2.673   4.415  22.063  0.00  0.00    +0.000 HD
ENDBRANCH  11  24
TORSDOF 3
ENDMDL
MODEL 5
REMARK VINA RESULT:      -6.7      1.552      1.563
REMARK  Name = 
REMARK  5 active torsions:
REMARK  status: ('A' for Active; 'I' for Inactive)
REMARK    1  A    between atoms: C_1  and  C_2
REMARK    2  A    between atoms: C_2  and  C_3
REMARK    3  A    between atoms: C_7  and  C_8
REMARK    4  A    between atoms: C_13  and  N_14
REMARK    5  A    between atoms: C_21  and  O_22
REMARK                            x       y       z     vdW  Elec       q    Type
REMARK                         _______ _______ _______ _____ _____    ______ ____
ROOT
ATOM      1  C   UNL     1       3.371   2.533  21.166  0.00  0.00    +0.000 C 
ATOM      2  C   UNL     1       2.420   3.144  20.112  0.00  0.00    +0.000 C 
ATOM      3  C   UNL     1       1.093   2.365  20.202  0.00  0.00    +0.000 C 
ATOM      4  O   UNL     1       2.139   4.465  20.629  0.00  0.00    +0.000 OA
ATOM      5  C   UNL     1       2.130   5.497  19.762  0.00  0.00    +0.000 A 
ATOM      6  C   UNL     1       1.716   6.813  20.108  0.00  0.00    +0.000 A 
ATOM      7  C   UNL     1       1.943   7.721  19.085  0.00  0.00    +0.000 A 
ATOM      8  S   UNL     1       2.526   6.926  17.683  0.00  0.00    +0.000 S 
ATOM      9  C   UNL     1       2.677   5.445  18.514  0.00  0.00    +0.000 A 
ATOM     10  C   UNL     1       3.420   4.304  17.936  0.00  0.00    +0.000 C 
ATOM     11  C   UNL     1       3.100   2.996  18.697  0.00  0.00    +0.000 C 
ENDROOT
BRANCH  10  12
ATOM     12  N   UNL     1       4.862   4.642  17.915  0.00  0.00    +0.000 N 
ATOM     13  C   UNL     1       5.566   4.827  19.186  0.00  0.00    +0.000 C 
ATOM     14  C   UNL     1       6.869   5.589  19.038  0.00  0.00    +0.000 C 
ATOM     15  C   UNL     1       7.719   4.873  18.009  0.00  0.00    +0.000 C 
ATOM     16  C   UNL     1       7.005   4.873  16.672  0.00  0.00    +0.000 C 
ATOM     17  C   UNL     1       5.548   4.449  16.722  0.00  0.00    +0.000 C 
ATOM     18  O   UNL     1       4.996   4.059  15.693  0.00  0.00    +0.000 OA
ENDBRANCH  10  12
BRANCH   7  19
ATOM     19  C   UNL     1       1.768   9.163  19.126  0.00  0.00    +0.000 C 
ATOM     20  N   UNL     1       2.120   9.857  18.001  0.00  0.00    +0.000 N 
ATOM     21  O   UNL     1       1.364   9.779  20.109  0.00  0.00    +0.000 OA
ATOM     22  H   UNL     1       2.501   9.391  17.190  0.00  0.00    +0.000 HD
ATOM     23  H   UNL     1       2.067  10.865  18.022  0.00  0.00    +0.000 HD
ENDBRANCH   7  19
BRANCH  11  24
ATOM     24  O   UNL     1       2.326   2.115  17.847  0.00  0.00    +0.000 OA
ATOM     25  H   UNL     1       2.789   1.257  17.788  0.00  0.00    +0.000 HD
ENDBRANCH  11  24
TORSDOF 3
ENDMDL
MODEL 6
REMARK VINA RESULT:      -6.6      2.022      4.533
REMARK  Name = 
REMARK  5 active torsions:
REMARK  status: ('A' for Active; 'I' for Inactive)
REMARK    1  A    between atoms: C_1  and  C_2
REMARK    2  A    between atoms: C_2  and  C_3
REMARK    3  A    between atoms: C_7  and  C_8
REMARK    4  A    between atoms: C_13  and  N_14
REMARK    5  A    between atoms: C_21  and  O_22
REMARK                            x       y       z     vdW  Elec       q    Type
REMARK                         _______ _______ _______ _____ _____    ______ ____
ROOT
ATOM      1  C   UNL     1       6.391   5.222  16.242  0.00  0.00    +0.000 C 
ATOM      2  C   UNL     1       6.127   6.105  17.483  0.00  0.00    +0.000 C 
ATOM      3  C   UNL     1       7.404   6.934  17.722  0.00  0.00    +0.000 C 
ATOM      4  O   UNL     1       5.125   7.043  17.028  0.00  0.00    +0.000 OA
ATOM      5  C   UNL     1       4.102   7.330  17.858  0.00  0.00    +0.000 A 
ATOM      6  C   UNL     1       3.141   8.347  17.601  0.00  0.00    +0.000 A 
ATOM      7  C   UNL     1       2.110   8.340  18.527  0.00  0.00    +0.000 A 
ATOM      8  S   UNL     1       2.406   7.189  19.762  0.00  0.00    +0.000 S 
ATOM      9  C   UNL     1       3.767   6.572  18.940  0.00  0.00    +0.000 A 
ATOM     10  C   UNL     1       4.402   5.298  19.341  0.00  0.00    +0.000 C 
ATOM     11  C   UNL     1       5.801   5.153  18.698  0.00  0.00    +0.000 C 
ENDROOT
BRANCH  10  12
ATOM     12  N   UNL     1       3.479   4.186  19.015  0.00  0.00    +0.000 N 
ATOM     13  C   UNL     1       2.442   4.400  18.002  0.00  0.00    +0.000 C 
ATOM     14  C   UNL     1       1.317   3.386  18.082  0.00  0.00    +0.000 C 
ATOM     15  C   UNL     1       1.923   2.001  18.000  0.00  0.00    +0.000 C 
ATOM     16  C   UNL     1       2.854   1.784  19.177  0.00  0.00    +0.000 C 
ATOM     17  C   UNL     1       3.837   2.911  19.435  0.00  0.00    +0.000 C 
ATOM     18  O   UNL     1       4.852   2.689  20.097  0.00  0.00    +0.000 OA
ENDBRANCH  10  12
BRANCH   7  19
ATOM     19  C   UNL     1       0.897   9.141  18.508  0.00  0.00    +0.000 C 
ATOM     20  N   UNL     1       0.499   9.682  19.700  0.00  0.00    +0.000 N 
ATOM     21  O   UNL     1       0.209   9.325  17.507  0.00  0.00    +0.000 OA
ATOM     22  H   UNL     1       1.011   9.515  20.554  0.00  0.00    +0.000 HD
ATOM     23  H   UNL     1      -0.372  10.192  19.729  0.00  0.00    +0.000 HD
ENDBRANCH   7  19
BRANCH  11  24
ATOM     24  O   UNL     1       6.821   5.261  19.720  0.00  0.00    +0.000 OA
ATOM     25  H   UNL     1       6.775   4.467  20.288  0.00  0.00    +0.000 HD
ENDBRANCH  11  24
TORSDOF 3
ENDMDL
MODEL 7
REMARK VINA RESULT:      -6.0      3.213      6.927
REMARK  Name = 
REMARK  5 active torsions:
REMARK  status: ('A' for Active; 'I' for Inactive)
REMARK    1  A    between atoms: C_1  and  C_2
REMARK    2  A    between atoms: C_2  and  C_3
REMARK    3  A    between atoms: C_7  and  C_8
REMARK    4  A    between atoms: C_13  and  N_14
REMARK    5  A    between atoms: C_21  and  O_22
REMARK                            x       y       z     vdW  Elec       q    Type
REMARK                         _______ _______ _______ _____ _____    ______ ____
ROOT
ATOM      1  C   UNL     1       7.539   5.498  18.953  0.00  0.00    +0.000 C 
ATOM      2  C   UNL     1       7.009   6.147  17.655  0.00  0.00    +0.000 C 
ATOM      3  C   UNL     1       7.726   7.504  17.508  0.00  0.00    +0.000 C 
ATOM      4  O   UNL     1       7.539   5.303  16.608  0.00  0.00    +0.000 OA
ATOM      5  C   UNL     1       6.727   4.980  15.582  0.00  0.00    +0.000 A 
ATOM      6  C   UNL     1       7.166   4.293  14.417  0.00  0.00    +0.000 A 
ATOM      7  C   UNL     1       6.114   3.947  13.583  0.00  0.00    +0.000 A 
ATOM      8  S   UNL     1       4.635   4.587  14.170  0.00  0.00    +0.000 S 
ATOM      9  C   UNL     1       5.371   5.113  15.616  0.00  0.00    +0.000 A 
ATOM     10  C   UNL     1       4.568   5.554  16.777  0.00  0.00    +0.000 C 
ATOM     11  C   UNL     1       5.447   6.315  17.798  0.00  0.00    +0.000 C 
ENDROOT
BRANCH  10  12
ATOM     12  N   UNL     1       3.877   4.375  17.350  0.00  0.00    +0.000 N 
ATOM     13  C   UNL     1       4.664   3.184  17.680  0.00  0.00    +0.000 C 
ATOM     14  C   UNL     1       3.818   1.934  17.821  0.00  0.00    +0.000 C 
ATOM     15  C   UNL     1       2.736   2.210  18.844  0.00  0.00    +0.000 C 
ATOM     16  C   UNL     1       1.852   3.340  18.355  0.00  0.00    +0.000 C 
ATOM     17  C   UNL     1       2.593   4.562  17.846  0.00  0.00    +0.000 C 
ATOM     18  O   UNL     1       2.007   5.643  17.783  0.00  0.00    +0.000 OA
ENDBRANCH  10  12
BRANCH   7  19
ATOM     19  C   UNL     1       6.167   3.133  12.380  0.00  0.00    +0.000 C 
ATOM     20  N   UNL     1       7.411   2.798  11.919  0.00  0.00    +0.000 N 
ATOM     21  O   UNL     1       5.177   2.769  11.752  0.00  0.00    +0.000 OA
ATOM     22  H   UNL     1       8.250   3.118  12.381  0.00  0.00    +0.000 HD
ATOM     23  H   UNL     1       7.480   2.285  11.052  0.00  0.00    +0.000 HD
ENDBRANCH   7  19
BRANCH  11  24
ATOM     24  O   UNL     1       5.081   7.717  17.806  0.00  0.00    +0.000 OA
ATOM     25  H   UNL     1       4.588   7.903  18.628  0.00  0.00    +0.000 HD
ENDBRANCH  11  24
TORSDOF 3
ENDMDL
MODEL 8
REMARK VINA RESULT:      -6.0      2.252      4.651
REMARK  Name = 
REMARK  5 active torsions:
REMARK  status: ('A' for Active; 'I' for Inactive)
REMARK    1  A    between atoms: C_1  and  C_2
REMARK    2  A    between atoms: C_2  and  C_3
REMARK    3  A    between atoms: C_7  and  C_8
REMARK    4  A    between atoms: C_13  and  N_14
REMARK    5  A    between atoms: C_21  and  O_22
REMARK                            x       y       z     vdW  Elec       q    Type
REMARK                         _______ _______ _______ _____ _____    ______ ____
ROOT
ATOM      1  C   UNL     1       5.518   3.892  15.428  0.00  0.00    +0.000 C 
ATOM      2  C   UNL     1       5.764   4.960  16.518  0.00  0.00    +0.000 C 
ATOM      3  C   UNL     1       7.210   5.461  16.334  0.00  0.00    +0.000 C 
ATOM      4  O   UNL     1       4.911   6.058  16.120  0.00  0.00    +0.000 OA
ATOM      5  C   UNL     1       4.210   6.696  17.078  0.00  0.00    +0.000 A 
ATOM      6  C   UNL     1       3.461   7.883  16.848  0.00  0.00    +0.000 A 
ATOM      7  C   UNL     1       2.711   8.254  17.954  0.00  0.00    +0.000 A 
ATOM      8  S   UNL     1       3.042   7.228  19.287  0.00  0.00    +0.000 S 
ATOM      9  C   UNL     1       3.992   6.188  18.325  0.00  0.00    +0.000 A 
ATOM     10  C   UNL     1       4.412   4.855  18.807  0.00  0.00    +0.000 C 
ATOM     11  C   UNL     1       5.545   4.281  17.924  0.00  0.00    +0.000 C 
ENDROOT
BRANCH  10  12
ATOM     12  N   UNL     1       3.217   3.982  18.884  0.00  0.00    +0.000 N 
ATOM     13  C   UNL     1       2.187   4.098  17.849  0.00  0.00    +0.000 C 
ATOM     14  C   UNL     1       0.855   3.507  18.269  0.00  0.00    +0.000 C 
ATOM     15  C   UNL     1       1.089   2.070  18.689  0.00  0.00    +0.000 C 
ATOM     16  C   UNL     1       2.029   2.036  19.877  0.00  0.00    +0.000 C 
ATOM     17  C   UNL     1       3.280   2.883  19.733  0.00  0.00    +0.000 C 
ATOM     18  O   UNL     1       4.258   2.645  20.441  0.00  0.00    +0.000 OA
ENDBRANCH  10  12
BRANCH   7  19
ATOM     19  C   UNL     1       1.736   9.328  18.043  0.00  0.00    +0.000 C 
ATOM     20  N   UNL     1       0.418   8.968  17.976  0.00  0.00    +0.000 N 
ATOM     21  O   UNL     1       2.029  10.517  18.138  0.00  0.00    +0.000 OA
ATOM     22  H   UNL     1       0.138   8.006  17.850  0.00  0.00    +0.000 HD
ATOM     23  H   UNL     1      -0.280   9.698  17.974  0.00  0.00    +0.000 HD
ENDBRANCH   7  19
BRANCH  11  24
ATOM     24  O   UNL     1       6.782   4.252  18.677  0.00  0.00    +0.000 OA
ATOM     25  H   UNL     1       6.565   4.167  19.625  0.00  0.00    +0.000 HD
ENDBRANCH  11  24
TORSDOF 3
ENDMDL
MODEL 9
REMARK VINA RESULT:      -5.8      9.073     10.628
REMARK  Name = 
REMARK  5 active torsions:
REMARK  status: ('A' for Active; 'I' for Inactive)
REMARK    1  A    between atoms: C_1  and  C_2
REMARK    2  A    between atoms: C_2  and  C_3
REMARK    3  A    between atoms: C_7  and  C_8
REMARK    4  A    between atoms: C_13  and  N_14
REMARK    5  A    between atoms: C_21  and  O_22
REMARK                            x       y       z     vdW  Elec       q    Type
REMARK                         _______ _______ _______ _____ _____    ______ ____
ROOT
ATOM      1  C   UNL     1      10.679  11.366  18.350  0.00  0.00    +0.000 C 
ATOM      2  C   UNL     1      10.400  12.867  18.106  0.00  0.00    +0.000 C 
ATOM      3  C   UNL     1      11.294  13.303  16.929  0.00  0.00    +0.000 C 
ATOM      4  O   UNL     1       9.045  12.885  17.604  0.00  0.00    +0.000 OA
ATOM      5  C   UNL     1       8.211  13.840  18.063  0.00  0.00    +0.000 A 
ATOM      6  C   UNL     1       6.909  14.068  17.538  0.00  0.00    +0.000 A 
ATOM      7  C   UNL     1       6.199  15.000  18.279  0.00  0.00    +0.000 A 
ATOM      8  S   UNL     1       7.181  15.674  19.511  0.00  0.00    +0.000 S 
ATOM      9  C   UNL     1       8.443  14.574  19.188  0.00  0.00    +0.000 A 
ATOM     10  C   UNL     1       9.582  14.406  20.117  0.00  0.00    +0.000 C 
ATOM     11  C   UNL     1      10.744  13.648  19.433  0.00  0.00    +0.000 C 
ENDROOT
BRANCH  10  12
ATOM     12  N   UNL     1       9.092  13.754  21.353  0.00  0.00    +0.000 N 
ATOM     13  C   UNL     1       8.979  12.294  21.387  0.00  0.00    +0.000 C 
ATOM     14  C   UNL     1       8.070  11.795  22.494  0.00  0.00    +0.000 C 
ATOM     15  C   UNL     1       8.569  12.363  23.806  0.00  0.00    +0.000 C 
ATOM     16  C   UNL     1       8.494  13.877  23.765  0.00  0.00    +0.000 C 
ATOM     17  C   UNL     1       9.074  14.515  22.516  0.00  0.00    +0.000 C 
ATOM     18  O   UNL     1       9.401  15.702  22.539  0.00  0.00    +0.000 OA
ENDBRANCH  10  12
BRANCH   7  19
ATOM     19  C   UNL     1       4.807  15.384  18.119  0.00  0.00    +0.000 C 
ATOM     20  N   UNL     1       3.942  14.405  17.712  0.00  0.00    +0.000 N 
ATOM     21  O   UNL     1       4.383  16.524  18.293  0.00  0.00    +0.000 OA
ATOM     22  H   UNL     1       4.259  13.468  17.513  0.00  0.00    +0.000 HD
ATOM     23  H   UNL     1       2.980  14.657  17.534  0.00  0.00    +0.000 HD
ENDBRANCH   7  19
BRANCH  11  24
ATOM     24  O   UNL     1      11.857  14.550  19.222  0.00  0.00    +0.000 OA
ATOM     25  H   UNL     1      12.687  14.050  19.345  0.00  0.00    +0.000 HD
ENDBRANCH  11  24
TORSDOF 3
ENDMDL
