MODEL 1
REMARK VINA RESULT:      -7.8      0.000      0.000
REMARK  Name = 
REMARK  3 active torsions:
REMARK  status: ('A' for Active; 'I' for Inactive)
REMARK    1  A    between atoms: C_1  and  O_2
REMARK    2  A    between atoms: O_2  and  C_3
REMARK    3  A    between atoms: C_19  and  C_20
REMARK                            x       y       z     vdW  Elec       q    Type
REMARK                         _______ _______ _______ _____ _____    ______ ____
ROOT
ATOM      1  C   UNL     1      -2.258  11.868  17.612  0.00  0.00    +0.000 C 
ATOM      2  C   UNL     1      -0.951  12.557  17.985  0.00  0.00    +0.000 C 
ATOM      3  C   UNL     1      -0.367  11.903  19.224  0.00  0.00    +0.000 C 
ATOM      4  C   UNL     1      -0.121  10.348  19.149  0.00  0.00    +0.000 C 
ATOM      5  C   UNL     1      -1.355   9.642  18.534  0.00  0.00    +0.000 C 
ATOM      6  C   UNL     1      -1.950  10.395  17.313  0.00  0.00    +0.000 C 
ATOM      7  C   UNL     1       1.110  10.261  18.170  0.00  0.00    +0.000 C 
ATOM      8  C   UNL     1       1.783   9.001  18.575  0.00  0.00    +0.000 A 
ATOM      9  C   UNL     1       2.524   8.173  17.738  0.00  0.00    +0.000 A 
ATOM     10  C   UNL     1       2.901   6.922  18.213  0.00  0.00    +0.000 A 
ATOM     11  C   UNL     1       2.511   6.528  19.497  0.00  0.00    +0.000 A 
ATOM     12 BR   UNL     1       2.846   4.739  20.040  0.00  0.00    +0.000 Br
ATOM     13  C   UNL     1       1.812   7.398  20.346  0.00  0.00    +0.000 A 
ATOM     14  C   UNL     1       1.476   8.682  19.897  0.00  0.00    +0.000 A 
ATOM     15  C   UNL     1       0.479   9.675  20.524  0.00  0.00    +0.000 C 
ATOM     16  N   UNL     1       0.945  10.916  21.260  0.00  0.00    +0.000 NA
ATOM     17  C   UNL     1       0.013  10.906  22.165  0.00  0.00    +0.000 C 
ATOM     18  C   UNL     1      -1.366  11.553  22.193  0.00  0.00    +0.000 C 
ATOM     19  C   UNL     1      -0.110   9.548  22.651  0.00  0.00    +0.000 C 
ATOM     20  N   UNL     1      -0.090   9.322  23.973  0.00  0.00    +0.000 N 
ATOM     21  N   UNL     1      -0.293   8.843  21.569  0.00  0.00    +0.000 NA
ATOM     22  H   UNL     1       0.291  10.104  24.513  0.00  0.00    +0.000 HD
ATOM     23  H   UNL     1       0.388   8.477  24.258  0.00  0.00    +0.000 HD
ENDROOT
BRANCH   1  25
ATOM     24  C   UNL     1      -4.565  11.580  18.268  0.00  0.00    +0.000 C 
ATOM     25  O   UNL     1      -3.235  11.879  18.662  0.00  0.00    +0.000 OA
ENDBRANCH   1  25
TORSDOF 1
ENDMDL
MODEL 2
REMARK VINA RESULT:      -7.7      4.579      7.638
REMARK  Name = 
REMARK  3 active torsions:
REMARK  status: ('A' for Active; 'I' for Inactive)
REMARK    1  A    between atoms: C_1  and  O_2
REMARK    2  A    between atoms: O_2  and  C_3
REMARK    3  A    between atoms: C_19  and  C_20
REMARK                            x       y       z     vdW  Elec       q    Type
REMARK                         _______ _______ _______ _____ _____    ______ ____
ROOT
ATOM      1  C   UNL     1       6.632   5.448  16.390  0.00  0.00    +0.000 C 
ATOM      2  C   UNL     1       5.312   5.196  15.672  0.00  0.00    +0.000 C 
ATOM      3  C   UNL     1       4.251   4.799  16.682  0.00  0.00    +0.000 C 
ATOM      4  C   UNL     1       4.002   5.802  17.872  0.00  0.00    +0.000 C 
ATOM      5  C   UNL     1       5.354   6.272  18.465  0.00  0.00    +0.000 C 
ATOM      6  C   UNL     1       6.421   6.598  17.384  0.00  0.00    +0.000 C 
ATOM      7  C   UNL     1       3.274   6.994  17.144  0.00  0.00    +0.000 C 
ATOM      8  C   UNL     1       2.449   7.602  18.219  0.00  0.00    +0.000 A 
ATOM      9  C   UNL     1       2.084   8.942  18.301  0.00  0.00    +0.000 A 
ATOM     10  C   UNL     1       1.503   9.396  19.479  0.00  0.00    +0.000 A 
ATOM     11  C   UNL     1       1.322   8.509  20.543  0.00  0.00    +0.000 A 
ATOM     12 BR   UNL     1       0.732   9.197  22.212  0.00  0.00    +0.000 Br
ATOM     13  C   UNL     1       1.646   7.149  20.423  0.00  0.00    +0.000 A 
ATOM     14  C   UNL     1       2.180   6.669  19.220  0.00  0.00    +0.000 A 
ATOM     15  C   UNL     1       2.871   5.317  18.961  0.00  0.00    +0.000 C 
ATOM     16  N   UNL     1       2.190   4.210  18.181  0.00  0.00    +0.000 NA
ATOM     17  C   UNL     1       2.673   3.224  18.876  0.00  0.00    +0.000 C 
ATOM     18  C   UNL     1       3.942   2.401  18.704  0.00  0.00    +0.000 C 
ATOM     19  C   UNL     1       2.539   3.570  20.275  0.00  0.00    +0.000 C 
ATOM     20  N   UNL     1       1.974   2.689  21.116  0.00  0.00    +0.000 N 
ATOM     21  N   UNL     1       3.121   4.733  20.368  0.00  0.00    +0.000 NA
ATOM     22  H   UNL     1       1.435   1.962  20.639  0.00  0.00    +0.000 HD
ATOM     23  H   UNL     1       1.392   3.096  21.837  0.00  0.00    +0.000 HD
ENDROOT
BRANCH   1  25
ATOM     24  C   UNL     1       8.048   4.620  18.163  0.00  0.00    +0.000 C 
ATOM     25  O   UNL     1       7.097   4.326  17.152  0.00  0.00    +0.000 OA
ENDBRANCH   1  25
TORSDOF 1
ENDMDL
MODEL 3
REMARK VINA RESULT:      -7.3      4.478      7.707
REMARK  Name = 
REMARK  3 active torsions:
REMARK  status: ('A' for Active; 'I' for Inactive)
REMARK    1  A    between atoms: C_1  and  O_2
REMARK    2  A    between atoms: O_2  and  C_3
REMARK    3  A    between atoms: C_19  and  C_20
REMARK                            x       y       z     vdW  Elec       q    Type
REMARK                         _______ _______ _______ _____ _____    ______ ____
ROOT
ATOM      1  C   UNL     1       1.864   1.984  19.596  0.00  0.00    +0.000 C 
ATOM      2  C   UNL     1       2.891   2.553  20.569  0.00  0.00    +0.000 C 
ATOM      3  C   UNL     1       3.557   3.769  19.950  0.00  0.00    +0.000 C 
ATOM      4  C   UNL     1       2.602   4.930  19.478  0.00  0.00    +0.000 C 
ATOM      5  C   UNL     1       1.402   4.346  18.690  0.00  0.00    +0.000 C 
ATOM      6  C   UNL     1       0.807   3.065  19.334  0.00  0.00    +0.000 C 
ATOM      7  C   UNL     1       2.120   5.533  20.851  0.00  0.00    +0.000 C 
ATOM      8  C   UNL     1       1.812   6.946  20.518  0.00  0.00    +0.000 A 
ATOM      9  C   UNL     1       0.858   7.738  21.149  0.00  0.00    +0.000 A 
ATOM     10  C   UNL     1       0.534   8.963  20.576  0.00  0.00    +0.000 A 
ATOM     11  C   UNL     1       1.154   9.350  19.384  0.00  0.00    +0.000 A 
ATOM     12 BR   UNL     1       0.538  10.918  18.507  0.00  0.00    +0.000 Br
ATOM     13  C   UNL     1       2.152   8.563  18.793  0.00  0.00    +0.000 A 
ATOM     14  C   UNL     1       2.527   7.353  19.392  0.00  0.00    +0.000 A 
ATOM     15  C   UNL     1       3.362   6.211  18.783  0.00  0.00    +0.000 C 
ATOM     16  N   UNL     1       4.793   5.952  19.212  0.00  0.00    +0.000 NA
ATOM     17  C   UNL     1       5.232   5.596  18.043  0.00  0.00    +0.000 C 
ATOM     18  C   UNL     1       5.313   4.230  17.374  0.00  0.00    +0.000 C 
ATOM     19  C   UNL     1       4.727   6.548  17.077  0.00  0.00    +0.000 C 
ATOM     20  N   UNL     1       5.581   7.121  16.214  0.00  0.00    +0.000 N 
ATOM     21  N   UNL     1       3.439   6.545  17.278  0.00  0.00    +0.000 NA
ATOM     22  H   UNL     1       6.561   7.042  16.501  0.00  0.00    +0.000 HD
ATOM     23  H   UNL     1       5.390   8.092  16.001  0.00  0.00    +0.000 HD
ENDROOT
BRANCH   1  25
ATOM     24  C   UNL     1       3.732   1.102  18.343  0.00  0.00    +0.000 C 
ATOM     25  O   UNL     1       2.414   1.628  18.321  0.00  0.00    +0.000 OA
ENDBRANCH   1  25
TORSDOF 1
ENDMDL
MODEL 4
REMARK VINA RESULT:      -5.8      3.079      4.870
REMARK  Name = 
REMARK  3 active torsions:
REMARK  status: ('A' for Active; 'I' for Inactive)
REMARK    1  A    between atoms: C_1  and  O_2
REMARK    2  A    between atoms: O_2  and  C_3
REMARK    3  A    between atoms: C_19  and  C_20
REMARK                            x       y       z     vdW  Elec       q    Type
REMARK                         _______ _______ _______ _____ _____    ______ ____
ROOT
ATOM      1  C   UNL     1      -3.012  13.661  23.296  0.00  0.00    +0.000 C 
ATOM      2  C   UNL     1      -3.048  14.477  22.009  0.00  0.00    +0.000 C 
ATOM      3  C   UNL     1      -1.672  14.474  21.367  0.00  0.00    +0.000 C 
ATOM      4  C   UNL     1      -1.044  13.062  21.059  0.00  0.00    +0.000 C 
ATOM      5  C   UNL     1      -1.219  12.123  22.279  0.00  0.00    +0.000 C 
ATOM      6  C   UNL     1      -2.622  12.221  22.936  0.00  0.00    +0.000 C 
ATOM      7  C   UNL     1      -1.927  12.569  19.851  0.00  0.00    +0.000 C 
ATOM      8  C   UNL     1      -1.023  11.649  19.116  0.00  0.00    +0.000 A 
ATOM      9  C   UNL     1      -1.422  10.550  18.364  0.00  0.00    +0.000 A 
ATOM     10  C   UNL     1      -0.447   9.662  17.924  0.00  0.00    +0.000 A 
ATOM     11  C   UNL     1       0.890   9.886  18.263  0.00  0.00    +0.000 A 
ATOM     12 BR   UNL     1       2.172   8.549  17.841  0.00  0.00    +0.000 Br
ATOM     13  C   UNL     1       1.280  11.029  18.975  0.00  0.00    +0.000 A 
ATOM     14  C   UNL     1       0.312  11.959  19.376  0.00  0.00    +0.000 A 
ATOM     15  C   UNL     1       0.460  13.104  20.396  0.00  0.00    +0.000 C 
ATOM     16  N   UNL     1       0.532  14.555  19.963  0.00  0.00    +0.000 NA
ATOM     17  C   UNL     1       1.381  14.935  20.871  0.00  0.00    +0.000 C 
ATOM     18  C   UNL     1       1.170  15.489  22.273  0.00  0.00    +0.000 C 
ATOM     19  C   UNL     1       2.435  13.944  20.925  0.00  0.00    +0.000 C 
ATOM     20  N   UNL     1       3.714  14.346  20.861  0.00  0.00    +0.000 N 
ATOM     21  N   UNL     1       1.801  12.820  21.107  0.00  0.00    +0.000 NA
ATOM     22  H   UNL     1       3.823  15.297  20.498  0.00  0.00    +0.000 HD
ATOM     23  H   UNL     1       4.332  13.735  20.341  0.00  0.00    +0.000 HD
ENDROOT
BRANCH   1  25
ATOM     24  C   UNL     1      -2.470  15.172  25.101  0.00  0.00    +0.000 C 
ATOM     25  O   UNL     1      -2.042  14.124  24.245  0.00  0.00    +0.000 OA
ENDBRANCH   1  25
TORSDOF 1
ENDMDL
MODEL 5
REMARK VINA RESULT:      -5.7     10.048     11.667
REMARK  Name = 
REMARK  3 active torsions:
REMARK  status: ('A' for Active; 'I' for Inactive)
REMARK    1  A    between atoms: C_1  and  O_2
REMARK    2  A    between atoms: O_2  and  C_3
REMARK    3  A    between atoms: C_19  and  C_20
REMARK                            x       y       z     vdW  Elec       q    Type
REMARK                         _______ _______ _______ _____ _____    ______ ____
ROOT
ATOM      1  C   UNL     1      11.013  11.752  17.779  0.00  0.00    +0.000 C 
ATOM      2  C   UNL     1      11.934  11.891  18.985  0.00  0.00    +0.000 C 
ATOM      3  C   UNL     1      11.571  13.145  19.760  0.00  0.00    +0.000 C 
ATOM      4  C   UNL     1      10.076  13.264  20.243  0.00  0.00    +0.000 C 
ATOM      5  C   UNL     1       9.111  12.881  19.093  0.00  0.00    +0.000 C 
ATOM      6  C   UNL     1       9.572  11.632  18.293  0.00  0.00    +0.000 C 
ATOM      7  C   UNL     1      10.020  12.189  21.393  0.00  0.00    +0.000 C 
ATOM      8  C   UNL     1       8.949  12.697  22.288  0.00  0.00    +0.000 A 
ATOM      9  C   UNL     1       8.119  11.914  23.084  0.00  0.00    +0.000 A 
ATOM     10  C   UNL     1       7.025  12.519  23.690  0.00  0.00    +0.000 A 
ATOM     11  C   UNL     1       6.780  13.878  23.469  0.00  0.00    +0.000 A 
ATOM     12 BR   UNL     1       5.164  14.629  24.125  0.00  0.00    +0.000 Br
ATOM     13  C   UNL     1       7.658  14.662  22.708  0.00  0.00    +0.000 A 
ATOM     14  C   UNL     1       8.795  14.074  22.138  0.00  0.00    +0.000 A 
ATOM     15  C   UNL     1       9.717  14.652  21.047  0.00  0.00    +0.000 C 
ATOM     16  N   UNL     1      11.110  15.158  21.366  0.00  0.00    +0.000 NA
ATOM     17  C   UNL     1      11.104  16.143  20.519  0.00  0.00    +0.000 C 
ATOM     18  C   UNL     1      11.539  16.219  19.062  0.00  0.00    +0.000 C 
ATOM     19  C   UNL     1       9.833  16.824  20.652  0.00  0.00    +0.000 C 
ATOM     20  N   UNL     1       9.819  18.157  20.810  0.00  0.00    +0.000 N 
ATOM     21  N   UNL     1       8.952  15.876  20.500  0.00  0.00    +0.000 NA
ATOM     22  H   UNL     1      10.721  18.541  21.103  0.00  0.00    +0.000 HD
ATOM     23  H   UNL     1       9.106  18.508  21.437  0.00  0.00    +0.000 HD
ENDROOT
BRANCH   1  25
ATOM     24  C   UNL     1      12.333  13.332  16.517  0.00  0.00    +0.000 C 
ATOM     25  O   UNL     1      11.042  12.882  16.897  0.00  0.00    +0.000 OA
ENDBRANCH   1  25
TORSDOF 1
ENDMDL
MODEL 6
REMARK VINA RESULT:      -5.5     10.368     11.916
REMARK  Name = 
REMARK  3 active torsions:
REMARK  status: ('A' for Active; 'I' for Inactive)
REMARK    1  A    between atoms: C_1  and  O_2
REMARK    2  A    between atoms: O_2  and  C_3
REMARK    3  A    between atoms: C_19  and  C_20
REMARK                            x       y       z     vdW  Elec       q    Type
REMARK                         _______ _______ _______ _____ _____    ______ ____
ROOT
ATOM      1  C   UNL     1      10.304  11.187  18.500  0.00  0.00    +0.000 C 
ATOM      2  C   UNL     1      10.728  12.254  17.497  0.00  0.00    +0.000 C 
ATOM      3  C   UNL     1       9.916  13.517  17.725  0.00  0.00    +0.000 C 
ATOM      4  C   UNL     1       9.963  14.131  19.176  0.00  0.00    +0.000 C 
ATOM      5  C   UNL     1       9.781  13.014  20.234  0.00  0.00    +0.000 C 
ATOM      6  C   UNL     1      10.582  11.723  19.911  0.00  0.00    +0.000 C 
ATOM      7  C   UNL     1      11.425  14.714  19.234  0.00  0.00    +0.000 C 
ATOM      8  C   UNL     1      11.313  15.828  20.209  0.00  0.00    +0.000 A 
ATOM      9  C   UNL     1      12.332  16.284  21.039  0.00  0.00    +0.000 A 
ATOM     10  C   UNL     1      12.008  17.181  22.050  0.00  0.00    +0.000 A 
ATOM     11  C   UNL     1      10.678  17.581  22.214  0.00  0.00    +0.000 A 
ATOM     12 BR   UNL     1      10.224  18.630  23.731  0.00  0.00    +0.000 Br
ATOM     13  C   UNL     1       9.674  17.153  21.333  0.00  0.00    +0.000 A 
ATOM     14  C   UNL     1      10.001  16.293  20.277  0.00  0.00    +0.000 A 
ATOM     15  C   UNL     1       9.043  15.476  19.388  0.00  0.00    +0.000 C 
ATOM     16  N   UNL     1       8.773  15.859  17.946  0.00  0.00    +0.000 NA
ATOM     17  C   UNL     1       7.520  15.516  17.938  0.00  0.00    +0.000 C 
ATOM     18  C   UNL     1       6.842  14.197  17.589  0.00  0.00    +0.000 C 
ATOM     19  C   UNL     1       6.917  16.034  19.147  0.00  0.00    +0.000 C 
ATOM     20  N   UNL     1       5.782  16.744  19.061  0.00  0.00    +0.000 N 
ATOM     21  N   UNL     1       7.677  15.569  20.100  0.00  0.00    +0.000 NA
ATOM     22  H   UNL     1       5.593  17.094  18.117  0.00  0.00    +0.000 HD
ATOM     23  H   UNL     1       5.709  17.520  19.707  0.00  0.00    +0.000 HD
ENDROOT
BRANCH   1  25
ATOM     24  C   UNL     1       8.592   9.494  18.309  0.00  0.00    +0.000 C 
ATOM     25  O   UNL     1       8.906  10.870  18.448  0.00  0.00    +0.000 OA
ENDBRANCH   1  25
TORSDOF 1
ENDMDL
MODEL 7
REMARK VINA RESULT:      -5.4      4.367      6.241
REMARK  Name = 
REMARK  3 active torsions:
REMARK  status: ('A' for Active; 'I' for Inactive)
REMARK    1  A    between atoms: C_1  and  O_2
REMARK    2  A    between atoms: O_2  and  C_3
REMARK    3  A    between atoms: C_19  and  C_20
REMARK                            x       y       z     vdW  Elec       q    Type
REMARK                         _______ _______ _______ _____ _____    ______ ____
ROOT
ATOM      1  C   UNL     1       1.707  13.491  19.713  0.00  0.00    +0.000 C 
ATOM      2  C   UNL     1       1.359  12.142  20.331  0.00  0.00    +0.000 C 
ATOM      3  C   UNL     1       0.000  12.228  21.004  0.00  0.00    +0.000 C 
ATOM      4  C   UNL     1      -1.202  12.703  20.102  0.00  0.00    +0.000 C 
ATOM      5  C   UNL     1      -0.786  13.939  19.266  0.00  0.00    +0.000 C 
ATOM      6  C   UNL     1       0.640  13.823  18.662  0.00  0.00    +0.000 C 
ATOM      7  C   UNL     1      -1.421  11.453  19.168  0.00  0.00    +0.000 C 
ATOM      8  C   UNL     1      -2.859  11.539  18.809  0.00  0.00    +0.000 A 
ATOM      9  C   UNL     1      -3.428  11.080  17.626  0.00  0.00    +0.000 A 
ATOM     10  C   UNL     1      -4.742  11.434  17.344  0.00  0.00    +0.000 A 
ATOM     11  C   UNL     1      -5.441  12.249  18.239  0.00  0.00    +0.000 A 
ATOM     12 BR   UNL     1      -7.152  12.899  17.732  0.00  0.00    +0.000 Br
ATOM     13  C   UNL     1      -4.870  12.657  19.453  0.00  0.00    +0.000 A 
ATOM     14  C   UNL     1      -3.565  12.259  19.772  0.00  0.00    +0.000 A 
ATOM     15  C   UNL     1      -2.647  12.815  20.878  0.00  0.00    +0.000 C 
ATOM     16  N   UNL     1      -2.348  12.026  22.138  0.00  0.00    +0.000 NA
ATOM     17  C   UNL     1      -2.314  13.045  22.942  0.00  0.00    +0.000 C 
ATOM     18  C   UNL     1      -1.164  13.944  23.377  0.00  0.00    +0.000 C 
ATOM     19  C   UNL     1      -3.457  13.880  22.638  0.00  0.00    +0.000 C 
ATOM     20  N   UNL     1      -4.262  14.276  23.636  0.00  0.00    +0.000 N 
ATOM     21  N   UNL     1      -3.351  14.102  21.358  0.00  0.00    +0.000 NA
ATOM     22  H   UNL     1      -4.154  13.721  24.489  0.00  0.00    +0.000 HD
ATOM     23  H   UNL     1      -5.247  14.315  23.404  0.00  0.00    +0.000 HD
ENDROOT
BRANCH   1  25
ATOM     24  C   UNL     1       2.885  14.708  21.435  0.00  0.00    +0.000 C 
ATOM     25  O   UNL     1       1.709  14.574  20.653  0.00  0.00    +0.000 OA
ENDBRANCH   1  25
TORSDOF 1
ENDMDL
MODEL 8
REMARK VINA RESULT:      -5.3      5.318      7.390
REMARK  Name = 
REMARK  3 active torsions:
REMARK  status: ('A' for Active; 'I' for Inactive)
REMARK    1  A    between atoms: C_1  and  O_2
REMARK    2  A    between atoms: O_2  and  C_3
REMARK    3  A    between atoms: C_19  and  C_20
REMARK                            x       y       z     vdW  Elec       q    Type
REMARK                         _______ _______ _______ _____ _____    ______ ____
ROOT
ATOM      1  C   UNL     1       0.216  13.451  21.619  0.00  0.00    +0.000 C 
ATOM      2  C   UNL     1      -0.433  12.132  22.019  0.00  0.00    +0.000 C 
ATOM      3  C   UNL     1      -1.892  12.368  22.367  0.00  0.00    +0.000 C 
ATOM      4  C   UNL     1      -2.776  13.057  21.259  0.00  0.00    +0.000 C 
ATOM      5  C   UNL     1      -2.024  14.269  20.654  0.00  0.00    +0.000 C 
ATOM      6  C   UNL     1      -0.520  13.988  20.385  0.00  0.00    +0.000 C 
ATOM      7  C   UNL     1      -2.917  11.905  20.193  0.00  0.00    +0.000 C 
ATOM      8  C   UNL     1      -4.205  12.213  19.522  0.00  0.00    +0.000 A 
ATOM      9  C   UNL     1      -4.526  11.906  18.204  0.00  0.00    +0.000 A 
ATOM     10  C   UNL     1      -5.681  12.456  17.661  0.00  0.00    +0.000 A 
ATOM     11  C   UNL     1      -6.468  13.309  18.439  0.00  0.00    +0.000 A 
ATOM     12 BR   UNL     1      -7.915  14.220  17.612  0.00  0.00    +0.000 Br
ATOM     13  C   UNL     1      -6.159  13.563  19.783  0.00  0.00    +0.000 A 
ATOM     14  C   UNL     1      -5.027  12.968  20.357  0.00  0.00    +0.000 A 
ATOM     15  C   UNL     1      -4.340  13.326  21.689  0.00  0.00    +0.000 C 
ATOM     16  N   UNL     1      -4.450  12.432  22.909  0.00  0.00    +0.000 NA
ATOM     17  C   UNL     1      -4.485  13.390  23.787  0.00  0.00    +0.000 C 
ATOM     18  C   UNL     1      -3.371  14.092  24.551  0.00  0.00    +0.000 C 
ATOM     19  C   UNL     1      -5.410  14.392  23.303  0.00  0.00    +0.000 C 
ATOM     20  N   UNL     1      -6.377  14.840  24.120  0.00  0.00    +0.000 N 
ATOM     21  N   UNL     1      -4.975  14.670  22.106  0.00  0.00    +0.000 NA
ATOM     22  H   UNL     1      -6.545  14.227  24.923  0.00  0.00    +0.000 HD
ATOM     23  H   UNL     1      -7.265  15.029  23.673  0.00  0.00    +0.000 HD
ENDROOT
BRANCH   1  25
ATOM     24  C   UNL     1       0.884  15.642  22.387  0.00  0.00    +0.000 C 
ATOM     25  O   UNL     1       0.125  14.467  22.627  0.00  0.00    +0.000 OA
ENDBRANCH   1  25
TORSDOF 1
ENDMDL
MODEL 9
REMARK VINA RESULT:      -5.3      4.168      6.822
REMARK  Name = 
REMARK  3 active torsions:
REMARK  status: ('A' for Active; 'I' for Inactive)
REMARK    1  A    between atoms: C_1  and  O_2
REMARK    2  A    between atoms: O_2  and  C_3
REMARK    3  A    between atoms: C_19  and  C_20
REMARK                            x       y       z     vdW  Elec       q    Type
REMARK                         _______ _______ _______ _____ _____    ______ ____
ROOT
ATOM      1  C   UNL     1       0.340   9.787  19.592  0.00  0.00    +0.000 C 
ATOM      2  C   UNL     1       0.999  10.035  20.944  0.00  0.00    +0.000 C 
ATOM      3  C   UNL     1       0.903  11.509  21.294  0.00  0.00    +0.000 C 
ATOM      4  C   UNL     1      -0.543  12.136  21.308  0.00  0.00    +0.000 C 
ATOM      5  C   UNL     1      -1.329  11.690  20.049  0.00  0.00    +0.000 C 
ATOM      6  C   UNL     1      -1.137  10.189  19.702  0.00  0.00    +0.000 C 
ATOM      7  C   UNL     1      -1.164  11.492  22.604  0.00  0.00    +0.000 C 
ATOM      8  C   UNL     1      -2.175  12.490  23.034  0.00  0.00    +0.000 A 
ATOM      9  C   UNL     1      -3.351  12.208  23.722  0.00  0.00    +0.000 A 
ATOM     10  C   UNL     1      -4.296  13.219  23.855  0.00  0.00    +0.000 A 
ATOM     11  C   UNL     1      -4.050  14.470  23.282  0.00  0.00    +0.000 A 
ATOM     12 BR   UNL     1      -5.442  15.762  23.285  0.00  0.00    +0.000 Br
ATOM     13  C   UNL     1      -2.835  14.752  22.640  0.00  0.00    +0.000 A 
ATOM     14  C   UNL     1      -1.853  13.757  22.550  0.00  0.00    +0.000 A 
ATOM     15  C   UNL     1      -0.598  13.741  21.656  0.00  0.00    +0.000 C 
ATOM     16  N   UNL     1       0.791  13.949  22.228  0.00  0.00    +0.000 NA
ATOM     17  C   UNL     1       1.265  14.615  21.217  0.00  0.00    +0.000 C 
ATOM     18  C   UNL     1       1.984  14.151  19.957  0.00  0.00    +0.000 C 
ATOM     19  C   UNL     1       0.275  15.602  20.841  0.00  0.00    +0.000 C 
ATOM     20  N   UNL     1       0.651  16.882  20.693  0.00  0.00    +0.000 N 
ATOM     21  N   UNL     1      -0.812  14.904  20.664  0.00  0.00    +0.000 NA
ATOM     22  H   UNL     1       1.551  17.094  21.131  0.00  0.00    +0.000 HD
ATOM     23  H   UNL     1      -0.024  17.568  21.006  0.00  0.00    +0.000 HD
ENDROOT
BRANCH   1  25
ATOM     24  C   UNL     1       2.011   9.988  17.860  0.00  0.00    +0.000 C 
ATOM     25  O   UNL     1       0.900  10.566  18.527  0.00  0.00    +0.000 OA
ENDBRANCH   1  25
TORSDOF 1
ENDMDL
