MODEL 1
REMARK VINA RESULT:      -8.2      0.000      0.000
REMARK  Name = 
REMARK  12 active torsions:
REMARK  status: ('A' for Active; 'I' for Inactive)
REMARK    1  A    between atoms: C_1  and  C_2
REMARK    2  A    between atoms: C_2  and  N_3
REMARK    3  A    between atoms: N_3  and  C_4
REMARK    4  A    between atoms: N_3  and  C_6
REMARK    5  A    between atoms: C_4  and  C_5
REMARK    6  A    between atoms: C_6  and  C_7
REMARK    7  A    between atoms: C_7  and  C_8
REMARK    8  A    between atoms: C_8  and  N_9
REMARK    9  A    between atoms: C_10  and  C_29
REMARK   10  A    between atoms: N_11  and  C_12
REMARK   11  A    between atoms: C_24  and  O_25
REMARK   12  A    between atoms: O_25  and  C_26
REMARK                            x       y       z     vdW  Elec       q    Type
REMARK                         _______ _______ _______ _____ _____    ______ ____
ROOT
ATOM      1  N   UNL     1       5.869   6.974  17.742  0.00  0.00    +0.000 NA
ATOM      2  C   UNL     1       5.181   6.273  16.894  0.00  0.00    +0.000 C 
ATOM      3  N   UNL     1       3.800   6.168  17.033  0.00  0.00    +0.000 N 
ATOM      4  H   UNL     1       3.228   6.436  16.237  0.00  0.00    +0.000 HD
ENDROOT
BRANCH   3   5
ATOM      5  C   UNL     1       3.094   6.363  18.270  0.00  0.00    +0.000 A 
ATOM      6  C   UNL     1       2.482   7.618  18.573  0.00  0.00    +0.000 A 
ATOM      7  C   UNL     1       2.577   8.783  17.767  0.00  0.00    +0.000 A 
ATOM      8  C   UNL     1       1.918   9.962  18.090  0.00  0.00    +0.000 A 
ATOM      9  C   UNL     1       1.194  10.019  19.266  0.00  0.00    +0.000 A 
ATOM     10 CL   UNL     1       0.391  11.474  19.699  0.00  0.00    +0.000 Cl
ATOM     11  C   UNL     1       1.130   8.907  20.102  0.00  0.00    +0.000 A 
ATOM     12  C   UNL     1       1.757   7.712  19.774  0.00  0.00    +0.000 A 
ATOM     13  N   UNL     1       1.652   6.695  20.635  0.00  0.00    +0.000 NA
ATOM     14  C   UNL     1       2.255   5.532  20.348  0.00  0.00    +0.000 A 
ATOM     15  C   UNL     1       2.138   4.501  21.265  0.00  0.00    +0.000 A 
ATOM     16  C   UNL     1       2.739   3.272  21.037  0.00  0.00    +0.000 A 
ATOM     17  C   UNL     1       3.466   3.124  19.871  0.00  0.00    +0.000 A 
ATOM     18  N   UNL     1       3.615   4.092  18.942  0.00  0.00    +0.000 NA
ATOM     19  C   UNL     1       3.006   5.288  19.177  0.00  0.00    +0.000 A 
BRANCH  17  20
ATOM     20  O   UNL     1       4.053   1.883  19.692  0.00  0.00    +0.000 OA
ATOM     21  C   UNL     1       3.782   1.320  18.417  0.00  0.00    +0.000 C 
ENDBRANCH  17  20
ENDBRANCH   3   5
BRANCH   2  22
ATOM     22  C   UNL     1       5.795   5.485  15.762  0.00  0.00    +0.000 A 
ATOM     23  C   UNL     1       7.003   5.902  15.180  0.00  0.00    +0.000 A 
ATOM     24  C   UNL     1       7.485   5.289  14.025  0.00  0.00    +0.000 A 
ATOM     25  C   UNL     1       6.823   4.182  13.508  0.00  0.00    +0.000 A 
ATOM     26  C   UNL     1       5.693   3.680  14.156  0.00  0.00    +0.000 A 
ATOM     27  C   UNL     1       5.170   4.335  15.276  0.00  0.00    +0.000 A 
ENDBRANCH   2  22
BRANCH   1  28
ATOM     28  C   UNL     1       7.320   7.115  17.712  0.00  0.00    +0.000 C 
BRANCH  28  29
ATOM     29  C   UNL     1       7.703   8.581  17.587  0.00  0.00    +0.000 C 
BRANCH  29  30
ATOM     30  C   UNL     1       8.755   8.979  18.638  0.00  0.00    +0.000 C 
BRANCH  30  31
ATOM     31  N   UNL     1       8.774  10.413  19.003  0.00  0.00    +0.000 NA
BRANCH  31  33
ATOM     32  C   UNL     1      10.526  11.617  20.378  0.00  0.00    +0.000 C 
ATOM     33  C   UNL     1       9.356  10.637  20.337  0.00  0.00    +0.000 C 
ENDBRANCH  31  33
BRANCH  31  34
ATOM     34  C   UNL     1       9.360  11.238  17.935  0.00  0.00    +0.000 C 
ATOM     35  C   UNL     1       8.553  12.465  17.525  0.00  0.00    +0.000 C 
ENDBRANCH  31  34
ENDBRANCH  30  31
ENDBRANCH  29  30
ENDBRANCH  28  29
ENDBRANCH   1  28
TORSDOF 9
ENDMDL
MODEL 2
REMARK VINA RESULT:      -8.0      0.366      1.051
REMARK  Name = 
REMARK  12 active torsions:
REMARK  status: ('A' for Active; 'I' for Inactive)
REMARK    1  A    between atoms: C_1  and  C_2
REMARK    2  A    between atoms: C_2  and  N_3
REMARK    3  A    between atoms: N_3  and  C_4
REMARK    4  A    between atoms: N_3  and  C_6
REMARK    5  A    between atoms: C_4  and  C_5
REMARK    6  A    between atoms: C_6  and  C_7
REMARK    7  A    between atoms: C_7  and  C_8
REMARK    8  A    between atoms: C_8  and  N_9
REMARK    9  A    between atoms: C_10  and  C_29
REMARK   10  A    between atoms: N_11  and  C_12
REMARK   11  A    between atoms: C_24  and  O_25
REMARK   12  A    between atoms: O_25  and  C_26
REMARK                            x       y       z     vdW  Elec       q    Type
REMARK                         _______ _______ _______ _____ _____    ______ ____
ROOT
ATOM      1  N   UNL     1       5.847   6.929  17.731  0.00  0.00    +0.000 NA
ATOM      2  C   UNL     1       5.160   6.205  16.901  0.00  0.00    +0.000 C 
ATOM      3  N   UNL     1       3.785   6.064  17.071  0.00  0.00    +0.000 N 
ATOM      4  H   UNL     1       3.190   6.313  16.286  0.00  0.00    +0.000 HD
ENDROOT
BRANCH   3   5
ATOM      5  C   UNL     1       3.102   6.247  18.322  0.00  0.00    +0.000 A 
ATOM      6  C   UNL     1       2.482   7.494  18.642  0.00  0.00    +0.000 A 
ATOM      7  C   UNL     1       2.549   8.664  17.838  0.00  0.00    +0.000 A 
ATOM      8  C   UNL     1       1.884   9.835  18.179  0.00  0.00    +0.000 A 
ATOM      9  C   UNL     1       1.182   9.879  19.368  0.00  0.00    +0.000 A 
ATOM     10 CL   UNL     1       0.372  11.324  19.823  0.00  0.00    +0.000 Cl
ATOM     11  C   UNL     1       1.146   8.764  20.202  0.00  0.00    +0.000 A 
ATOM     12  C   UNL     1       1.780   7.577  19.857  0.00  0.00    +0.000 A 
ATOM     13  N   UNL     1       1.702   6.555  20.716  0.00  0.00    +0.000 NA
ATOM     14  C   UNL     1       2.313   5.400  20.413  0.00  0.00    +0.000 A 
ATOM     15  C   UNL     1       2.224   4.365  21.328  0.00  0.00    +0.000 A 
ATOM     16  C   UNL     1       2.834   3.143  21.084  0.00  0.00    +0.000 A 
ATOM     17  C   UNL     1       3.540   3.006  19.903  0.00  0.00    +0.000 A 
ATOM     18  N   UNL     1       3.660   3.980  18.975  0.00  0.00    +0.000 NA
ATOM     19  C   UNL     1       3.043   5.168  19.226  0.00  0.00    +0.000 A 
BRANCH  17  20
ATOM     20  O   UNL     1       4.136   1.773  19.708  0.00  0.00    +0.000 OA
ATOM     21  C   UNL     1       3.851   1.214  18.434  0.00  0.00    +0.000 C 
ENDBRANCH  17  20
ENDBRANCH   3   5
BRANCH   2  22
ATOM     22  C   UNL     1       5.770   5.428  15.760  0.00  0.00    +0.000 A 
ATOM     23  C   UNL     1       7.056   5.743  15.294  0.00  0.00    +0.000 A 
ATOM     24  C   UNL     1       7.556   5.155  14.133  0.00  0.00    +0.000 A 
ATOM     25  C   UNL     1       6.820   4.165  13.493  0.00  0.00    +0.000 A 
ATOM     26  C   UNL     1       5.597   3.753  14.024  0.00  0.00    +0.000 A 
ATOM     27  C   UNL     1       5.063   4.389  15.150  0.00  0.00    +0.000 A 
ENDBRANCH   2  22
BRANCH   1  28
ATOM     28  C   UNL     1       7.293   7.108  17.668  0.00  0.00    +0.000 C 
BRANCH  28  29
ATOM     29  C   UNL     1       7.634   8.584  17.544  0.00  0.00    +0.000 C 
BRANCH  29  30
ATOM     30  C   UNL     1       8.655   9.017  18.613  0.00  0.00    +0.000 C 
BRANCH  30  31
ATOM     31  N   UNL     1       9.261  10.351  18.405  0.00  0.00    +0.000 NA
BRANCH  31  33
ATOM     32  C   UNL     1       8.856  12.685  17.514  0.00  0.00    +0.000 C 
ATOM     33  C   UNL     1       8.274  11.343  17.948  0.00  0.00    +0.000 C 
ENDBRANCH  31  33
BRANCH  31  34
ATOM     34  C   UNL     1      10.057  10.773  19.569  0.00  0.00    +0.000 C 
ATOM     35  C   UNL     1       9.270  11.067  20.841  0.00  0.00    +0.000 C 
ENDBRANCH  31  34
ENDBRANCH  30  31
ENDBRANCH  29  30
ENDBRANCH  28  29
ENDBRANCH   1  28
TORSDOF 9
ENDMDL
MODEL 3
REMARK VINA RESULT:      -7.5      5.674      9.983
REMARK  Name = 
REMARK  12 active torsions:
REMARK  status: ('A' for Active; 'I' for Inactive)
REMARK    1  A    between atoms: C_1  and  C_2
REMARK    2  A    between atoms: C_2  and  N_3
REMARK    3  A    between atoms: N_3  and  C_4
REMARK    4  A    between atoms: N_3  and  C_6
REMARK    5  A    between atoms: C_4  and  C_5
REMARK    6  A    between atoms: C_6  and  C_7
REMARK    7  A    between atoms: C_7  and  C_8
REMARK    8  A    between atoms: C_8  and  N_9
REMARK    9  A    between atoms: C_10  and  C_29
REMARK   10  A    between atoms: N_11  and  C_12
REMARK   11  A    between atoms: C_24  and  O_25
REMARK   12  A    between atoms: O_25  and  C_26
REMARK                            x       y       z     vdW  Elec       q    Type
REMARK                         _______ _______ _______ _____ _____    ______ ____
ROOT
ATOM      1  N   UNL     1      -0.821  10.769  18.687  0.00  0.00    +0.000 NA
ATOM      2  C   UNL     1       0.228  10.466  19.389  0.00  0.00    +0.000 C 
ATOM      3  N   UNL     1       0.637  11.298  20.428  0.00  0.00    +0.000 N 
ATOM      4  H   UNL     1       0.739  10.880  21.348  0.00  0.00    +0.000 HD
ENDROOT
BRANCH   3   5
ATOM      5  C   UNL     1       0.309  12.694  20.523  0.00  0.00    +0.000 A 
ATOM      6  C   UNL     1       1.029  13.668  19.766  0.00  0.00    +0.000 A 
ATOM      7  C   UNL     1       2.155  13.389  18.946  0.00  0.00    +0.000 A 
ATOM      8  C   UNL     1       2.785  14.372  18.194  0.00  0.00    +0.000 A 
ATOM      9  C   UNL     1       2.337  15.675  18.294  0.00  0.00    +0.000 A 
ATOM     10 CL   UNL     1       3.115  16.913  17.393  0.00  0.00    +0.000 Cl
ATOM     11  C   UNL     1       1.270  15.986  19.133  0.00  0.00    +0.000 A 
ATOM     12  C   UNL     1       0.610  15.006  19.865  0.00  0.00    +0.000 A 
ATOM     13  N   UNL     1      -0.401  15.389  20.652  0.00  0.00    +0.000 NA
ATOM     14  C   UNL     1      -1.049  14.466  21.377  0.00  0.00    +0.000 A 
ATOM     15  C   UNL     1      -2.083  14.896  22.192  0.00  0.00    +0.000 A 
ATOM     16  C   UNL     1      -2.795  13.997  22.973  0.00  0.00    +0.000 A 
ATOM     17  C   UNL     1      -2.424  12.667  22.915  0.00  0.00    +0.000 A 
ATOM     18  N   UNL     1      -1.426  12.191  22.141  0.00  0.00    +0.000 NA
ATOM     19  C   UNL     1      -0.747  13.086  21.370  0.00  0.00    +0.000 A 
BRANCH  17  20
ATOM     20  O   UNL     1      -3.159  11.811  23.717  0.00  0.00    +0.000 OA
ATOM     21  C   UNL     1      -4.168  12.478  24.460  0.00  0.00    +0.000 C 
ENDBRANCH  17  20
ENDBRANCH   3   5
BRANCH   2  22
ATOM     22  C   UNL     1       1.104   9.267  19.117  0.00  0.00    +0.000 A 
ATOM     23  C   UNL     1       1.237   8.252  20.078  0.00  0.00    +0.000 A 
ATOM     24  C   UNL     1       2.176   7.234  19.913  0.00  0.00    +0.000 A 
ATOM     25  C   UNL     1       2.907   7.160  18.732  0.00  0.00    +0.000 A 
ATOM     26  C   UNL     1       2.685   8.091  17.716  0.00  0.00    +0.000 A 
ATOM     27  C   UNL     1       1.794   9.151  17.908  0.00  0.00    +0.000 A 
ENDBRANCH   2  22
BRANCH   1  28
ATOM     28  C   UNL     1      -1.310   9.990  17.555  0.00  0.00    +0.000 C 
BRANCH  28  29
ATOM     29  C   UNL     1      -2.509  10.677  16.923  0.00  0.00    +0.000 C 
BRANCH  29  30
ATOM     30  C   UNL     1      -3.760  10.552  17.811  0.00  0.00    +0.000 C 
BRANCH  30  31
ATOM     31  N   UNL     1      -4.417  11.831  18.163  0.00  0.00    +0.000 NA
BRANCH  31  33
ATOM     32  C   UNL     1      -6.394  12.931  17.026  0.00  0.00    +0.000 C 
ATOM     33  C   UNL     1      -5.866  11.799  17.904  0.00  0.00    +0.000 C 
ENDBRANCH  31  33
BRANCH  31  34
ATOM     34  C   UNL     1      -4.049  12.277  19.516  0.00  0.00    +0.000 C 
ATOM     35  C   UNL     1      -5.209  12.509  20.477  0.00  0.00    +0.000 C 
ENDBRANCH  31  34
ENDBRANCH  30  31
ENDBRANCH  29  30
ENDBRANCH  28  29
ENDBRANCH   1  28
TORSDOF 9
ENDMDL
MODEL 4
REMARK VINA RESULT:      -7.3      5.701      9.980
REMARK  Name = 
REMARK  12 active torsions:
REMARK  status: ('A' for Active; 'I' for Inactive)
REMARK    1  A    between atoms: C_1  and  C_2
REMARK    2  A    between atoms: C_2  and  N_3
REMARK    3  A    between atoms: N_3  and  C_4
REMARK    4  A    between atoms: N_3  and  C_6
REMARK    5  A    between atoms: C_4  and  C_5
REMARK    6  A    between atoms: C_6  and  C_7
REMARK    7  A    between atoms: C_7  and  C_8
REMARK    8  A    between atoms: C_8  and  N_9
REMARK    9  A    between atoms: C_10  and  C_29
REMARK   10  A    between atoms: N_11  and  C_12
REMARK   11  A    between atoms: C_24  and  O_25
REMARK   12  A    between atoms: O_25  and  C_26
REMARK                            x       y       z     vdW  Elec       q    Type
REMARK                         _______ _______ _______ _____ _____    ______ ____
ROOT
ATOM      1  N   UNL     1      -0.820  10.779  18.821  0.00  0.00    +0.000 NA
ATOM      2  C   UNL     1       0.284  10.491  19.441  0.00  0.00    +0.000 C 
ATOM      3  N   UNL     1       0.774  11.344  20.426  0.00  0.00    +0.000 N 
ATOM      4  H   UNL     1       0.952  10.944  21.343  0.00  0.00    +0.000 HD
ENDROOT
BRANCH   3   5
ATOM      5  C   UNL     1       0.451  12.741  20.520  0.00  0.00    +0.000 A 
ATOM      6  C   UNL     1       1.163  13.710  19.748  0.00  0.00    +0.000 A 
ATOM      7  C   UNL     1       2.275  13.425  18.912  0.00  0.00    +0.000 A 
ATOM      8  C   UNL     1       2.896  14.403  18.147  0.00  0.00    +0.000 A 
ATOM      9  C   UNL     1       2.453  15.708  18.248  0.00  0.00    +0.000 A 
ATOM     10 CL   UNL     1       3.221  16.939  17.331  0.00  0.00    +0.000 Cl
ATOM     11  C   UNL     1       1.400  16.025  19.102  0.00  0.00    +0.000 A 
ATOM     12  C   UNL     1       0.749  15.050  19.848  0.00  0.00    +0.000 A 
ATOM     13  N   UNL     1      -0.249  15.439  20.649  0.00  0.00    +0.000 NA
ATOM     14  C   UNL     1      -0.888  14.520  21.388  0.00  0.00    +0.000 A 
ATOM     15  C   UNL     1      -1.909  14.956  22.216  0.00  0.00    +0.000 A 
ATOM     16  C   UNL     1      -2.612  14.063  23.012  0.00  0.00    +0.000 A 
ATOM     17  C   UNL     1      -2.245  12.732  22.954  0.00  0.00    +0.000 A 
ATOM     18  N   UNL     1      -1.260  12.250  22.166  0.00  0.00    +0.000 NA
ATOM     19  C   UNL     1      -0.591  13.140  21.382  0.00  0.00    +0.000 A 
BRANCH  17  20
ATOM     20  O   UNL     1      -2.970  11.882  23.771  0.00  0.00    +0.000 OA
ATOM     21  C   UNL     1      -4.081  12.517  24.385  0.00  0.00    +0.000 C 
ENDBRANCH  17  20
ENDBRANCH   3   5
BRANCH   2  22
ATOM     22  C   UNL     1       1.137   9.288  19.121  0.00  0.00    +0.000 A 
ATOM     23  C   UNL     1       1.290   8.256  20.061  0.00  0.00    +0.000 A 
ATOM     24  C   UNL     1       2.212   7.231  19.849  0.00  0.00    +0.000 A 
ATOM     25  C   UNL     1       2.904   7.169  18.645  0.00  0.00    +0.000 A 
ATOM     26  C   UNL     1       2.661   8.119  17.652  0.00  0.00    +0.000 A 
ATOM     27  C   UNL     1       1.788   9.186  17.889  0.00  0.00    +0.000 A 
ENDBRANCH   2  22
BRANCH   1  28
ATOM     28  C   UNL     1      -1.397   9.978  17.748  0.00  0.00    +0.000 C 
BRANCH  28  29
ATOM     29  C   UNL     1      -2.833  10.403  17.490  0.00  0.00    +0.000 C 
BRANCH  29  30
ATOM     30  C   UNL     1      -3.260  11.543  18.431  0.00  0.00    +0.000 C 
BRANCH  30  31
ATOM     31  N   UNL     1      -4.721  11.742  18.563  0.00  0.00    +0.000 NA
BRANCH  31  33
ATOM     32  C   UNL     1      -5.401  12.395  20.912  0.00  0.00    +0.000 C 
ATOM     33  C   UNL     1      -5.049  12.835  19.493  0.00  0.00    +0.000 C 
ENDBRANCH  31  33
BRANCH  31  34
ATOM     34  C   UNL     1      -5.377  11.842  17.249  0.00  0.00    +0.000 C 
ATOM     35  C   UNL     1      -6.610  12.736  17.188  0.00  0.00    +0.000 C 
ENDBRANCH  31  34
ENDBRANCH  30  31
ENDBRANCH  29  30
ENDBRANCH  28  29
ENDBRANCH   1  28
TORSDOF 9
ENDMDL
MODEL 5
REMARK VINA RESULT:      -7.3      5.426      9.811
REMARK  Name = 
REMARK  12 active torsions:
REMARK  status: ('A' for Active; 'I' for Inactive)
REMARK    1  A    between atoms: C_1  and  C_2
REMARK    2  A    between atoms: C_2  and  N_3
REMARK    3  A    between atoms: N_3  and  C_4
REMARK    4  A    between atoms: N_3  and  C_6
REMARK    5  A    between atoms: C_4  and  C_5
REMARK    6  A    between atoms: C_6  and  C_7
REMARK    7  A    between atoms: C_7  and  C_8
REMARK    8  A    between atoms: C_8  and  N_9
REMARK    9  A    between atoms: C_10  and  C_29
REMARK   10  A    between atoms: N_11  and  C_12
REMARK   11  A    between atoms: C_24  and  O_25
REMARK   12  A    between atoms: O_25  and  C_26
REMARK                            x       y       z     vdW  Elec       q    Type
REMARK                         _______ _______ _______ _____ _____    ______ ____
ROOT
ATOM      1  N   UNL     1      -0.649  10.661  19.006  0.00  0.00    +0.000 NA
ATOM      2  C   UNL     1       0.440  10.287  19.606  0.00  0.00    +0.000 C 
ATOM      3  N   UNL     1       0.912  11.000  20.704  0.00  0.00    +0.000 N 
ATOM      4  H   UNL     1       1.070  10.483  21.564  0.00  0.00    +0.000 HD
ENDROOT
BRANCH   3   5
ATOM      5  C   UNL     1       0.593  12.375  20.973  0.00  0.00    +0.000 A 
ATOM      6  C   UNL     1      -0.482  12.719  21.851  0.00  0.00    +0.000 A 
ATOM      7  C   UNL     1      -1.369  11.786  22.452  0.00  0.00    +0.000 A 
ATOM      8  C   UNL     1      -2.365  12.177  23.337  0.00  0.00    +0.000 A 
ATOM      9  C   UNL     1      -2.536  13.524  23.593  0.00  0.00    +0.000 A 
ATOM     10 CL   UNL     1      -3.778  14.034  24.664  0.00  0.00    +0.000 Cl
ATOM     11  C   UNL     1      -1.715  14.464  22.974  0.00  0.00    +0.000 A 
ATOM     12  C   UNL     1      -0.694  14.083  22.113  0.00  0.00    +0.000 A 
ATOM     13  N   UNL     1       0.044  15.049  21.555  0.00  0.00    +0.000 NA
ATOM     14  C   UNL     1       1.031  14.710  20.712  0.00  0.00    +0.000 A 
ATOM     15  C   UNL     1       1.769  15.733  20.142  0.00  0.00    +0.000 A 
ATOM     16  C   UNL     1       2.803  15.459  19.257  0.00  0.00    +0.000 A 
ATOM     17  C   UNL     1       3.055  14.132  18.962  0.00  0.00    +0.000 A 
ATOM     18  N   UNL     1       2.369  13.094  19.488  0.00  0.00    +0.000 NA
ATOM     19  C   UNL     1       1.367  13.384  20.364  0.00  0.00    +0.000 A 
BRANCH  17  20
ATOM     20  O   UNL     1       4.089  13.909  18.071  0.00  0.00    +0.000 OA
ATOM     21  C   UNL     1       4.952  15.028  17.931  0.00  0.00    +0.000 C 
ENDBRANCH  17  20
ENDBRANCH   3   5
BRANCH   2  22
ATOM     22  C   UNL     1       1.295   9.130  19.149  0.00  0.00    +0.000 A 
ATOM     23  C   UNL     1       1.481   8.013  19.979  0.00  0.00    +0.000 A 
ATOM     24  C   UNL     1       2.406   7.024  19.645  0.00  0.00    +0.000 A 
ATOM     25  C   UNL     1       3.068   7.088  18.425  0.00  0.00    +0.000 A 
ATOM     26  C   UNL     1       2.792   8.128  17.535  0.00  0.00    +0.000 A 
ATOM     27  C   UNL     1       1.915   9.156  17.898  0.00  0.00    +0.000 A 
ENDBRANCH   2  22
BRANCH   1  28
ATOM     28  C   UNL     1      -1.207  10.010  17.826  0.00  0.00    +0.000 C 
BRANCH  28  29
ATOM     29  C   UNL     1      -2.287  10.882  17.207  0.00  0.00    +0.000 C 
BRANCH  29  30
ATOM     30  C   UNL     1      -3.620  10.751  17.967  0.00  0.00    +0.000 C 
BRANCH  30  31
ATOM     31  N   UNL     1      -4.218  12.027  18.419  0.00  0.00    +0.000 NA
BRANCH  31  33
ATOM     32  C   UNL     1      -6.378  10.710  18.508  0.00  0.00    +0.000 C 
ATOM     33  C   UNL     1      -5.681  12.043  18.248  0.00  0.00    +0.000 C 
ENDBRANCH  31  33
BRANCH  31  34
ATOM     34  C   UNL     1      -3.756  12.397  19.766  0.00  0.00    +0.000 C 
ATOM     35  C   UNL     1      -4.659  13.353  20.538  0.00  0.00    +0.000 C 
ENDBRANCH  31  34
ENDBRANCH  30  31
ENDBRANCH  29  30
ENDBRANCH  28  29
ENDBRANCH   1  28
TORSDOF 9
ENDMDL
MODEL 6
REMARK VINA RESULT:      -7.3      5.490      9.850
REMARK  Name = 
REMARK  12 active torsions:
REMARK  status: ('A' for Active; 'I' for Inactive)
REMARK    1  A    between atoms: C_1  and  C_2
REMARK    2  A    between atoms: C_2  and  N_3
REMARK    3  A    between atoms: N_3  and  C_4
REMARK    4  A    between atoms: N_3  and  C_6
REMARK    5  A    between atoms: C_4  and  C_5
REMARK    6  A    between atoms: C_6  and  C_7
REMARK    7  A    between atoms: C_7  and  C_8
REMARK    8  A    between atoms: C_8  and  N_9
REMARK    9  A    between atoms: C_10  and  C_29
REMARK   10  A    between atoms: N_11  and  C_12
REMARK   11  A    between atoms: C_24  and  O_25
REMARK   12  A    between atoms: O_25  and  C_26
REMARK                            x       y       z     vdW  Elec       q    Type
REMARK                         _______ _______ _______ _____ _____    ______ ____
ROOT
ATOM      1  N   UNL     1      -0.653  10.661  19.004  0.00  0.00    +0.000 NA
ATOM      2  C   UNL     1       0.434  10.290  19.608  0.00  0.00    +0.000 C 
ATOM      3  N   UNL     1       0.896  11.001  20.712  0.00  0.00    +0.000 N 
ATOM      4  H   UNL     1       1.051  10.480  21.571  0.00  0.00    +0.000 HD
ENDROOT
BRANCH   3   5
ATOM      5  C   UNL     1       0.568  12.373  20.986  0.00  0.00    +0.000 A 
ATOM      6  C   UNL     1      -0.526  12.707  21.843  0.00  0.00    +0.000 A 
ATOM      7  C   UNL     1      -1.424  11.768  22.417  0.00  0.00    +0.000 A 
ATOM      8  C   UNL     1      -2.440  12.149  23.283  0.00  0.00    +0.000 A 
ATOM      9  C   UNL     1      -2.619  13.494  23.547  0.00  0.00    +0.000 A 
ATOM     10 CL   UNL     1      -3.885  13.992  24.595  0.00  0.00    +0.000 Cl
ATOM     11  C   UNL     1      -1.787  14.440  22.954  0.00  0.00    +0.000 A 
ATOM     12  C   UNL     1      -0.746  14.069  22.112  0.00  0.00    +0.000 A 
ATOM     13  N   UNL     1       0.002  15.041  21.578  0.00  0.00    +0.000 NA
ATOM     14  C   UNL     1       1.007  14.711  20.754  0.00  0.00    +0.000 A 
ATOM     15  C   UNL     1       1.756  15.740  20.208  0.00  0.00    +0.000 A 
ATOM     16  C   UNL     1       2.809  15.475  19.344  0.00  0.00    +0.000 A 
ATOM     17  C   UNL     1       3.070  14.151  19.044  0.00  0.00    +0.000 A 
ATOM     18  N   UNL     1       2.374  13.108  19.546  0.00  0.00    +0.000 NA
ATOM     19  C   UNL     1       1.353  13.388  20.402  0.00  0.00    +0.000 A 
BRANCH  17  20
ATOM     20  O   UNL     1       4.124  13.937  18.173  0.00  0.00    +0.000 OA
ATOM     21  C   UNL     1       4.878  15.113  17.917  0.00  0.00    +0.000 C 
ENDBRANCH  17  20
ENDBRANCH   3   5
BRANCH   2  22
ATOM     22  C   UNL     1       1.298   9.140  19.151  0.00  0.00    +0.000 A 
ATOM     23  C   UNL     1       1.478   8.016  19.974  0.00  0.00    +0.000 A 
ATOM     24  C   UNL     1       2.410   7.034  19.642  0.00  0.00    +0.000 A 
ATOM     25  C   UNL     1       3.085   7.109  18.430  0.00  0.00    +0.000 A 
ATOM     26  C   UNL     1       2.815   8.156  17.546  0.00  0.00    +0.000 A 
ATOM     27  C   UNL     1       1.931   9.178  17.907  0.00  0.00    +0.000 A 
ENDBRANCH   2  22
BRANCH   1  28
ATOM     28  C   UNL     1      -1.201  10.013  17.817  0.00  0.00    +0.000 C 
BRANCH  28  29
ATOM     29  C   UNL     1      -2.706  10.211  17.758  0.00  0.00    +0.000 C 
BRANCH  29  30
ATOM     30  C   UNL     1      -3.122  11.552  18.389  0.00  0.00    +0.000 C 
BRANCH  30  31
ATOM     31  N   UNL     1      -4.552  11.662  18.757  0.00  0.00    +0.000 NA
BRANCH  31  33
ATOM     32  C   UNL     1      -5.432  12.437  21.001  0.00  0.00    +0.000 C 
ATOM     33  C   UNL     1      -4.806  12.800  19.657  0.00  0.00    +0.000 C 
ENDBRANCH  31  33
BRANCH  31  34
ATOM     34  C   UNL     1      -5.424  11.615  17.572  0.00  0.00    +0.000 C 
ATOM     35  C   UNL     1      -6.300  12.841  17.343  0.00  0.00    +0.000 C 
ENDBRANCH  31  34
ENDBRANCH  30  31
ENDBRANCH  29  30
ENDBRANCH  28  29
ENDBRANCH   1  28
TORSDOF 9
ENDMDL
MODEL 7
REMARK VINA RESULT:      -7.3      5.370      9.652
REMARK  Name = 
REMARK  12 active torsions:
REMARK  status: ('A' for Active; 'I' for Inactive)
REMARK    1  A    between atoms: C_1  and  C_2
REMARK    2  A    between atoms: C_2  and  N_3
REMARK    3  A    between atoms: N_3  and  C_4
REMARK    4  A    between atoms: N_3  and  C_6
REMARK    5  A    between atoms: C_4  and  C_5
REMARK    6  A    between atoms: C_6  and  C_7
REMARK    7  A    between atoms: C_7  and  C_8
REMARK    8  A    between atoms: C_8  and  N_9
REMARK    9  A    between atoms: C_10  and  C_29
REMARK   10  A    between atoms: N_11  and  C_12
REMARK   11  A    between atoms: C_24  and  O_25
REMARK   12  A    between atoms: O_25  and  C_26
REMARK                            x       y       z     vdW  Elec       q    Type
REMARK                         _______ _______ _______ _____ _____    ______ ____
ROOT
ATOM      1  N   UNL     1      -0.501  10.497  19.024  0.00  0.00    +0.000 NA
ATOM      2  C   UNL     1       0.580  10.169  19.664  0.00  0.00    +0.000 C 
ATOM      3  N   UNL     1       0.990  10.913  20.767  0.00  0.00    +0.000 N 
ATOM      4  H   UNL     1       1.137  10.413  21.640  0.00  0.00    +0.000 HD
ENDROOT
BRANCH   3   5
ATOM      5  C   UNL     1       0.614  12.279  21.007  0.00  0.00    +0.000 A 
ATOM      6  C   UNL     1      -0.480  12.596  21.870  0.00  0.00    +0.000 A 
ATOM      7  C   UNL     1      -1.334  11.641  22.483  0.00  0.00    +0.000 A 
ATOM      8  C   UNL     1      -2.353  12.009  23.352  0.00  0.00    +0.000 A 
ATOM      9  C   UNL     1      -2.579  13.353  23.581  0.00  0.00    +0.000 A 
ATOM     10 CL   UNL     1      -3.849  13.833  24.632  0.00  0.00    +0.000 Cl
ATOM     11  C   UNL     1      -1.791  14.312  22.949  0.00  0.00    +0.000 A 
ATOM     12  C   UNL     1      -0.748  13.956  22.103  0.00  0.00    +0.000 A 
ATOM     13  N   UNL     1      -0.045  14.939  21.531  0.00  0.00    +0.000 NA
ATOM     14  C   UNL     1       0.962  14.624  20.703  0.00  0.00    +0.000 A 
ATOM     15  C   UNL     1       1.663  15.664  20.117  0.00  0.00    +0.000 A 
ATOM     16  C   UNL     1       2.714  15.414  19.246  0.00  0.00    +0.000 A 
ATOM     17  C   UNL     1       3.021  14.093  18.979  0.00  0.00    +0.000 A 
ATOM     18  N   UNL     1       2.372  13.039  19.521  0.00  0.00    +0.000 NA
ATOM     19  C   UNL     1       1.352  13.305  20.384  0.00  0.00    +0.000 A 
BRANCH  17  20
ATOM     20  O   UNL     1       4.070  13.894  18.100  0.00  0.00    +0.000 OA
ATOM     21  C   UNL     1       4.915  15.029  17.979  0.00  0.00    +0.000 C 
ENDBRANCH  17  20
ENDBRANCH   3   5
BRANCH   2  22
ATOM     22  C   UNL     1       1.491   9.038  19.252  0.00  0.00    +0.000 A 
ATOM     23  C   UNL     1       2.156   9.076  18.016  0.00  0.00    +0.000 A 
ATOM     24  C   UNL     1       2.854   7.964  17.549  0.00  0.00    +0.000 A 
ATOM     25  C   UNL     1       2.989   6.846  18.365  0.00  0.00    +0.000 A 
ATOM     26  C   UNL     1       2.441   6.850  19.649  0.00  0.00    +0.000 A 
ATOM     27  C   UNL     1       1.682   7.939  20.092  0.00  0.00    +0.000 A 
ENDBRANCH   2  22
BRANCH   1  28
ATOM     28  C   UNL     1      -0.996   9.812  17.836  0.00  0.00    +0.000 C 
BRANCH  28  29
ATOM     29  C   UNL     1      -2.509   9.688  17.893  0.00  0.00    +0.000 C 
BRANCH  29  30
ATOM     30  C   UNL     1      -3.193  11.052  17.695  0.00  0.00    +0.000 C 
BRANCH  30  31
ATOM     31  N   UNL     1      -4.272  11.079  16.681  0.00  0.00    +0.000 NA
BRANCH  31  33
ATOM     32  C   UNL     1      -5.624  12.113  18.555  0.00  0.00    +0.000 C 
ATOM     33  C   UNL     1      -5.361  11.996  17.056  0.00  0.00    +0.000 C 
ENDBRANCH  31  33
BRANCH  31  34
ATOM     34  C   UNL     1      -3.738  11.285  15.325  0.00  0.00    +0.000 C 
ATOM     35  C   UNL     1      -3.413  10.020  14.540  0.00  0.00    +0.000 C 
ENDBRANCH  31  34
ENDBRANCH  30  31
ENDBRANCH  29  30
ENDBRANCH  28  29
ENDBRANCH   1  28
TORSDOF 9
ENDMDL
MODEL 8
REMARK VINA RESULT:      -7.2      6.129     10.519
REMARK  Name = 
REMARK  12 active torsions:
REMARK  status: ('A' for Active; 'I' for Inactive)
REMARK    1  A    between atoms: C_1  and  C_2
REMARK    2  A    between atoms: C_2  and  N_3
REMARK    3  A    between atoms: N_3  and  C_4
REMARK    4  A    between atoms: N_3  and  C_6
REMARK    5  A    between atoms: C_4  and  C_5
REMARK    6  A    between atoms: C_6  and  C_7
REMARK    7  A    between atoms: C_7  and  C_8
REMARK    8  A    between atoms: C_8  and  N_9
REMARK    9  A    between atoms: C_10  and  C_29
REMARK   10  A    between atoms: N_11  and  C_12
REMARK   11  A    between atoms: C_24  and  O_25
REMARK   12  A    between atoms: O_25  and  C_26
REMARK                            x       y       z     vdW  Elec       q    Type
REMARK                         _______ _______ _______ _____ _____    ______ ____
ROOT
ATOM      1  N   UNL     1      -1.584  10.924  19.103  0.00  0.00    +0.000 NA
ATOM      2  C   UNL     1      -0.447  10.750  19.704  0.00  0.00    +0.000 C 
ATOM      3  N   UNL     1      -0.031  11.647  20.684  0.00  0.00    +0.000 N 
ATOM      4  H   UNL     1       0.203  11.266  21.597  0.00  0.00    +0.000 HD
ENDROOT
BRANCH   3   5
ATOM      5  C   UNL     1      -0.493  13.004  20.788  0.00  0.00    +0.000 A 
ATOM      6  C   UNL     1       0.121  14.046  20.027  0.00  0.00    +0.000 A 
ATOM      7  C   UNL     1       1.260  13.881  19.195  0.00  0.00    +0.000 A 
ATOM      8  C   UNL     1       1.782  14.923  18.440  0.00  0.00    +0.000 A 
ATOM      9  C   UNL     1       1.209  16.176  18.550  0.00  0.00    +0.000 A 
ATOM     10 CL   UNL     1       1.853  17.486  17.646  0.00  0.00    +0.000 Cl
ATOM     11  C   UNL     1       0.125  16.378  19.401  0.00  0.00    +0.000 A 
ATOM     12  C   UNL     1      -0.427  15.336  20.136  0.00  0.00    +0.000 A 
ATOM     13  N   UNL     1      -1.462  15.616  20.934  0.00  0.00    +0.000 NA
ATOM     14  C   UNL     1      -2.009  14.631  21.662  0.00  0.00    +0.000 A 
ATOM     15  C   UNL     1      -3.072  14.955  22.488  0.00  0.00    +0.000 A 
ATOM     16  C   UNL     1      -3.685  13.989  23.274  0.00  0.00    +0.000 A 
ATOM     17  C   UNL     1      -3.186  12.702  23.207  0.00  0.00    +0.000 A 
ATOM     18  N   UNL     1      -2.153  12.328  22.421  0.00  0.00    +0.000 NA
ATOM     19  C   UNL     1      -1.574  13.288  21.647  0.00  0.00    +0.000 A 
BRANCH  17  20
ATOM     20  O   UNL     1      -3.824  11.776  24.013  0.00  0.00    +0.000 OA
ATOM     21  C   UNL     1      -4.823  12.356  24.840  0.00  0.00    +0.000 C 
ENDBRANCH  17  20
ENDBRANCH   3   5
BRANCH   2  22
ATOM     22  C   UNL     1       0.520   9.641  19.367  0.00  0.00    +0.000 A 
ATOM     23  C   UNL     1       0.872   8.686  20.336  0.00  0.00    +0.000 A 
ATOM     24  C   UNL     1       1.893   7.769  20.093  0.00  0.00    +0.000 A 
ATOM     25  C   UNL     1       2.491   7.724  18.839  0.00  0.00    +0.000 A 
ATOM     26  C   UNL     1       2.056   8.583  17.828  0.00  0.00    +0.000 A 
ATOM     27  C   UNL     1       1.079   9.549  18.091  0.00  0.00    +0.000 A 
ENDBRANCH   2  22
BRANCH   1  28
ATOM     28  C   UNL     1      -2.094  10.069  18.037  0.00  0.00    +0.000 C 
BRANCH  28  29
ATOM     29  C   UNL     1      -3.445  10.575  17.559  0.00  0.00    +0.000 C 
BRANCH  29  30
ATOM     30  C   UNL     1      -3.912  11.791  18.379  0.00  0.00    +0.000 C 
BRANCH  30  31
ATOM     31  N   UNL     1      -5.146  11.585  19.170  0.00  0.00    +0.000 NA
BRANCH  31  33
ATOM     32  C   UNL     1      -6.386  12.359  21.237  0.00  0.00    +0.000 C 
ATOM     33  C   UNL     1      -5.365  12.668  20.144  0.00  0.00    +0.000 C 
ENDBRANCH  31  33
BRANCH  31  34
ATOM     34  C   UNL     1      -6.303  11.296  18.308  0.00  0.00    +0.000 C 
ATOM     35  C   UNL     1      -6.806  12.460  17.460  0.00  0.00    +0.000 C 
ENDBRANCH  31  34
ENDBRANCH  30  31
ENDBRANCH  29  30
ENDBRANCH  28  29
ENDBRANCH   1  28
TORSDOF 9
ENDMDL
MODEL 9
REMARK VINA RESULT:      -7.2      5.934      9.876
REMARK  Name = 
REMARK  12 active torsions:
REMARK  status: ('A' for Active; 'I' for Inactive)
REMARK    1  A    between atoms: C_1  and  C_2
REMARK    2  A    between atoms: C_2  and  N_3
REMARK    3  A    between atoms: N_3  and  C_4
REMARK    4  A    between atoms: N_3  and  C_6
REMARK    5  A    between atoms: C_4  and  C_5
REMARK    6  A    between atoms: C_6  and  C_7
REMARK    7  A    between atoms: C_7  and  C_8
REMARK    8  A    between atoms: C_8  and  N_9
REMARK    9  A    between atoms: C_10  and  C_29
REMARK   10  A    between atoms: N_11  and  C_12
REMARK   11  A    between atoms: C_24  and  O_25
REMARK   12  A    between atoms: O_25  and  C_26
REMARK                            x       y       z     vdW  Elec       q    Type
REMARK                         _______ _______ _______ _____ _____    ______ ____
ROOT
ATOM      1  N   UNL     1      -1.062  11.510  21.259  0.00  0.00    +0.000 NA
ATOM      2  C   UNL     1      -0.927  12.603  20.571  0.00  0.00    +0.000 C 
ATOM      3  N   UNL     1      -2.048  13.346  20.214  0.00  0.00    +0.000 N 
ATOM      4  H   UNL     1      -2.065  14.325  20.485  0.00  0.00    +0.000 HD
ENDROOT
BRANCH   3   5
ATOM      5  C   UNL     1      -3.378  12.809  20.118  0.00  0.00    +0.000 A 
ATOM      6  C   UNL     1      -4.317  12.985  21.180  0.00  0.00    +0.000 A 
ATOM      7  C   UNL     1      -4.027  13.602  22.426  0.00  0.00    +0.000 A 
ATOM      8  C   UNL     1      -4.997  13.789  23.403  0.00  0.00    +0.000 A 
ATOM      9  C   UNL     1      -6.271  13.306  23.175  0.00  0.00    +0.000 A 
ATOM     10 CL   UNL     1      -7.481  13.504  24.378  0.00  0.00    +0.000 Cl
ATOM     11  C   UNL     1      -6.569  12.649  21.984  0.00  0.00    +0.000 A 
ATOM     12  C   UNL     1      -5.616  12.485  20.986  0.00  0.00    +0.000 A 
ATOM     13  N   UNL     1      -5.982  11.836  19.875  0.00  0.00    +0.000 NA
ATOM     14  C   UNL     1      -5.080  11.655  18.899  0.00  0.00    +0.000 A 
ATOM     15  C   UNL     1      -5.486  10.969  17.767  0.00  0.00    +0.000 A 
ATOM     16  C   UNL     1      -4.606  10.740  16.718  0.00  0.00    +0.000 A 
ATOM     17  C   UNL     1      -3.313  11.211  16.856  0.00  0.00    +0.000 A 
ATOM     18  N   UNL     1      -2.862  11.885  17.936  0.00  0.00    +0.000 NA
ATOM     19  C   UNL     1      -3.745  12.112  18.949  0.00  0.00    +0.000 A 
BRANCH  17  20
ATOM     20  O   UNL     1      -2.472  10.952  15.789  0.00  0.00    +0.000 OA
ATOM     21  C   UNL     1      -3.141  10.360  14.686  0.00  0.00    +0.000 C 
ENDBRANCH  17  20
ENDBRANCH   3   5
BRANCH   2  22
ATOM     22  C   UNL     1       0.398  13.115  20.059  0.00  0.00    +0.000 A 
ATOM     23  C   UNL     1       0.883  12.703  18.807  0.00  0.00    +0.000 A 
ATOM     24  C   UNL     1       2.177  13.027  18.404  0.00  0.00    +0.000 A 
ATOM     25  C   UNL     1       2.956  13.859  19.199  0.00  0.00    +0.000 A 
ATOM     26  C   UNL     1       2.433  14.380  20.384  0.00  0.00    +0.000 A 
ATOM     27  C   UNL     1       1.159  14.002  20.823  0.00  0.00    +0.000 A 
ENDBRANCH   2  22
BRANCH   1  28
ATOM     28  C   UNL     1       0.040  10.639  21.649  0.00  0.00    +0.000 C 
BRANCH  28  29
ATOM     29  C   UNL     1      -0.044   9.319  20.900  0.00  0.00    +0.000 C 
BRANCH  29  30
ATOM     30  C   UNL     1       1.304   8.575  20.918  0.00  0.00    +0.000 C 
BRANCH  30  31
ATOM     31  N   UNL     1       1.522   7.633  19.798  0.00  0.00    +0.000 NA
BRANCH  31  33
ATOM     32  C   UNL     1       1.544   9.191  17.803  0.00  0.00    +0.000 C 
ATOM     33  C   UNL     1       2.314   8.237  18.713  0.00  0.00    +0.000 C 
ENDBRANCH  31  33
BRANCH  31  34
ATOM     34  C   UNL     1       2.027   6.334  20.270  0.00  0.00    +0.000 C 
ATOM     35  C   UNL     1       2.346   5.311  19.186  0.00  0.00    +0.000 C 
ENDBRANCH  31  34
ENDBRANCH  30  31
ENDBRANCH  29  30
ENDBRANCH  28  29
ENDBRANCH   1  28
TORSDOF 9
ENDMDL
