MODEL 1
REMARK VINA RESULT:      -6.6      0.000      0.000
REMARK  Name = 
REMARK  11 active torsions:
REMARK  status: ('A' for Active; 'I' for Inactive)
REMARK    1  A    between atoms: C_2  and  C_3
REMARK    2  A    between atoms: N_5  and  C_6
REMARK    3  A    between atoms: N_5  and  C_14
REMARK    4  A    between atoms: C_9  and  C_10
REMARK    5  A    between atoms: C_14  and  C_15
REMARK    6  A    between atoms: C_14  and  C_22
REMARK    7  A    between atoms: N_17  and  C_18
REMARK    8  A    between atoms: C_18  and  C_19
REMARK    9  A    between atoms: C_18  and  C_20
REMARK   10  A    between atoms: C_18  and  C_21
REMARK   11  A    between atoms: C_25  and  N_26
REMARK                            x       y       z     vdW  Elec       q    Type
REMARK                         _______ _______ _______ _____ _____    ______ ____
ROOT
ATOM      1  C   UNL     1       2.928   5.710  17.766  0.00  0.00    +0.000 C 
ENDROOT
BRANCH   1   2
ATOM      2  C   UNL     1       2.503   7.052  18.371  0.00  0.00    +0.000 A 
ATOM      3  C   UNL     1       2.005   7.175  19.674  0.00  0.00    +0.000 A 
ATOM      4  C   UNL     1       1.409   8.367  20.095  0.00  0.00    +0.000 A 
ATOM      5  C   UNL     1       1.381   9.486  19.265  0.00  0.00    +0.000 A 
ATOM      6  C   UNL     1       1.976   9.400  18.008  0.00  0.00    +0.000 A 
ATOM      7  C   UNL     1       2.568   8.211  17.580  0.00  0.00    +0.000 A 
BRANCH   5   8
ATOM      8  N   UNL     1       0.554  10.570  19.576  0.00  0.00    +0.000 N 
ATOM      9  H   UNL     1       0.133  11.020  18.770  0.00  0.00    +0.000 HD
ATOM     10  H   UNL     1      -0.113  10.390  20.318  0.00  0.00    +0.000 HD
ENDBRANCH   5   8
ENDBRANCH   1   2
BRANCH   1  11
ATOM     11  C   UNL     1       2.187   4.477  18.391  0.00  0.00    +0.000 C 
ATOM     12  O   UNL     1       1.157   4.038  17.879  0.00  0.00    +0.000 OA
ATOM     13  N   UNL     1       2.796   3.869  19.480  0.00  0.00    +0.000 N 
ATOM     14  H   UNL     1       3.600   4.332  19.885  0.00  0.00    +0.000 HD
BRANCH  13  15
ATOM     15  C   UNL     1       2.271   2.698  20.203  0.00  0.00    +0.000 C 
ATOM     16  C   UNL     1       2.008   1.532  19.238  0.00  0.00    +0.000 C 
ATOM     17  C   UNL     1       3.324   2.233  21.229  0.00  0.00    +0.000 C 
ATOM     18  C   UNL     1       0.993   3.065  20.972  0.00  0.00    +0.000 C 
ENDBRANCH  13  15
ENDBRANCH   1  11
BRANCH   1  21
ATOM     19  C   UNL     1       5.154   5.756  18.806  0.00  0.00    +0.000 C 
ATOM     20  O   UNL     1       4.692   6.218  19.844  0.00  0.00    +0.000 OA
ATOM     21  N   UNL     1       4.392   5.482  17.663  0.00  0.00    +0.000 N 
BRANCH  21  22
ATOM     22  C   UNL     1       4.975   5.069  16.422  0.00  0.00    +0.000 A 
ATOM     23  C   UNL     1       5.229   3.719  16.149  0.00  0.00    +0.000 A 
ATOM     24  C   UNL     1       5.796   3.317  14.934  0.00  0.00    +0.000 A 
ATOM     25  C   UNL     1       6.107   4.264  13.960  0.00  0.00    +0.000 A 
ATOM     26  C   UNL     1       5.857   5.614  14.215  0.00  0.00    +0.000 A 
ATOM     27  C   UNL     1       5.297   6.011  15.436  0.00  0.00    +0.000 A 
BRANCH  25  28
ATOM     28  C   UNL     1       6.669   3.848  12.711  0.00  0.00    +0.000 C 
ATOM     29  N   UNL     1       7.130   3.518  11.700  0.00  0.00    +0.000 NA
ENDBRANCH  25  28
ENDBRANCH  21  22
BRANCH  19  31
ATOM     30  C   UNL     1       7.715   5.045  18.852  0.00  0.00    +0.000 C 
ATOM     31  C   UNL     1       6.559   5.374  18.835  0.00  0.00    +0.000 C 
ENDBRANCH  19  31
ENDBRANCH   1  21
TORSDOF 8
ENDMDL
MODEL 2
REMARK VINA RESULT:      -6.4      5.298     11.157
REMARK  Name = 
REMARK  11 active torsions:
REMARK  status: ('A' for Active; 'I' for Inactive)
REMARK    1  A    between atoms: C_2  and  C_3
REMARK    2  A    between atoms: N_5  and  C_6
REMARK    3  A    between atoms: N_5  and  C_14
REMARK    4  A    between atoms: C_9  and  C_10
REMARK    5  A    between atoms: C_14  and  C_15
REMARK    6  A    between atoms: C_14  and  C_22
REMARK    7  A    between atoms: N_17  and  C_18
REMARK    8  A    between atoms: C_18  and  C_19
REMARK    9  A    between atoms: C_18  and  C_20
REMARK   10  A    between atoms: C_18  and  C_21
REMARK   11  A    between atoms: C_25  and  N_26
REMARK                            x       y       z     vdW  Elec       q    Type
REMARK                         _______ _______ _______ _____ _____    ______ ____
ROOT
ATOM      1  C   UNL     1       0.284  11.774  19.176  0.00  0.00    +0.000 C 
ENDROOT
BRANCH   1   2
ATOM      2  C   UNL     1       0.724  10.318  19.358  0.00  0.00    +0.000 A 
ATOM      3  C   UNL     1       0.533   9.608  20.550  0.00  0.00    +0.000 A 
ATOM      4  C   UNL     1       1.160   8.376  20.749  0.00  0.00    +0.000 A 
ATOM      5  C   UNL     1       1.911   7.782  19.736  0.00  0.00    +0.000 A 
ATOM      6  C   UNL     1       2.010   8.434  18.509  0.00  0.00    +0.000 A 
ATOM      7  C   UNL     1       1.390   9.667  18.306  0.00  0.00    +0.000 A 
BRANCH   5   8
ATOM      8  N   UNL     1       2.751   6.702  20.026  0.00  0.00    +0.000 N 
ATOM      9  H   UNL     1       3.602   6.674  19.474  0.00  0.00    +0.000 HD
ATOM     10  H   UNL     1       2.920   6.555  21.014  0.00  0.00    +0.000 HD
ENDBRANCH   5   8
ENDBRANCH   1   2
BRANCH   1  11
ATOM     11  C   UNL     1       1.248  12.810  19.853  0.00  0.00    +0.000 C 
ATOM     12  O   UNL     1       1.831  12.533  20.901  0.00  0.00    +0.000 OA
ATOM     13  N   UNL     1       1.466  13.998  19.169  0.00  0.00    +0.000 N 
ATOM     14  H   UNL     1       0.895  14.180  18.353  0.00  0.00    +0.000 HD
BRANCH  13  15
ATOM     15  C   UNL     1       2.338  15.093  19.626  0.00  0.00    +0.000 C 
ATOM     16  C   UNL     1       3.792  14.615  19.762  0.00  0.00    +0.000 C 
ATOM     17  C   UNL     1       2.310  16.223  18.578  0.00  0.00    +0.000 C 
ATOM     18  C   UNL     1       1.831  15.671  20.957  0.00  0.00    +0.000 C 
ENDBRANCH  13  15
ENDBRANCH   1  11
BRANCH   1  21
ATOM     19  C   UNL     1      -2.072  11.770  18.477  0.00  0.00    +0.000 C 
ATOM     20  O   UNL     1      -1.772  11.353  17.363  0.00  0.00    +0.000 OA
ATOM     21  N   UNL     1      -1.141  12.062  19.482  0.00  0.00    +0.000 N 
BRANCH  21  22
ATOM     22  C   UNL     1      -1.505  12.672  20.725  0.00  0.00    +0.000 A 
ATOM     23  C   UNL     1      -1.767  14.045  20.815  0.00  0.00    +0.000 A 
ATOM     24  C   UNL     1      -2.125  14.639  22.031  0.00  0.00    +0.000 A 
ATOM     25  C   UNL     1      -2.242  13.861  23.181  0.00  0.00    +0.000 A 
ATOM     26  C   UNL     1      -1.988  12.491  23.109  0.00  0.00    +0.000 A 
ATOM     27  C   UNL     1      -1.622  11.903  21.891  0.00  0.00    +0.000 A 
BRANCH  25  28
ATOM     28  C   UNL     1      -2.628  14.469  24.419  0.00  0.00    +0.000 C 
ATOM     29  N   UNL     1      -2.932  14.959  25.425  0.00  0.00    +0.000 NA
ENDBRANCH  25  28
ENDBRANCH  21  22
BRANCH  19  31
ATOM     30  C   UNL     1      -4.671  11.897  19.020  0.00  0.00    +0.000 C 
ATOM     31  C   UNL     1      -3.495  11.846  18.779  0.00  0.00    +0.000 C 
ENDBRANCH  19  31
ENDBRANCH   1  21
TORSDOF 8
ENDMDL
MODEL 3
REMARK VINA RESULT:      -6.4      2.446      3.953
REMARK  Name = 
REMARK  11 active torsions:
REMARK  status: ('A' for Active; 'I' for Inactive)
REMARK    1  A    between atoms: C_2  and  C_3
REMARK    2  A    between atoms: N_5  and  C_6
REMARK    3  A    between atoms: N_5  and  C_14
REMARK    4  A    between atoms: C_9  and  C_10
REMARK    5  A    between atoms: C_14  and  C_15
REMARK    6  A    between atoms: C_14  and  C_22
REMARK    7  A    between atoms: N_17  and  C_18
REMARK    8  A    between atoms: C_18  and  C_19
REMARK    9  A    between atoms: C_18  and  C_20
REMARK   10  A    between atoms: C_18  and  C_21
REMARK   11  A    between atoms: C_25  and  N_26
REMARK                            x       y       z     vdW  Elec       q    Type
REMARK                         _______ _______ _______ _____ _____    ______ ____
ROOT
ATOM      1  C   UNL     1       3.988   5.361  17.391  0.00  0.00    +0.000 C 
ENDROOT
BRANCH   1   2
ATOM      2  C   UNL     1       3.338   6.592  18.030  0.00  0.00    +0.000 A 
ATOM      3  C   UNL     1       2.987   6.651  19.384  0.00  0.00    +0.000 A 
ATOM      4  C   UNL     1       2.185   7.690  19.864  0.00  0.00    +0.000 A 
ATOM      5  C   UNL     1       1.796   8.738  19.031  0.00  0.00    +0.000 A 
ATOM      6  C   UNL     1       2.238   8.740  17.710  0.00  0.00    +0.000 A 
ATOM      7  C   UNL     1       3.035   7.702  17.224  0.00  0.00    +0.000 A 
BRANCH   5   8
ATOM      8  N   UNL     1       0.784   9.615  19.433  0.00  0.00    +0.000 N 
ATOM      9  H   UNL     1       0.137   9.873  18.695  0.00  0.00    +0.000 HD
ATOM     10  H   UNL     1       0.315   9.349  20.291  0.00  0.00    +0.000 HD
ENDBRANCH   5   8
ENDBRANCH   1   2
BRANCH   1  11
ATOM     11  C   UNL     1       4.027   4.110  18.336  0.00  0.00    +0.000 C 
ATOM     12  O   UNL     1       5.066   3.794  18.916  0.00  0.00    +0.000 OA
ATOM     13  N   UNL     1       2.826   3.446  18.544  0.00  0.00    +0.000 N 
ATOM     14  H   UNL     1       2.035   3.723  17.976  0.00  0.00    +0.000 HD
BRANCH  13  15
ATOM     15  C   UNL     1       2.647   2.260  19.398  0.00  0.00    +0.000 C 
ATOM     16  C   UNL     1       2.914   2.602  20.872  0.00  0.00    +0.000 C 
ATOM     17  C   UNL     1       1.187   1.779  19.283  0.00  0.00    +0.000 C 
ATOM     18  C   UNL     1       3.560   1.115  18.933  0.00  0.00    +0.000 C 
ENDBRANCH  13  15
ENDBRANCH   1  11
BRANCH   1  21
ATOM     19  C   UNL     1       5.585   4.794  15.611  0.00  0.00    +0.000 C 
ATOM     20  O   UNL     1       4.856   3.895  15.203  0.00  0.00    +0.000 OA
ATOM     21  N   UNL     1       5.296   5.592  16.724  0.00  0.00    +0.000 N 
BRANCH  21  22
ATOM     22  C   UNL     1       6.222   6.544  17.259  0.00  0.00    +0.000 A 
ATOM     23  C   UNL     1       7.214   6.164  18.173  0.00  0.00    +0.000 A 
ATOM     24  C   UNL     1       8.119   7.096  18.693  0.00  0.00    +0.000 A 
ATOM     25  C   UNL     1       8.057   8.429  18.293  0.00  0.00    +0.000 A 
ATOM     26  C   UNL     1       7.077   8.825  17.382  0.00  0.00    +0.000 A 
ATOM     27  C   UNL     1       6.168   7.890  16.871  0.00  0.00    +0.000 A 
BRANCH  25  28
ATOM     28  C   UNL     1       8.998   9.376  18.812  0.00  0.00    +0.000 C 
ATOM     29  N   UNL     1       9.760  10.146  19.224  0.00  0.00    +0.000 NA
ENDBRANCH  25  28
ENDBRANCH  21  22
BRANCH  19  31
ATOM     30  C   UNL     1       7.715   5.361  14.126  0.00  0.00    +0.000 C 
ATOM     31  C   UNL     1       6.756   5.098  14.800  0.00  0.00    +0.000 C 
ENDBRANCH  19  31
ENDBRANCH   1  21
TORSDOF 8
ENDMDL
MODEL 4
REMARK VINA RESULT:      -6.4      2.426      3.941
REMARK  Name = 
REMARK  11 active torsions:
REMARK  status: ('A' for Active; 'I' for Inactive)
REMARK    1  A    between atoms: C_2  and  C_3
REMARK    2  A    between atoms: N_5  and  C_6
REMARK    3  A    between atoms: N_5  and  C_14
REMARK    4  A    between atoms: C_9  and  C_10
REMARK    5  A    between atoms: C_14  and  C_15
REMARK    6  A    between atoms: C_14  and  C_22
REMARK    7  A    between atoms: N_17  and  C_18
REMARK    8  A    between atoms: C_18  and  C_19
REMARK    9  A    between atoms: C_18  and  C_20
REMARK   10  A    between atoms: C_18  and  C_21
REMARK   11  A    between atoms: C_25  and  N_26
REMARK                            x       y       z     vdW  Elec       q    Type
REMARK                         _______ _______ _______ _____ _____    ______ ____
ROOT
ATOM      1  C   UNL     1       3.956   5.357  17.382  0.00  0.00    +0.000 C 
ENDROOT
BRANCH   1   2
ATOM      2  C   UNL     1       3.321   6.592  18.029  0.00  0.00    +0.000 A 
ATOM      3  C   UNL     1       2.969   6.647  19.383  0.00  0.00    +0.000 A 
ATOM      4  C   UNL     1       2.180   7.693  19.869  0.00  0.00    +0.000 A 
ATOM      5  C   UNL     1       1.806   8.751  19.042  0.00  0.00    +0.000 A 
ATOM      6  C   UNL     1       2.250   8.756  17.721  0.00  0.00    +0.000 A 
ATOM      7  C   UNL     1       3.033   7.712  17.229  0.00  0.00    +0.000 A 
BRANCH   5   8
ATOM      8  N   UNL     1       0.805   9.638  19.449  0.00  0.00    +0.000 N 
ATOM      9  H   UNL     1      -0.127   9.236  19.472  0.00  0.00    +0.000 HD
ATOM     10  H   UNL     1       1.025  10.165  20.286  0.00  0.00    +0.000 HD
ENDBRANCH   5   8
ENDBRANCH   1   2
BRANCH   1  11
ATOM     11  C   UNL     1       3.994   4.105  18.325  0.00  0.00    +0.000 C 
ATOM     12  O   UNL     1       5.018   3.817  18.945  0.00  0.00    +0.000 OA
ATOM     13  N   UNL     1       2.806   3.406  18.484  0.00  0.00    +0.000 N 
ATOM     14  H   UNL     1       2.029   3.662  17.886  0.00  0.00    +0.000 HD
BRANCH  13  15
ATOM     15  C   UNL     1       2.627   2.213  19.328  0.00  0.00    +0.000 C 
ATOM     16  C   UNL     1       3.556   1.076  18.872  0.00  0.00    +0.000 C 
ATOM     17  C   UNL     1       2.999   2.570  20.782  0.00  0.00    +0.000 C 
ATOM     18  C   UNL     1       1.161   1.754  19.315  0.00  0.00    +0.000 C 
ENDBRANCH  13  15
ENDBRANCH   1  11
BRANCH   1  21
ATOM     19  C   UNL     1       5.536   4.776  15.591  0.00  0.00    +0.000 C 
ATOM     20  O   UNL     1       4.799   3.879  15.193  0.00  0.00    +0.000 OA
ATOM     21  N   UNL     1       5.259   5.580  16.704  0.00  0.00    +0.000 N 
BRANCH  21  22
ATOM     22  C   UNL     1       6.195   6.529  17.228  0.00  0.00    +0.000 A 
ATOM     23  C   UNL     1       6.154   7.878  16.852  0.00  0.00    +0.000 A 
ATOM     24  C   UNL     1       7.069   8.804  17.367  0.00  0.00    +0.000 A 
ATOM     25  C   UNL     1       8.035   8.396  18.285  0.00  0.00    +0.000 A 
ATOM     26  C   UNL     1       8.087   7.057  18.674  0.00  0.00    +0.000 A 
ATOM     27  C   UNL     1       7.175   6.132  18.148  0.00  0.00    +0.000 A 
BRANCH  25  28
ATOM     28  C   UNL     1       8.956   9.351  18.825  0.00  0.00    +0.000 C 
ATOM     29  N   UNL     1       9.704  10.117  19.269  0.00  0.00    +0.000 NA
ENDBRANCH  25  28
ENDBRANCH  21  22
BRANCH  19  31
ATOM     30  C   UNL     1       7.669   5.301  14.095  0.00  0.00    +0.000 C 
ATOM     31  C   UNL     1       6.701   5.071  14.770  0.00  0.00    +0.000 C 
ENDBRANCH  19  31
ENDBRANCH   1  21
TORSDOF 8
ENDMDL
MODEL 5
REMARK VINA RESULT:      -6.3      4.981      9.127
REMARK  Name = 
REMARK  11 active torsions:
REMARK  status: ('A' for Active; 'I' for Inactive)
REMARK    1  A    between atoms: C_2  and  C_3
REMARK    2  A    between atoms: N_5  and  C_6
REMARK    3  A    between atoms: N_5  and  C_14
REMARK    4  A    between atoms: C_9  and  C_10
REMARK    5  A    between atoms: C_14  and  C_15
REMARK    6  A    between atoms: C_14  and  C_22
REMARK    7  A    between atoms: N_17  and  C_18
REMARK    8  A    between atoms: C_18  and  C_19
REMARK    9  A    between atoms: C_18  and  C_20
REMARK   10  A    between atoms: C_18  and  C_21
REMARK   11  A    between atoms: C_25  and  N_26
REMARK                            x       y       z     vdW  Elec       q    Type
REMARK                         _______ _______ _______ _____ _____    ______ ____
ROOT
ATOM      1  C   UNL     1      -0.524  12.873  20.050  0.00  0.00    +0.000 C 
ENDROOT
BRANCH   1   2
ATOM      2  C   UNL     1       0.934  13.298  19.854  0.00  0.00    +0.000 A 
ATOM      3  C   UNL     1       1.897  13.206  20.867  0.00  0.00    +0.000 A 
ATOM      4  C   UNL     1       3.141  13.824  20.721  0.00  0.00    +0.000 A 
ATOM      5  C   UNL     1       3.488  14.464  19.532  0.00  0.00    +0.000 A 
ATOM      6  C   UNL     1       2.574  14.460  18.480  0.00  0.00    +0.000 A 
ATOM      7  C   UNL     1       1.327  13.849  18.622  0.00  0.00    +0.000 A 
BRANCH   5   8
ATOM      8  N   UNL     1       4.604  15.305  19.487  0.00  0.00    +0.000 N 
ATOM      9  H   UNL     1       5.495  14.821  19.526  0.00  0.00    +0.000 HD
ATOM     10  H   UNL     1       4.571  16.008  18.758  0.00  0.00    +0.000 HD
ENDBRANCH   5   8
ENDBRANCH   1   2
BRANCH   1  11
ATOM     11  C   UNL     1      -0.991  12.901  21.547  0.00  0.00    +0.000 C 
ATOM     12  O   UNL     1      -0.378  12.270  22.408  0.00  0.00    +0.000 OA
ATOM     13  N   UNL     1      -2.061  13.732  21.852  0.00  0.00    +0.000 N 
ATOM     14  H   UNL     1      -2.555  14.161  21.079  0.00  0.00    +0.000 HD
BRANCH  13  15
ATOM     15  C   UNL     1      -2.644  13.908  23.192  0.00  0.00    +0.000 C 
ATOM     16  C   UNL     1      -1.604  14.472  24.172  0.00  0.00    +0.000 C 
ATOM     17  C   UNL     1      -3.804  14.921  23.102  0.00  0.00    +0.000 C 
ATOM     18  C   UNL     1      -3.217  12.581  23.713  0.00  0.00    +0.000 C 
ENDBRANCH  13  15
ENDBRANCH   1  11
BRANCH   1  21
ATOM     19  C   UNL     1      -2.244  11.554  18.891  0.00  0.00    +0.000 C 
ATOM     20  O   UNL     1      -3.077  12.440  19.056  0.00  0.00    +0.000 OA
ATOM     21  N   UNL     1      -0.929  11.616  19.368  0.00  0.00    +0.000 N 
BRANCH  21  22
ATOM     22  C   UNL     1      -0.017  10.516  19.278  0.00  0.00    +0.000 A 
ATOM     23  C   UNL     1       0.221   9.675  20.373  0.00  0.00    +0.000 A 
ATOM     24  C   UNL     1       1.112   8.599  20.283  0.00  0.00    +0.000 A 
ATOM     25  C   UNL     1       1.771   8.335  19.084  0.00  0.00    +0.000 A 
ATOM     26  C   UNL     1       1.543   9.161  17.982  0.00  0.00    +0.000 A 
ATOM     27  C   UNL     1       0.657  10.242  18.081  0.00  0.00    +0.000 A 
BRANCH  25  28
ATOM     28  C   UNL     1       2.666   7.221  18.990  0.00  0.00    +0.000 C 
ATOM     29  N   UNL     1       3.384   6.315  18.909  0.00  0.00    +0.000 NA
ENDBRANCH  25  28
ENDBRANCH  21  22
BRANCH  19  31
ATOM     30  C   UNL     1      -2.966   9.517  17.344  0.00  0.00    +0.000 C 
ATOM     31  C   UNL     1      -2.645  10.436  18.049  0.00  0.00    +0.000 C 
ENDBRANCH  19  31
ENDBRANCH   1  21
TORSDOF 8
ENDMDL
MODEL 6
REMARK VINA RESULT:      -6.2      4.646      8.637
REMARK  Name = 
REMARK  11 active torsions:
REMARK  status: ('A' for Active; 'I' for Inactive)
REMARK    1  A    between atoms: C_2  and  C_3
REMARK    2  A    between atoms: N_5  and  C_6
REMARK    3  A    between atoms: N_5  and  C_14
REMARK    4  A    between atoms: C_9  and  C_10
REMARK    5  A    between atoms: C_14  and  C_15
REMARK    6  A    between atoms: C_14  and  C_22
REMARK    7  A    between atoms: N_17  and  C_18
REMARK    8  A    between atoms: C_18  and  C_19
REMARK    9  A    between atoms: C_18  and  C_20
REMARK   10  A    between atoms: C_18  and  C_21
REMARK   11  A    between atoms: C_25  and  N_26
REMARK                            x       y       z     vdW  Elec       q    Type
REMARK                         _______ _______ _______ _____ _____    ______ ____
ROOT
ATOM      1  C   UNL     1       0.773  11.928  20.666  0.00  0.00    +0.000 C 
ENDROOT
BRANCH   1   2
ATOM      2  C   UNL     1      -0.207  12.299  21.783  0.00  0.00    +0.000 A 
ATOM      3  C   UNL     1      -0.974  11.349  22.469  0.00  0.00    +0.000 A 
ATOM      4  C   UNL     1      -2.020  11.752  23.304  0.00  0.00    +0.000 A 
ATOM      5  C   UNL     1      -2.263  13.103  23.546  0.00  0.00    +0.000 A 
ATOM      6  C   UNL     1      -1.430  14.049  22.953  0.00  0.00    +0.000 A 
ATOM      7  C   UNL     1      -0.387  13.653  22.115  0.00  0.00    +0.000 A 
BRANCH   5   8
ATOM      8  N   UNL     1      -3.460  13.503  24.149  0.00  0.00    +0.000 N 
ATOM      9  H   UNL     1      -4.165  13.834  23.498  0.00  0.00    +0.000 HD
ATOM     10  H   UNL     1      -3.829  12.846  24.827  0.00  0.00    +0.000 HD
ENDBRANCH   5   8
ENDBRANCH   1   2
BRANCH   1  11
ATOM     11  C   UNL     1       1.465  13.169  20.000  0.00  0.00    +0.000 C 
ATOM     12  O   UNL     1       0.909  13.785  19.090  0.00  0.00    +0.000 OA
ATOM     13  N   UNL     1       2.675  13.576  20.545  0.00  0.00    +0.000 N 
ATOM     14  H   UNL     1       3.100  12.976  21.241  0.00  0.00    +0.000 HD
BRANCH  13  15
ATOM     15  C   UNL     1       3.478  14.717  20.074  0.00  0.00    +0.000 C 
ATOM     16  C   UNL     1       2.706  16.035  20.242  0.00  0.00    +0.000 C 
ATOM     17  C   UNL     1       4.760  14.810  20.926  0.00  0.00    +0.000 C 
ATOM     18  C   UNL     1       3.898  14.517  18.610  0.00  0.00    +0.000 C 
ENDBRANCH  13  15
ENDBRANCH   1  11
BRANCH   1  21
ATOM     19  C   UNL     1      -0.996  11.237  19.106  0.00  0.00    +0.000 C 
ATOM     20  O   UNL     1      -1.711  12.171  19.456  0.00  0.00    +0.000 OA
ATOM     21  N   UNL     1       0.265  10.968  19.652  0.00  0.00    +0.000 N 
BRANCH  21  22
ATOM     22  C   UNL     1       1.021   9.798  19.322  0.00  0.00    +0.000 A 
ATOM     23  C   UNL     1       1.153   8.735  20.225  0.00  0.00    +0.000 A 
ATOM     24  C   UNL     1       1.891   7.591  19.898  0.00  0.00    +0.000 A 
ATOM     25  C   UNL     1       2.500   7.484  18.650  0.00  0.00    +0.000 A 
ATOM     26  C   UNL     1       2.376   8.533  17.737  0.00  0.00    +0.000 A 
ATOM     27  C   UNL     1       1.644   9.679  18.072  0.00  0.00    +0.000 A 
BRANCH  25  28
ATOM     28  C   UNL     1       3.238   6.304  18.312  0.00  0.00    +0.000 C 
ATOM     29  N   UNL     1       3.842   5.354  18.039  0.00  0.00    +0.000 NA
ENDBRANCH  25  28
ENDBRANCH  21  22
BRANCH  19  31
ATOM     30  C   UNL     1      -1.841   9.793  17.041  0.00  0.00    +0.000 C 
ATOM     31  C   UNL     1      -1.467  10.449  17.975  0.00  0.00    +0.000 C 
ENDBRANCH  19  31
ENDBRANCH   1  21
TORSDOF 8
ENDMDL
MODEL 7
REMARK VINA RESULT:      -6.2      5.092      9.462
REMARK  Name = 
REMARK  11 active torsions:
REMARK  status: ('A' for Active; 'I' for Inactive)
REMARK    1  A    between atoms: C_2  and  C_3
REMARK    2  A    between atoms: N_5  and  C_6
REMARK    3  A    between atoms: N_5  and  C_14
REMARK    4  A    between atoms: C_9  and  C_10
REMARK    5  A    between atoms: C_14  and  C_15
REMARK    6  A    between atoms: C_14  and  C_22
REMARK    7  A    between atoms: N_17  and  C_18
REMARK    8  A    between atoms: C_18  and  C_19
REMARK    9  A    between atoms: C_18  and  C_20
REMARK   10  A    between atoms: C_18  and  C_21
REMARK   11  A    between atoms: C_25  and  N_26
REMARK                            x       y       z     vdW  Elec       q    Type
REMARK                         _______ _______ _______ _____ _____    ______ ____
ROOT
ATOM      1  C   UNL     1       0.119  12.162  21.526  0.00  0.00    +0.000 C 
ENDROOT
BRANCH   1   2
ATOM      2  C   UNL     1      -0.990  12.550  22.509  0.00  0.00    +0.000 A 
ATOM      3  C   UNL     1      -1.937  11.636  22.987  0.00  0.00    +0.000 A 
ATOM      4  C   UNL     1      -3.063  12.081  23.683  0.00  0.00    +0.000 A 
ATOM      5  C   UNL     1      -3.223  13.429  24.001  0.00  0.00    +0.000 A 
ATOM      6  C   UNL     1      -2.225  14.326  23.624  0.00  0.00    +0.000 A 
ATOM      7  C   UNL     1      -1.101  13.888  22.923  0.00  0.00    +0.000 A 
BRANCH   5   8
ATOM      8  N   UNL     1      -4.460  13.904  24.446  0.00  0.00    +0.000 N 
ATOM      9  H   UNL     1      -5.070  14.239  23.707  0.00  0.00    +0.000 HD
ATOM     10  H   UNL     1      -4.935  13.290  25.097  0.00  0.00    +0.000 HD
ENDBRANCH   5   8
ENDBRANCH   1   2
BRANCH   1  11
ATOM     11  C   UNL     1       0.923  13.390  20.971  0.00  0.00    +0.000 C 
ATOM     12  O   UNL     1       2.113  13.538  21.248  0.00  0.00    +0.000 OA
ATOM     13  N   UNL     1       0.250  14.233  20.098  0.00  0.00    +0.000 N 
ATOM     14  H   UNL     1      -0.745  14.086  19.978  0.00  0.00    +0.000 HD
BRANCH  13  15
ATOM     15  C   UNL     1       0.824  15.431  19.462  0.00  0.00    +0.000 C 
ATOM     16  C   UNL     1      -0.218  16.135  18.580  0.00  0.00    +0.000 C 
ATOM     17  C   UNL     1       1.257  16.421  20.562  0.00  0.00    +0.000 C 
ATOM     18  C   UNL     1       2.070  15.063  18.641  0.00  0.00    +0.000 C 
ENDBRANCH  13  15
ENDBRANCH   1  11
BRANCH   1  21
ATOM     19  C   UNL     1      -1.415  11.557  19.705  0.00  0.00    +0.000 C 
ATOM     20  O   UNL     1      -2.123  12.531  19.938  0.00  0.00    +0.000 OA
ATOM     21  N   UNL     1      -0.274  11.223  20.444  0.00  0.00    +0.000 N 
BRANCH  21  22
ATOM     22  C   UNL     1       0.459  10.011  20.237  0.00  0.00    +0.000 A 
ATOM     23  C   UNL     1       1.209   9.801  19.073  0.00  0.00    +0.000 A 
ATOM     24  C   UNL     1       1.925   8.615  18.874  0.00  0.00    +0.000 A 
ATOM     25  C   UNL     1       1.917   7.620  19.849  0.00  0.00    +0.000 A 
ATOM     26  C   UNL     1       1.177   7.814  21.017  0.00  0.00    +0.000 A 
ATOM     27  C   UNL     1       0.454   8.999  21.207  0.00  0.00    +0.000 A 
BRANCH  25  28
ATOM     28  C   UNL     1       2.667   6.417  19.651  0.00  0.00    +0.000 C 
ATOM     29  N   UNL     1       3.272   5.442  19.482  0.00  0.00    +0.000 NA
ENDBRANCH  25  28
ENDBRANCH  21  22
BRANCH  19  31
ATOM     30  C   UNL     1      -2.013  10.164  17.521  0.00  0.00    +0.000 C 
ATOM     31  C   UNL     1      -1.744  10.787  18.513  0.00  0.00    +0.000 C 
ENDBRANCH  19  31
ENDBRANCH   1  21
TORSDOF 8
ENDMDL
MODEL 8
REMARK VINA RESULT:      -6.2      4.869      8.986
REMARK  Name = 
REMARK  11 active torsions:
REMARK  status: ('A' for Active; 'I' for Inactive)
REMARK    1  A    between atoms: C_2  and  C_3
REMARK    2  A    between atoms: N_5  and  C_6
REMARK    3  A    between atoms: N_5  and  C_14
REMARK    4  A    between atoms: C_9  and  C_10
REMARK    5  A    between atoms: C_14  and  C_15
REMARK    6  A    between atoms: C_14  and  C_22
REMARK    7  A    between atoms: N_17  and  C_18
REMARK    8  A    between atoms: C_18  and  C_19
REMARK    9  A    between atoms: C_18  and  C_20
REMARK   10  A    between atoms: C_18  and  C_21
REMARK   11  A    between atoms: C_25  and  N_26
REMARK                            x       y       z     vdW  Elec       q    Type
REMARK                         _______ _______ _______ _____ _____    ______ ____
ROOT
ATOM      1  C   UNL     1      -0.369  12.797  19.905  0.00  0.00    +0.000 C 
ENDROOT
BRANCH   1   2
ATOM      2  C   UNL     1       1.091  13.206  19.689  0.00  0.00    +0.000 A 
ATOM      3  C   UNL     1       2.020  13.293  20.734  0.00  0.00    +0.000 A 
ATOM      4  C   UNL     1       3.263  13.896  20.529  0.00  0.00    +0.000 A 
ATOM      5  C   UNL     1       3.644  14.340  19.263  0.00  0.00    +0.000 A 
ATOM      6  C   UNL     1       2.766  14.153  18.197  0.00  0.00    +0.000 A 
ATOM      7  C   UNL     1       1.521  13.555  18.398  0.00  0.00    +0.000 A 
BRANCH   5   8
ATOM      8  N   UNL     1       4.753  15.178  19.118  0.00  0.00    +0.000 N 
ATOM      9  H   UNL     1       4.523  16.147  18.920  0.00  0.00    +0.000 HD
ATOM     10  H   UNL     1       5.450  15.082  19.847  0.00  0.00    +0.000 HD
ENDBRANCH   5   8
ENDBRANCH   1   2
BRANCH   1  11
ATOM     11  C   UNL     1      -0.818  12.842  21.407  0.00  0.00    +0.000 C 
ATOM     12  O   UNL     1      -0.153  12.281  22.278  0.00  0.00    +0.000 OA
ATOM     13  N   UNL     1      -1.937  13.609  21.702  0.00  0.00    +0.000 N 
ATOM     14  H   UNL     1      -2.469  13.979  20.923  0.00  0.00    +0.000 HD
BRANCH  13  15
ATOM     15  C   UNL     1      -2.515  13.789  23.044  0.00  0.00    +0.000 C 
ATOM     16  C   UNL     1      -2.996  12.447  23.618  0.00  0.00    +0.000 C 
ATOM     17  C   UNL     1      -1.424  14.340  23.986  0.00  0.00    +0.000 C 
ATOM     18  C   UNL     1      -3.665  14.807  23.007  0.00  0.00    +0.000 C 
ENDBRANCH  13  15
ENDBRANCH   1  11
BRANCH   1  21
ATOM     19  C   UNL     1      -2.103  11.502  18.740  0.00  0.00    +0.000 C 
ATOM     20  O   UNL     1      -2.915  12.412  18.876  0.00  0.00    +0.000 OA
ATOM     21  N   UNL     1      -0.795  11.540  19.238  0.00  0.00    +0.000 N 
BRANCH  21  22
ATOM     22  C   UNL     1       0.090  10.415  19.183  0.00  0.00    +0.000 A 
ATOM     23  C   UNL     1       0.768  10.076  18.005  0.00  0.00    +0.000 A 
ATOM     24  C   UNL     1       1.633   8.977  17.954  0.00  0.00    +0.000 A 
ATOM     25  C   UNL     1       1.849   8.204  19.093  0.00  0.00    +0.000 A 
ATOM     26  C   UNL     1       1.184   8.529  20.277  0.00  0.00    +0.000 A 
ATOM     27  C   UNL     1       0.312   9.625  20.319  0.00  0.00    +0.000 A 
BRANCH  25  28
ATOM     28  C   UNL     1       2.750   7.092  19.043  0.00  0.00    +0.000 C 
ATOM     29  N   UNL     1       3.473   6.187  19.007  0.00  0.00    +0.000 NA
ENDBRANCH  25  28
ENDBRANCH  21  22
BRANCH  19  31
ATOM     30  C   UNL     1      -2.869   9.463  17.217  0.00  0.00    +0.000 C 
ATOM     31  C   UNL     1      -2.519  10.380  17.911  0.00  0.00    +0.000 C 
ENDBRANCH  19  31
ENDBRANCH   1  21
TORSDOF 8
ENDMDL
MODEL 9
REMARK VINA RESULT:      -6.2      4.679      8.880
REMARK  Name = 
REMARK  11 active torsions:
REMARK  status: ('A' for Active; 'I' for Inactive)
REMARK    1  A    between atoms: C_2  and  C_3
REMARK    2  A    between atoms: N_5  and  C_6
REMARK    3  A    between atoms: N_5  and  C_14
REMARK    4  A    between atoms: C_9  and  C_10
REMARK    5  A    between atoms: C_14  and  C_15
REMARK    6  A    between atoms: C_14  and  C_22
REMARK    7  A    between atoms: N_17  and  C_18
REMARK    8  A    between atoms: C_18  and  C_19
REMARK    9  A    between atoms: C_18  and  C_20
REMARK   10  A    between atoms: C_18  and  C_21
REMARK   11  A    between atoms: C_25  and  N_26
REMARK                            x       y       z     vdW  Elec       q    Type
REMARK                         _______ _______ _______ _____ _____    ______ ____
ROOT
ATOM      1  C   UNL     1       0.571  11.831  21.140  0.00  0.00    +0.000 C 
ENDROOT
BRANCH   1   2
ATOM      2  C   UNL     1      -0.512  12.193  22.160  0.00  0.00    +0.000 A 
ATOM      3  C   UNL     1      -1.357  11.241  22.744  0.00  0.00    +0.000 A 
ATOM      4  C   UNL     1      -2.477  11.642  23.476  0.00  0.00    +0.000 A 
ATOM      5  C   UNL     1      -2.727  12.991  23.723  0.00  0.00    +0.000 A 
ATOM      6  C   UNL     1      -1.825  13.936  23.238  0.00  0.00    +0.000 A 
ATOM      7  C   UNL     1      -0.708  13.542  22.501  0.00  0.00    +0.000 A 
BRANCH   5   8
ATOM      8  N   UNL     1      -3.973  13.396  24.209  0.00  0.00    +0.000 N 
ATOM      9  H   UNL     1      -4.719  13.370  23.522  0.00  0.00    +0.000 HD
ATOM     10  H   UNL     1      -4.237  12.973  25.092  0.00  0.00    +0.000 HD
ENDBRANCH   5   8
ENDBRANCH   1   2
BRANCH   1  11
ATOM     11  C   UNL     1       1.418  13.061  20.660  0.00  0.00    +0.000 C 
ATOM     12  O   UNL     1       2.595  13.184  21.000  0.00  0.00    +0.000 OA
ATOM     13  N   UNL     1       0.802  13.937  19.777  0.00  0.00    +0.000 N 
ATOM     14  H   UNL     1      -0.188  13.806  19.602  0.00  0.00    +0.000 HD
BRANCH  13  15
ATOM     15  C   UNL     1       1.423  15.142  19.203  0.00  0.00    +0.000 C 
ATOM     16  C   UNL     1       2.501  14.767  18.176  0.00  0.00    +0.000 C 
ATOM     17  C   UNL     1       0.340  15.961  18.472  0.00  0.00    +0.000 C 
ATOM     18  C   UNL     1       2.014  16.027  20.312  0.00  0.00    +0.000 C 
ENDBRANCH  13  15
ENDBRANCH   1  11
BRANCH   1  21
ATOM     19  C   UNL     1      -1.085  11.325  19.396  0.00  0.00    +0.000 C 
ATOM     20  O   UNL     1      -1.815  12.231  19.786  0.00  0.00    +0.000 OA
ATOM     21  N   UNL     1       0.131  10.984  20.001  0.00  0.00    +0.000 N 
BRANCH  21  22
ATOM     22  C   UNL     1       0.899   9.841  19.610  0.00  0.00    +0.000 A 
ATOM     23  C   UNL     1       1.064   8.744  20.466  0.00  0.00    +0.000 A 
ATOM     24  C   UNL     1       1.814   7.627  20.081  0.00  0.00    +0.000 A 
ATOM     25  C   UNL     1       2.403   7.581  18.819  0.00  0.00    +0.000 A 
ATOM     26  C   UNL     1       2.246   8.664  17.952  0.00  0.00    +0.000 A 
ATOM     27  C   UNL     1       1.501   9.783  18.346  0.00  0.00    +0.000 A 
BRANCH  25  28
ATOM     28  C   UNL     1       3.153   6.428  18.421  0.00  0.00    +0.000 C 
ATOM     29  N   UNL     1       3.764   5.500  18.092  0.00  0.00    +0.000 NA
ENDBRANCH  25  28
ENDBRANCH  21  22
BRANCH  19  31
ATOM     30  C   UNL     1      -1.807  10.126  17.136  0.00  0.00    +0.000 C 
ATOM     31  C   UNL     1      -1.478  10.661  18.161  0.00  0.00    +0.000 C 
ENDBRANCH  19  31
ENDBRANCH   1  21
TORSDOF 8
ENDMDL
