MODEL 1
REMARK VINA RESULT:      -8.5      0.000      0.000
REMARK  Name = 
REMARK  7 active torsions:
REMARK  status: ('A' for Active; 'I' for Inactive)
REMARK    1  A    between atoms: C_1  and  N_2
REMARK    2  A    between atoms: C_7  and  C_8
REMARK    3  A    between atoms: C_11  and  N_12
REMARK    4  A    between atoms: N_22  and  C_23
REMARK    5  A    between atoms: C_23  and  C_24
REMARK    6  A    between atoms: C_24  and  C_25
REMARK    7  A    between atoms: C_25  and  O_26
REMARK                            x       y       z     vdW  Elec       q    Type
REMARK                         _______ _______ _______ _____ _____    ______ ____
ROOT
ATOM      1  C   UNL     1      -2.578  13.301  22.275  0.00  0.00    +0.000 C 
ATOM      2  N   UNL     1      -1.657  12.283  21.809  0.00  0.00    +0.000 N 
ATOM      3  C   UNL     1      -0.793  11.675  22.688  0.00  0.00    +0.000 A 
ATOM      4  N   UNL     1       0.071  10.779  22.360  0.00  0.00    +0.000 NA
ATOM      5  C   UNL     1       0.122  10.392  21.013  0.00  0.00    +0.000 A 
ATOM      6  C   UNL     1       1.023   9.400  20.665  0.00  0.00    +0.000 A 
ATOM      7  C   UNL     1       1.087   8.953  19.350  0.00  0.00    +0.000 A 
ATOM      8  N   UNL     1       0.265   9.452  18.388  0.00  0.00    +0.000 NA
ATOM      9  C   UNL     1      -0.625  10.423  18.727  0.00  0.00    +0.000 A 
ATOM     10  N   UNL     1      -1.508  10.862  17.765  0.00  0.00    +0.000 N 
ATOM     11  C   UNL     1      -0.695  10.933  20.035  0.00  0.00    +0.000 A 
ATOM     12  C   UNL     1      -1.635  11.999  20.448  0.00  0.00    +0.000 A 
ATOM     13  O   UNL     1      -2.318  12.617  19.635  0.00  0.00    +0.000 OA
ATOM     14  H   UNL     1      -1.585  11.872  17.670  0.00  0.00    +0.000 HD
ENDROOT
BRANCH   7  15
ATOM     15  C   UNL     1       2.081   7.938  18.948  0.00  0.00    +0.000 A 
ATOM     16  C   UNL     1       2.314   6.793  19.728  0.00  0.00    +0.000 A 
ATOM     17  C   UNL     1       3.349   5.896  19.428  0.00  0.00    +0.000 A 
ATOM     18  C   UNL     1       4.195   6.095  18.337  0.00  0.00    +0.000 A 
ATOM     19  C   UNL     1       3.915   7.198  17.521  0.00  0.00    +0.000 A 
ATOM     20  C   UNL     1       2.886   8.100  17.816  0.00  0.00    +0.000 A 
BRANCH  18  21
ATOM     21  N   UNL     1       5.248   5.254  18.057  0.00  0.00    +0.000 N 
ATOM     22  C   UNL     1       5.273   4.336  16.912  0.00  0.00    +0.000 C 
ATOM     23  C   UNL     1       6.645   4.468  16.205  0.00  0.00    +0.000 C 
ATOM     24  N   UNL     1       7.805   4.262  17.100  0.00  0.00    +0.000 NA
ATOM     25  C   UNL     1       7.695   5.161  18.268  0.00  0.00    +0.000 C 
ATOM     26  C   UNL     1       6.347   5.045  19.010  0.00  0.00    +0.000 C 
ATOM     27  H   UNL     1       8.656   4.495  16.589  0.00  0.00    +0.000 HD
ENDBRANCH  18  21
ENDBRANCH   7  15
BRANCH  10  28
ATOM     28  C   UNL     1      -1.951  10.024  16.674  0.00  0.00    +0.000 C 
BRANCH  28  29
ATOM     29  C   UNL     1      -2.718  10.836  15.638  0.00  0.00    +0.000 C 
BRANCH  29  30
ATOM     30  C   UNL     1      -4.128  11.183  16.099  0.00  0.00    +0.000 C 
BRANCH  30  31
ATOM     31  O   UNL     1      -4.079  11.960  17.289  0.00  0.00    +0.000 OA
ATOM     32  H   UNL     1      -3.234  12.456  17.254  0.00  0.00    +0.000 HD
ENDBRANCH  30  31
ENDBRANCH  29  30
ENDBRANCH  28  29
ENDBRANCH  10  28
TORSDOF 6
ENDMDL
MODEL 2
REMARK VINA RESULT:      -8.2      3.807      9.306
REMARK  Name = 
REMARK  7 active torsions:
REMARK  status: ('A' for Active; 'I' for Inactive)
REMARK    1  A    between atoms: C_1  and  N_2
REMARK    2  A    between atoms: C_7  and  C_8
REMARK    3  A    between atoms: C_11  and  N_12
REMARK    4  A    between atoms: N_22  and  C_23
REMARK    5  A    between atoms: C_23  and  C_24
REMARK    6  A    between atoms: C_24  and  C_25
REMARK    7  A    between atoms: C_25  and  O_26
REMARK                            x       y       z     vdW  Elec       q    Type
REMARK                         _______ _______ _______ _____ _____    ______ ____
ROOT
ATOM      1  C   UNL     1       6.048   3.818  15.913  0.00  0.00    +0.000 C 
ATOM      2  N   UNL     1       5.221   4.831  16.538  0.00  0.00    +0.000 N 
ATOM      3  C   UNL     1       5.100   6.076  15.969  0.00  0.00    +0.000 A 
ATOM      4  N   UNL     1       4.406   7.040  16.464  0.00  0.00    +0.000 NA
ATOM      5  C   UNL     1       3.719   6.794  17.662  0.00  0.00    +0.000 A 
ATOM      6  C   UNL     1       2.940   7.817  18.175  0.00  0.00    +0.000 A 
ATOM      7  C   UNL     1       2.208   7.613  19.340  0.00  0.00    +0.000 A 
ATOM      8  N   UNL     1       2.218   6.416  19.985  0.00  0.00    +0.000 NA
ATOM      9  C   UNL     1       2.978   5.407  19.481  0.00  0.00    +0.000 A 
ATOM     10  N   UNL     1       2.915   4.174  20.095  0.00  0.00    +0.000 N 
ATOM     11  C   UNL     1       3.765   5.582  18.330  0.00  0.00    +0.000 A 
ATOM     12  C   UNL     1       4.619   4.521  17.753  0.00  0.00    +0.000 A 
ATOM     13  O   UNL     1       4.813   3.454  18.331  0.00  0.00    +0.000 OA
ATOM     14  H   UNL     1       3.813   3.741  20.298  0.00  0.00    +0.000 HD
ENDROOT
BRANCH   7  15
ATOM     15  C   UNL     1       1.418   8.709  19.934  0.00  0.00    +0.000 A 
ATOM     16  C   UNL     1       0.939   8.634  21.253  0.00  0.00    +0.000 A 
ATOM     17  C   UNL     1       0.075   9.606  21.779  0.00  0.00    +0.000 A 
ATOM     18  C   UNL     1      -0.347  10.696  21.019  0.00  0.00    +0.000 A 
ATOM     19  C   UNL     1       0.189  10.806  19.730  0.00  0.00    +0.000 A 
ATOM     20  C   UNL     1       1.049   9.838  19.196  0.00  0.00    +0.000 A 
BRANCH  18  21
ATOM     21  N   UNL     1      -1.235  11.631  21.500  0.00  0.00    +0.000 N 
ATOM     22  C   UNL     1      -1.499  11.842  22.928  0.00  0.00    +0.000 C 
ATOM     23  C   UNL     1      -1.465  13.363  23.217  0.00  0.00    +0.000 C 
ATOM     24  N   UNL     1      -2.379  14.158  22.366  0.00  0.00    +0.000 NA
ATOM     25  C   UNL     1      -2.117  13.857  20.942  0.00  0.00    +0.000 C 
ATOM     26  C   UNL     1      -2.160  12.350  20.613  0.00  0.00    +0.000 C 
ATOM     27  H   UNL     1      -2.198  15.147  22.528  0.00  0.00    +0.000 HD
ENDBRANCH  18  21
ENDBRANCH   7  15
BRANCH  10  28
ATOM     28  C   UNL     1       1.744   3.719  20.808  0.00  0.00    +0.000 C 
BRANCH  28  29
ATOM     29  C   UNL     1       1.222   2.413  20.223  0.00  0.00    +0.000 C 
BRANCH  29  30
ATOM     30  C   UNL     1       1.244   2.410  18.699  0.00  0.00    +0.000 C 
BRANCH  30  31
ATOM     31  O   UNL     1       2.391   1.714  18.225  0.00  0.00    +0.000 OA
ATOM     32  H   UNL     1       2.773   1.260  19.006  0.00  0.00    +0.000 HD
ENDBRANCH  30  31
ENDBRANCH  29  30
ENDBRANCH  28  29
ENDBRANCH  10  28
TORSDOF 6
ENDMDL
MODEL 3
REMARK VINA RESULT:      -8.1      3.929      9.333
REMARK  Name = 
REMARK  7 active torsions:
REMARK  status: ('A' for Active; 'I' for Inactive)
REMARK    1  A    between atoms: C_1  and  N_2
REMARK    2  A    between atoms: C_7  and  C_8
REMARK    3  A    between atoms: C_11  and  N_12
REMARK    4  A    between atoms: N_22  and  C_23
REMARK    5  A    between atoms: C_23  and  C_24
REMARK    6  A    between atoms: C_24  and  C_25
REMARK    7  A    between atoms: C_25  and  O_26
REMARK                            x       y       z     vdW  Elec       q    Type
REMARK                         _______ _______ _______ _____ _____    ______ ____
ROOT
ATOM      1  C   UNL     1       6.094   3.951  15.996  0.00  0.00    +0.000 C 
ATOM      2  N   UNL     1       5.233   4.914  16.653  0.00  0.00    +0.000 N 
ATOM      3  C   UNL     1       5.069   6.172  16.125  0.00  0.00    +0.000 A 
ATOM      4  N   UNL     1       4.342   7.096  16.651  0.00  0.00    +0.000 NA
ATOM      5  C   UNL     1       3.666   6.787  17.841  0.00  0.00    +0.000 A 
ATOM      6  C   UNL     1       2.853   7.766  18.387  0.00  0.00    +0.000 A 
ATOM      7  C   UNL     1       2.130   7.499  19.545  0.00  0.00    +0.000 A 
ATOM      8  N   UNL     1       2.182   6.282  20.151  0.00  0.00    +0.000 NA
ATOM      9  C   UNL     1       2.976   5.317  19.614  0.00  0.00    +0.000 A 
ATOM     10  N   UNL     1       2.956   4.064  20.188  0.00  0.00    +0.000 N 
ATOM     11  C   UNL     1       3.754   5.557  18.469  0.00  0.00    +0.000 A 
ATOM     12  C   UNL     1       4.643   4.544  17.858  0.00  0.00    +0.000 A 
ATOM     13  O   UNL     1       4.875   3.467  18.401  0.00  0.00    +0.000 OA
ATOM     14  H   UNL     1       3.869   3.655  20.377  0.00  0.00    +0.000 HD
ENDROOT
BRANCH   7  15
ATOM     15  C   UNL     1       1.304   8.548  20.175  0.00  0.00    +0.000 A 
ATOM     16  C   UNL     1       0.836   9.650  19.440  0.00  0.00    +0.000 A 
ATOM     17  C   UNL     1       0.170  10.718  20.059  0.00  0.00    +0.000 A 
ATOM     18  C   UNL     1      -0.064  10.734  21.434  0.00  0.00    +0.000 A 
ATOM     19  C   UNL     1       0.339   9.602  22.151  0.00  0.00    +0.000 A 
ATOM     20  C   UNL     1       1.008   8.534  21.542  0.00  0.00    +0.000 A 
BRANCH  18  21
ATOM     21  N   UNL     1      -0.670  11.796  22.066  0.00  0.00    +0.000 N 
ATOM     22  C   UNL     1      -0.234  13.189  21.915  0.00  0.00    +0.000 C 
ATOM     23  C   UNL     1      -1.481  14.072  21.659  0.00  0.00    +0.000 C 
ATOM     24  N   UNL     1      -2.536  13.935  22.687  0.00  0.00    +0.000 NA
ATOM     25  C   UNL     1      -2.889  12.508  22.848  0.00  0.00    +0.000 C 
ATOM     26  C   UNL     1      -1.673  11.600  23.122  0.00  0.00    +0.000 C 
ATOM     27  H   UNL     1      -3.363  14.442  22.376  0.00  0.00    +0.000 HD
ENDBRANCH  18  21
ENDBRANCH   7  15
BRANCH  10  28
ATOM     28  C   UNL     1       1.802   3.545  20.886  0.00  0.00    +0.000 C 
BRANCH  28  29
ATOM     29  C   UNL     1       1.075   2.507  20.043  0.00  0.00    +0.000 C 
BRANCH  29  30
ATOM     30  C   UNL     1       1.523   2.525  18.586  0.00  0.00    +0.000 C 
BRANCH  30  31
ATOM     31  O   UNL     1       2.578   1.594  18.385  0.00  0.00    +0.000 OA
ATOM     32  H   UNL     1       2.971   1.814  17.514  0.00  0.00    +0.000 HD
ENDBRANCH  30  31
ENDBRANCH  29  30
ENDBRANCH  28  29
ENDBRANCH  10  28
TORSDOF 6
ENDMDL
MODEL 4
REMARK VINA RESULT:      -8.0      3.699      9.281
REMARK  Name = 
REMARK  7 active torsions:
REMARK  status: ('A' for Active; 'I' for Inactive)
REMARK    1  A    between atoms: C_1  and  N_2
REMARK    2  A    between atoms: C_7  and  C_8
REMARK    3  A    between atoms: C_11  and  N_12
REMARK    4  A    between atoms: N_22  and  C_23
REMARK    5  A    between atoms: C_23  and  C_24
REMARK    6  A    between atoms: C_24  and  C_25
REMARK    7  A    between atoms: C_25  and  O_26
REMARK                            x       y       z     vdW  Elec       q    Type
REMARK                         _______ _______ _______ _____ _____    ______ ____
ROOT
ATOM      1  C   UNL     1       6.319   3.860  16.200  0.00  0.00    +0.000 C 
ATOM      2  N   UNL     1       5.436   4.894  16.703  0.00  0.00    +0.000 N 
ATOM      3  C   UNL     1       5.339   6.100  16.052  0.00  0.00    +0.000 A 
ATOM      4  N   UNL     1       4.600   7.081  16.437  0.00  0.00    +0.000 NA
ATOM      5  C   UNL     1       3.833   6.895  17.597  0.00  0.00    +0.000 A 
ATOM      6  C   UNL     1       3.007   7.934  17.992  0.00  0.00    +0.000 A 
ATOM      7  C   UNL     1       2.198   7.787  19.114  0.00  0.00    +0.000 A 
ATOM      8  N   UNL     1       2.179   6.632  19.830  0.00  0.00    +0.000 NA
ATOM      9  C   UNL     1       2.985   5.607  19.442  0.00  0.00    +0.000 A 
ATOM     10  N   UNL     1       2.896   4.413  20.125  0.00  0.00    +0.000 N 
ATOM     11  C   UNL     1       3.849   5.727  18.340  0.00  0.00    +0.000 A 
ATOM     12  C   UNL     1       4.755   4.647  17.890  0.00  0.00    +0.000 A 
ATOM     13  O   UNL     1       4.922   3.621  18.544  0.00  0.00    +0.000 OA
ATOM     14  H   UNL     1       3.783   4.009  20.416  0.00  0.00    +0.000 HD
ENDROOT
BRANCH   7  15
ATOM     15  C   UNL     1       1.355   8.904  19.584  0.00  0.00    +0.000 A 
ATOM     16  C   UNL     1       0.803   8.910  20.876  0.00  0.00    +0.000 A 
ATOM     17  C   UNL     1      -0.109   9.895  21.282  0.00  0.00    +0.000 A 
ATOM     18  C   UNL     1      -0.509  10.919  20.424  0.00  0.00    +0.000 A 
ATOM     19  C   UNL     1       0.097  10.950  19.162  0.00  0.00    +0.000 A 
ATOM     20  C   UNL     1       1.005   9.969  18.748  0.00  0.00    +0.000 A 
BRANCH  18  21
ATOM     21  N   UNL     1      -1.441  11.864  20.787  0.00  0.00    +0.000 N 
ATOM     22  C   UNL     1      -2.259  12.612  19.825  0.00  0.00    +0.000 C 
ATOM     23  C   UNL     1      -3.730  12.594  20.311  0.00  0.00    +0.000 C 
ATOM     24  N   UNL     1      -3.914  13.092  21.692  0.00  0.00    +0.000 NA
ATOM     25  C   UNL     1      -3.018  12.354  22.608  0.00  0.00    +0.000 C 
ATOM     26  C   UNL     1      -1.540  12.364  22.165  0.00  0.00    +0.000 C 
ATOM     27  H   UNL     1      -4.878  12.924  21.974  0.00  0.00    +0.000 HD
ENDBRANCH  18  21
ENDBRANCH   7  15
BRANCH  10  28
ATOM     28  C   UNL     1       1.684   3.981  20.783  0.00  0.00    +0.000 C 
BRANCH  28  29
ATOM     29  C   UNL     1       1.021   2.846  20.014  0.00  0.00    +0.000 C 
BRANCH  29  30
ATOM     30  C   UNL     1       1.558   2.715  18.593  0.00  0.00    +0.000 C 
BRANCH  30  31
ATOM     31  O   UNL     1       2.579   1.727  18.543  0.00  0.00    +0.000 OA
ATOM     32  H   UNL     1       2.247   0.968  19.068  0.00  0.00    +0.000 HD
ENDBRANCH  30  31
ENDBRANCH  29  30
ENDBRANCH  28  29
ENDBRANCH  10  28
TORSDOF 6
ENDMDL
MODEL 5
REMARK VINA RESULT:      -7.9      3.397      9.231
REMARK  Name = 
REMARK  7 active torsions:
REMARK  status: ('A' for Active; 'I' for Inactive)
REMARK    1  A    between atoms: C_1  and  N_2
REMARK    2  A    between atoms: C_7  and  C_8
REMARK    3  A    between atoms: C_11  and  N_12
REMARK    4  A    between atoms: N_22  and  C_23
REMARK    5  A    between atoms: C_23  and  C_24
REMARK    6  A    between atoms: C_24  and  C_25
REMARK    7  A    between atoms: C_25  and  O_26
REMARK                            x       y       z     vdW  Elec       q    Type
REMARK                         _______ _______ _______ _____ _____    ______ ____
ROOT
ATOM      1  C   UNL     1       6.408   3.740  15.108  0.00  0.00    +0.000 C 
ATOM      2  N   UNL     1       5.595   4.732  15.784  0.00  0.00    +0.000 N 
ATOM      3  C   UNL     1       5.739   6.066  15.488  0.00  0.00    +0.000 A 
ATOM      4  N   UNL     1       5.076   7.014  16.052  0.00  0.00    +0.000 NA
ATOM      5  C   UNL     1       4.136   6.654  17.029  0.00  0.00    +0.000 A 
ATOM      6  C   UNL     1       3.394   7.669  17.609  0.00  0.00    +0.000 A 
ATOM      7  C   UNL     1       2.422   7.363  18.555  0.00  0.00    +0.000 A 
ATOM      8  N   UNL     1       2.160   6.078  18.915  0.00  0.00    +0.000 NA
ATOM      9  C   UNL     1       2.884   5.077  18.344  0.00  0.00    +0.000 A 
ATOM     10  N   UNL     1       2.554   3.776  18.654  0.00  0.00    +0.000 N 
ATOM     11  C   UNL     1       3.903   5.345  17.414  0.00  0.00    +0.000 A 
ATOM     12  C   UNL     1       4.726   4.293  16.778  0.00  0.00    +0.000 A 
ATOM     13  O   UNL     1       4.673   3.118  17.134  0.00  0.00    +0.000 OA
ATOM     14  H   UNL     1       3.335   3.176  18.911  0.00  0.00    +0.000 HD
ENDROOT
BRANCH   7  15
ATOM     15  C   UNL     1       1.662   8.435  19.227  0.00  0.00    +0.000 A 
ATOM     16  C   UNL     1       1.442   8.417  20.615  0.00  0.00    +0.000 A 
ATOM     17  C   UNL     1       0.607   9.354  21.240  0.00  0.00    +0.000 A 
ATOM     18  C   UNL     1      -0.042  10.353  20.515  0.00  0.00    +0.000 A 
ATOM     19  C   UNL     1       0.236  10.412  19.144  0.00  0.00    +0.000 A 
ATOM     20  C   UNL     1       1.065   9.478  18.511  0.00  0.00    +0.000 A 
BRANCH  18  21
ATOM     21  N   UNL     1      -0.905  11.249  21.103  0.00  0.00    +0.000 N 
ATOM     22  C   UNL     1      -1.133  11.327  22.551  0.00  0.00    +0.000 C 
ATOM     23  C   UNL     1      -1.071  12.814  22.980  0.00  0.00    +0.000 C 
ATOM     24  N   UNL     1      -1.992  13.696  22.230  0.00  0.00    +0.000 NA
ATOM     25  C   UNL     1      -1.767  13.528  20.779  0.00  0.00    +0.000 C 
ATOM     26  C   UNL     1      -1.840  12.059  20.311  0.00  0.00    +0.000 C 
ATOM     27  H   UNL     1      -1.793  14.664  22.480  0.00  0.00    +0.000 HD
ENDBRANCH  18  21
ENDBRANCH   7  15
BRANCH  10  28
ATOM     28  C   UNL     1       1.217   3.381  19.035  0.00  0.00    +0.000 C 
BRANCH  28  29
ATOM     29  C   UNL     1       1.222   2.667  20.380  0.00  0.00    +0.000 C 
BRANCH  29  30
ATOM     30  C   UNL     1       2.345   3.148  21.290  0.00  0.00    +0.000 C 
BRANCH  30  31
ATOM     31  O   UNL     1       2.170   4.524  21.602  0.00  0.00    +0.000 OA
ATOM     32  H   UNL     1       2.186   4.584  22.581  0.00  0.00    +0.000 HD
ENDBRANCH  30  31
ENDBRANCH  29  30
ENDBRANCH  28  29
ENDBRANCH  10  28
TORSDOF 6
ENDMDL
MODEL 6
REMARK VINA RESULT:      -7.9      0.960      1.007
REMARK  Name = 
REMARK  7 active torsions:
REMARK  status: ('A' for Active; 'I' for Inactive)
REMARK    1  A    between atoms: C_1  and  N_2
REMARK    2  A    between atoms: C_7  and  C_8
REMARK    3  A    between atoms: C_11  and  N_12
REMARK    4  A    between atoms: N_22  and  C_23
REMARK    5  A    between atoms: C_23  and  C_24
REMARK    6  A    between atoms: C_24  and  C_25
REMARK    7  A    between atoms: C_25  and  O_26
REMARK                            x       y       z     vdW  Elec       q    Type
REMARK                         _______ _______ _______ _____ _____    ______ ____
ROOT
ATOM      1  C   UNL     1      -2.450  12.344  23.399  0.00  0.00    +0.000 C 
ATOM      2  N   UNL     1      -1.562  11.408  22.738  0.00  0.00    +0.000 N 
ATOM      3  C   UNL     1      -0.895  10.453  23.465  0.00  0.00    +0.000 A 
ATOM      4  N   UNL     1      -0.073   9.596  22.966  0.00  0.00    +0.000 NA
ATOM      5  C   UNL     1       0.143   9.639  21.581  0.00  0.00    +0.000 A 
ATOM      6  C   UNL     1       0.995   8.694  21.037  0.00  0.00    +0.000 A 
ATOM      7  C   UNL     1       1.215   8.668  19.664  0.00  0.00    +0.000 A 
ATOM      8  N   UNL     1       0.592   9.542  18.828  0.00  0.00    +0.000 NA
ATOM      9  C   UNL     1      -0.250  10.469  19.359  0.00  0.00    +0.000 A 
ATOM     10  N   UNL     1      -0.939  11.293  18.495  0.00  0.00    +0.000 N 
ATOM     11  C   UNL     1      -0.469  10.556  20.744  0.00  0.00    +0.000 A 
ATOM     12  C   UNL     1      -1.363  11.556  21.369  0.00  0.00    +0.000 A 
ATOM     13  O   UNL     1      -1.861  12.478  20.727  0.00  0.00    +0.000 OA
ATOM     14  H   UNL     1      -0.912  12.285  18.723  0.00  0.00    +0.000 HD
ENDROOT
BRANCH   7  15
ATOM     15  C   UNL     1       2.165   7.706  19.071  0.00  0.00    +0.000 A 
ATOM     16  C   UNL     1       2.439   6.474  19.689  0.00  0.00    +0.000 A 
ATOM     17  C   UNL     1       3.439   5.616  19.208  0.00  0.00    +0.000 A 
ATOM     18  C   UNL     1       4.208   5.943  18.091  0.00  0.00    +0.000 A 
ATOM     19  C   UNL     1       3.883   7.137  17.437  0.00  0.00    +0.000 A 
ATOM     20  C   UNL     1       2.889   8.001  17.912  0.00  0.00    +0.000 A 
BRANCH  18  21
ATOM     21  N   UNL     1       5.227   5.139  17.637  0.00  0.00    +0.000 N 
ATOM     22  C   UNL     1       5.305   4.622  16.265  0.00  0.00    +0.000 C 
ATOM     23  C   UNL     1       6.745   4.842  15.737  0.00  0.00    +0.000 C 
ATOM     24  N   UNL     1       7.798   4.265  16.602  0.00  0.00    +0.000 NA
ATOM     25  C   UNL     1       7.632   4.764  17.984  0.00  0.00    +0.000 C 
ATOM     26  C   UNL     1       6.213   4.546  18.551  0.00  0.00    +0.000 C 
ATOM     27  H   UNL     1       8.707   4.566  16.255  0.00  0.00    +0.000 HD
ENDBRANCH  18  21
ENDBRANCH   7  15
BRANCH  10  28
ATOM     28  C   UNL     1      -1.286  10.896  17.150  0.00  0.00    +0.000 C 
BRANCH  28  29
ATOM     29  C   UNL     1      -2.696  10.323  17.097  0.00  0.00    +0.000 C 
BRANCH  29  30
ATOM     30  C   UNL     1      -3.165  10.066  15.670  0.00  0.00    +0.000 C 
BRANCH  30  31
ATOM     31  O   UNL     1      -3.394  11.298  14.997  0.00  0.00    +0.000 OA
ATOM     32  H   UNL     1      -2.943  11.986  15.531  0.00  0.00    +0.000 HD
ENDBRANCH  30  31
ENDBRANCH  29  30
ENDBRANCH  28  29
ENDBRANCH  10  28
TORSDOF 6
ENDMDL
MODEL 7
REMARK VINA RESULT:      -7.8      1.574      2.488
REMARK  Name = 
REMARK  7 active torsions:
REMARK  status: ('A' for Active; 'I' for Inactive)
REMARK    1  A    between atoms: C_1  and  N_2
REMARK    2  A    between atoms: C_7  and  C_8
REMARK    3  A    between atoms: C_11  and  N_12
REMARK    4  A    between atoms: N_22  and  C_23
REMARK    5  A    between atoms: C_23  and  C_24
REMARK    6  A    between atoms: C_24  and  C_25
REMARK    7  A    between atoms: C_25  and  O_26
REMARK                            x       y       z     vdW  Elec       q    Type
REMARK                         _______ _______ _______ _____ _____    ______ ____
ROOT
ATOM      1  C   UNL     1      -3.246  15.120  22.954  0.00  0.00    +0.000 C 
ATOM      2  N   UNL     1      -2.386  14.062  22.462  0.00  0.00    +0.000 N 
ATOM      3  C   UNL     1      -1.299  13.655  23.196  0.00  0.00    +0.000 A 
ATOM      4  N   UNL     1      -0.471  12.740  22.829  0.00  0.00    +0.000 NA
ATOM      5  C   UNL     1      -0.707  12.111  21.597  0.00  0.00    +0.000 A 
ATOM      6  C   UNL     1       0.159  11.100  21.218  0.00  0.00    +0.000 A 
ATOM      7  C   UNL     1      -0.052  10.418  20.025  0.00  0.00    +0.000 A 
ATOM      8  N   UNL     1      -1.110  10.705  19.220  0.00  0.00    +0.000 NA
ATOM      9  C   UNL     1      -1.966  11.695  19.591  0.00  0.00    +0.000 A 
ATOM     10  N   UNL     1      -3.079  11.920  18.811  0.00  0.00    +0.000 N 
ATOM     11  C   UNL     1      -1.767  12.436  20.768  0.00  0.00    +0.000 A 
ATOM     12  C   UNL     1      -2.661  13.531  21.206  0.00  0.00    +0.000 A 
ATOM     13  O   UNL     1      -3.558  13.967  20.489  0.00  0.00    +0.000 OA
ATOM     14  H   UNL     1      -3.251  12.892  18.565  0.00  0.00    +0.000 HD
ENDROOT
BRANCH   7  15
ATOM     15  C   UNL     1       0.893   9.377  19.575  0.00  0.00    +0.000 A 
ATOM     16  C   UNL     1       1.332   9.314  18.242  0.00  0.00    +0.000 A 
ATOM     17  C   UNL     1       2.119   8.251  17.776  0.00  0.00    +0.000 A 
ATOM     18  C   UNL     1       2.507   7.206  18.615  0.00  0.00    +0.000 A 
ATOM     19  C   UNL     1       2.128   7.309  19.958  0.00  0.00    +0.000 A 
ATOM     20  C   UNL     1       1.340   8.365  20.431  0.00  0.00    +0.000 A 
BRANCH  18  21
ATOM     21  N   UNL     1       3.235   6.130  18.163  0.00  0.00    +0.000 N 
ATOM     22  C   UNL     1       4.624   6.224  17.698  0.00  0.00    +0.000 C 
ATOM     23  C   UNL     1       5.441   5.081  18.350  0.00  0.00    +0.000 C 
ATOM     24  N   UNL     1       4.876   3.732  18.123  0.00  0.00    +0.000 NA
ATOM     25  C   UNL     1       3.459   3.711  18.544  0.00  0.00    +0.000 C 
ATOM     26  C   UNL     1       2.609   4.826  17.900  0.00  0.00    +0.000 C 
ATOM     27  H   UNL     1       5.394   3.062  18.689  0.00  0.00    +0.000 HD
ENDBRANCH  18  21
ENDBRANCH   7  15
BRANCH  10  28
ATOM     28  C   UNL     1      -3.701  10.881  18.022  0.00  0.00    +0.000 C 
BRANCH  28  29
ATOM     29  C   UNL     1      -4.017  11.378  16.618  0.00  0.00    +0.000 C 
BRANCH  29  30
ATOM     30  C   UNL     1      -2.938  10.998  15.611  0.00  0.00    +0.000 C 
BRANCH  30  31
ATOM     31  O   UNL     1      -1.805  10.462  16.282  0.00  0.00    +0.000 OA
ATOM     32  H   UNL     1      -2.115  10.211  17.178  0.00  0.00    +0.000 HD
ENDBRANCH  30  31
ENDBRANCH  29  30
ENDBRANCH  28  29
ENDBRANCH  10  28
TORSDOF 6
ENDMDL
MODEL 8
REMARK VINA RESULT:      -7.8      3.929      9.294
REMARK  Name = 
REMARK  7 active torsions:
REMARK  status: ('A' for Active; 'I' for Inactive)
REMARK    1  A    between atoms: C_1  and  N_2
REMARK    2  A    between atoms: C_7  and  C_8
REMARK    3  A    between atoms: C_11  and  N_12
REMARK    4  A    between atoms: N_22  and  C_23
REMARK    5  A    between atoms: C_23  and  C_24
REMARK    6  A    between atoms: C_24  and  C_25
REMARK    7  A    between atoms: C_25  and  O_26
REMARK                            x       y       z     vdW  Elec       q    Type
REMARK                         _______ _______ _______ _____ _____    ______ ____
ROOT
ATOM      1  C   UNL     1       3.755   0.938  18.885  0.00  0.00    +0.000 C 
ATOM      2  N   UNL     1       3.261   2.252  19.248  0.00  0.00    +0.000 N 
ATOM      3  C   UNL     1       2.356   2.395  20.271  0.00  0.00    +0.000 A 
ATOM      4  N   UNL     1       1.849   3.518  20.646  0.00  0.00    +0.000 NA
ATOM      5  C   UNL     1       2.263   4.673  19.966  0.00  0.00    +0.000 A 
ATOM      6  C   UNL     1       1.750   5.885  20.394  0.00  0.00    +0.000 A 
ATOM      7  C   UNL     1       2.156   7.065  19.779  0.00  0.00    +0.000 A 
ATOM      8  N   UNL     1       3.070   7.063  18.772  0.00  0.00    +0.000 NA
ATOM      9  C   UNL     1       3.580   5.874  18.353  0.00  0.00    +0.000 A 
ATOM     10  N   UNL     1       4.566   5.891  17.390  0.00  0.00    +0.000 N 
ATOM     11  C   UNL     1       3.167   4.656  18.918  0.00  0.00    +0.000 A 
ATOM     12  C   UNL     1       3.681   3.337  18.486  0.00  0.00    +0.000 A 
ATOM     13  O   UNL     1       4.397   3.209  17.495  0.00  0.00    +0.000 OA
ATOM     14  H   UNL     1       4.428   5.251  16.611  0.00  0.00    +0.000 HD
ENDROOT
BRANCH   7  15
ATOM     15  C   UNL     1       1.576   8.361  20.181  0.00  0.00    +0.000 A 
ATOM     16  C   UNL     1       1.233   8.626  21.518  0.00  0.00    +0.000 A 
ATOM     17  C   UNL     1       0.558   9.799  21.886  0.00  0.00    +0.000 A 
ATOM     18  C   UNL     1       0.196  10.761  20.943  0.00  0.00    +0.000 A 
ATOM     19  C   UNL     1       0.602  10.527  19.623  0.00  0.00    +0.000 A 
ATOM     20  C   UNL     1       1.274   9.358  19.247  0.00  0.00    +0.000 A 
BRANCH  18  21
ATOM     21  N   UNL     1      -0.512  11.892  21.277  0.00  0.00    +0.000 N 
ATOM     22  C   UNL     1      -1.515  11.936  22.348  0.00  0.00    +0.000 C 
ATOM     23  C   UNL     1      -1.257  13.195  23.213  0.00  0.00    +0.000 C 
ATOM     24  N   UNL     1      -1.221  14.458  22.442  0.00  0.00    +0.000 NA
ATOM     25  C   UNL     1      -0.246  14.335  21.337  0.00  0.00    +0.000 C 
ATOM     26  C   UNL     1      -0.483  13.100  20.442  0.00  0.00    +0.000 C 
ATOM     27  H   UNL     1      -0.918  15.209  23.061  0.00  0.00    +0.000 HD
ENDBRANCH  18  21
ENDBRANCH   7  15
BRANCH  10  28
ATOM     28  C   UNL     1       5.475   7.003  17.226  0.00  0.00    +0.000 C 
BRANCH  28  29
ATOM     29  C   UNL     1       6.918   6.523  17.157  0.00  0.00    +0.000 C 
BRANCH  29  30
ATOM     30  C   UNL     1       7.304   5.669  18.359  0.00  0.00    +0.000 C 
BRANCH  30  31
ATOM     31  O   UNL     1       7.070   4.294  18.081  0.00  0.00    +0.000 OA
ATOM     32  H   UNL     1       7.695   4.053  17.365  0.00  0.00    +0.000 HD
ENDBRANCH  30  31
ENDBRANCH  29  30
ENDBRANCH  28  29
ENDBRANCH  10  28
TORSDOF 6
ENDMDL
MODEL 9
REMARK VINA RESULT:      -7.8      3.727      9.214
REMARK  Name = 
REMARK  7 active torsions:
REMARK  status: ('A' for Active; 'I' for Inactive)
REMARK    1  A    between atoms: C_1  and  N_2
REMARK    2  A    between atoms: C_7  and  C_8
REMARK    3  A    between atoms: C_11  and  N_12
REMARK    4  A    between atoms: N_22  and  C_23
REMARK    5  A    between atoms: C_23  and  C_24
REMARK    6  A    between atoms: C_24  and  C_25
REMARK    7  A    between atoms: C_25  and  O_26
REMARK                            x       y       z     vdW  Elec       q    Type
REMARK                         _______ _______ _______ _____ _____    ______ ____
ROOT
ATOM      1  C   UNL     1       6.171   3.819  16.012  0.00  0.00    +0.000 C 
ATOM      2  N   UNL     1       5.331   4.872  16.548  0.00  0.00    +0.000 N 
ATOM      3  C   UNL     1       5.250   6.086  15.910  0.00  0.00    +0.000 A 
ATOM      4  N   UNL     1       4.548   7.083  16.324  0.00  0.00    +0.000 NA
ATOM      5  C   UNL     1       3.809   6.907  17.504  0.00  0.00    +0.000 A 
ATOM      6  C   UNL     1       3.023   7.965  17.930  0.00  0.00    +0.000 A 
ATOM      7  C   UNL     1       2.242   7.830  19.073  0.00  0.00    +0.000 A 
ATOM      8  N   UNL     1       2.210   6.669  19.780  0.00  0.00    +0.000 NA
ATOM      9  C   UNL     1       2.978   5.626  19.361  0.00  0.00    +0.000 A 
ATOM     10  N   UNL     1       2.874   4.429  20.036  0.00  0.00    +0.000 N 
ATOM     11  C   UNL     1       3.813   5.732  18.236  0.00  0.00    +0.000 A 
ATOM     12  C   UNL     1       4.676   4.633  17.751  0.00  0.00    +0.000 A 
ATOM     13  O   UNL     1       4.833   3.596  18.392  0.00  0.00    +0.000 OA
ATOM     14  H   UNL     1       3.758   3.998  20.299  0.00  0.00    +0.000 HD
ENDROOT
BRANCH   7  15
ATOM     15  C   UNL     1       1.443   8.964  19.575  0.00  0.00    +0.000 A 
ATOM     16  C   UNL     1       1.196  10.096  18.779  0.00  0.00    +0.000 A 
ATOM     17  C   UNL     1       0.557  11.233  19.294  0.00  0.00    +0.000 A 
ATOM     18  C   UNL     1       0.132  11.295  20.621  0.00  0.00    +0.000 A 
ATOM     19  C   UNL     1       0.315  10.140  21.391  0.00  0.00    +0.000 A 
ATOM     20  C   UNL     1       0.955   9.002  20.886  0.00  0.00    +0.000 A 
BRANCH  18  21
ATOM     21  N   UNL     1      -0.450  12.420  21.157  0.00  0.00    +0.000 N 
ATOM     22  C   UNL     1      -1.652  12.393  21.998  0.00  0.00    +0.000 C 
ATOM     23  C   UNL     1      -1.406  13.289  23.238  0.00  0.00    +0.000 C 
ATOM     24  N   UNL     1      -0.999  14.673  22.909  0.00  0.00    +0.000 NA
ATOM     25  C   UNL     1       0.172  14.642  22.006  0.00  0.00    +0.000 C 
ATOM     26  C   UNL     1      -0.042  13.772  20.749  0.00  0.00    +0.000 C 
ATOM     27  H   UNL     1      -0.733  15.148  23.770  0.00  0.00    +0.000 HD
ENDBRANCH  18  21
ENDBRANCH   7  15
BRANCH  10  28
ATOM     28  C   UNL     1       1.669   4.024  20.723  0.00  0.00    +0.000 C 
BRANCH  28  29
ATOM     29  C   UNL     1       1.251   2.619  20.310  0.00  0.00    +0.000 C 
BRANCH  29  30
ATOM     30  C   UNL     1       0.924   2.524  18.824  0.00  0.00    +0.000 C 
BRANCH  30  31
ATOM     31  O   UNL     1       2.113   2.319  18.071  0.00  0.00    +0.000 OA
ATOM     32  H   UNL     1       2.489   1.470  18.385  0.00  0.00    +0.000 HD
ENDBRANCH  30  31
ENDBRANCH  29  30
ENDBRANCH  28  29
ENDBRANCH  10  28
TORSDOF 6
ENDMDL
