MODEL 1
REMARK VINA RESULT:      -8.3      0.000      0.000
REMARK  Name = 
REMARK  7 active torsions:
REMARK  status: ('A' for Active; 'I' for Inactive)
REMARK    1  A    between atoms: C_1  and  O_2
REMARK    2  A    between atoms: O_2  and  C_3
REMARK    3  A    between atoms: C_6  and  C_7
REMARK    4  A    between atoms: C_9  and  C_10
REMARK    5  A    between atoms: C_17  and  C_18
REMARK    6  A    between atoms: C_28  and  O_29
REMARK    7  A    between atoms: O_29  and  C_30
REMARK                            x       y       z     vdW  Elec       q    Type
REMARK                         _______ _______ _______ _____ _____    ______ ____
ROOT
ATOM      1  C   UNL     1       0.835   9.387  20.949  0.00  0.00    +0.000 A 
ATOM      2  N   UNL     1       1.213   8.922  22.185  0.00  0.00    +0.000 NA
ATOM      3  N   UNL     1       0.533   9.595  23.110  0.00  0.00    +0.000 NA
ATOM      4  N   UNL     1      -0.249  10.465  22.459  0.00  0.00    +0.000 N 
ATOM      5  C   UNL     1      -0.116  10.372  21.108  0.00  0.00    +0.000 A 
ATOM      6  C   UNL     1      -0.921  11.199  20.189  0.00  0.00    +0.000 C 
ATOM      7  O   UNL     1      -1.552  12.263  20.926  0.00  0.00    +0.000 OA
ATOM      8  C   UNL     1      -2.200  11.814  22.133  0.00  0.00    +0.000 C 
ATOM      9  C   UNL     1      -1.126  11.392  23.136  0.00  0.00    +0.000 C 
ENDROOT
BRANCH   8  10
ATOM     10  C   UNL     1      -3.083  12.920  22.681  0.00  0.00    +0.000 A 
ATOM     11  C   UNL     1      -4.475  12.863  22.495  0.00  0.00    +0.000 A 
ATOM     12  C   UNL     1      -5.300  13.890  22.967  0.00  0.00    +0.000 A 
ATOM     13  C   UNL     1      -4.741  14.978  23.634  0.00  0.00    +0.000 A 
ATOM     14 CL   UNL     1      -5.752  16.252  24.191  0.00  0.00    +0.000 Cl
ATOM     15  C   UNL     1      -3.367  15.039  23.847  0.00  0.00    +0.000 A 
ATOM     16  C   UNL     1      -2.543  14.013  23.377  0.00  0.00    +0.000 A 
ENDBRANCH   8  10
BRANCH   1  19
ATOM     17  C   UNL     1       2.504   7.552  18.499  0.00  0.00    +0.000 A 
ATOM     18  N   UNL     1       2.267   7.787  19.770  0.00  0.00    +0.000 NA
ATOM     19  C   UNL     1       1.414   8.861  19.718  0.00  0.00    +0.000 A 
ATOM     20  N   UNL     1       1.166   9.323  18.485  0.00  0.00    +0.000 NA
ATOM     21  O   UNL     1       1.892   8.452  17.669  0.00  0.00    +0.000 OA
BRANCH  17  25
ATOM     22  C   UNL     1       4.767   4.457  16.593  0.00  0.00    +0.000 A 
ATOM     23  C   UNL     1       5.190   5.784  16.532  0.00  0.00    +0.000 A 
ATOM     24  C   UNL     1       4.446   6.791  17.153  0.00  0.00    +0.000 A 
ATOM     25  C   UNL     1       3.268   6.488  17.854  0.00  0.00    +0.000 A 
ATOM     26  C   UNL     1       2.840   5.143  17.914  0.00  0.00    +0.000 A 
ATOM     27  C   UNL     1       3.591   4.145  17.275  0.00  0.00    +0.000 A 
BRANCH  22  29
ATOM     28  C   UNL     1       6.180   3.996  14.737  0.00  0.00    +0.000 C 
ATOM     29  O   UNL     1       5.582   3.563  15.955  0.00  0.00    +0.000 OA
ENDBRANCH  22  29
BRANCH  26  30
ATOM     30  O   UNL     1       1.675   4.893  18.595  0.00  0.00    +0.000 OA
ATOM     31  C   UNL     1       1.732   4.064  19.748  0.00  0.00    +0.000 C 
ENDBRANCH  26  30
ENDBRANCH  17  25
ENDBRANCH   1  19
TORSDOF 5
ENDMDL
MODEL 2
REMARK VINA RESULT:      -7.8      1.772      2.395
REMARK  Name = 
REMARK  7 active torsions:
REMARK  status: ('A' for Active; 'I' for Inactive)
REMARK    1  A    between atoms: C_1  and  O_2
REMARK    2  A    between atoms: O_2  and  C_3
REMARK    3  A    between atoms: C_6  and  C_7
REMARK    4  A    between atoms: C_9  and  C_10
REMARK    5  A    between atoms: C_17  and  C_18
REMARK    6  A    between atoms: C_28  and  O_29
REMARK    7  A    between atoms: O_29  and  C_30
REMARK                            x       y       z     vdW  Elec       q    Type
REMARK                         _______ _______ _______ _____ _____    ______ ____
ROOT
ATOM      1  C   UNL     1       0.737   9.536  19.175  0.00  0.00    +0.000 A 
ATOM      2  N   UNL     1       0.107  10.009  18.049  0.00  0.00    +0.000 NA
ATOM      3  N   UNL     1      -0.614  11.073  18.391  0.00  0.00    +0.000 NA
ATOM      4  N   UNL     1      -0.438  11.255  19.705  0.00  0.00    +0.000 N 
ATOM      5  C   UNL     1       0.406  10.335  20.248  0.00  0.00    +0.000 A 
ATOM      6  C   UNL     1       0.786  10.375  21.673  0.00  0.00    +0.000 C 
ATOM      7  O   UNL     1      -0.095  11.266  22.382  0.00  0.00    +0.000 OA
ATOM      8  C   UNL     1      -0.274  12.535  21.721  0.00  0.00    +0.000 C 
ATOM      9  C   UNL     1      -1.086  12.312  20.446  0.00  0.00    +0.000 C 
ENDROOT
BRANCH   8  10
ATOM     10  C   UNL     1      -0.955  13.510  22.664  0.00  0.00    +0.000 A 
ATOM     11  C   UNL     1      -0.371  14.762  22.921  0.00  0.00    +0.000 A 
ATOM     12  C   UNL     1      -0.970  15.659  23.812  0.00  0.00    +0.000 A 
ATOM     13  C   UNL     1      -2.163  15.315  24.446  0.00  0.00    +0.000 A 
ATOM     14 CL   UNL     1      -2.886  16.408  25.559  0.00  0.00    +0.000 Cl
ATOM     15  C   UNL     1      -2.767  14.089  24.185  0.00  0.00    +0.000 A 
ATOM     16  C   UNL     1      -2.168  13.194  23.295  0.00  0.00    +0.000 A 
ENDBRANCH   8  10
BRANCH   1  19
ATOM     17  C   UNL     1       2.861   6.912  18.305  0.00  0.00    +0.000 A 
ATOM     18  N   UNL     1       2.078   7.901  17.939  0.00  0.00    +0.000 NA
ATOM     19  C   UNL     1       1.597   8.358  19.140  0.00  0.00    +0.000 A 
ATOM     20  N   UNL     1       2.004   7.663  20.210  0.00  0.00    +0.000 NA
ATOM     21  O   UNL     1       2.848   6.696  19.657  0.00  0.00    +0.000 OA
BRANCH  17  25
ATOM     22  C   UNL     1       5.472   4.431  15.989  0.00  0.00    +0.000 A 
ATOM     23  C   UNL     1       5.677   5.809  16.056  0.00  0.00    +0.000 A 
ATOM     24  C   UNL     1       4.820   6.614  16.810  0.00  0.00    +0.000 A 
ATOM     25  C   UNL     1       3.745   6.055  17.519  0.00  0.00    +0.000 A 
ATOM     26  C   UNL     1       3.538   4.660  17.450  0.00  0.00    +0.000 A 
ATOM     27  C   UNL     1       4.400   3.866  16.678  0.00  0.00    +0.000 A 
BRANCH  22  29
ATOM     28  C   UNL     1       6.274   3.899  13.815  0.00  0.00    +0.000 C 
ATOM     29  O   UNL     1       6.381   3.750  15.227  0.00  0.00    +0.000 OA
ENDBRANCH  22  29
BRANCH  26  30
ATOM     30  O   UNL     1       2.466   4.158  18.144  0.00  0.00    +0.000 OA
ATOM     31  C   UNL     1       2.707   3.160  19.128  0.00  0.00    +0.000 C 
ENDBRANCH  26  30
ENDBRANCH  17  25
ENDBRANCH   1  19
TORSDOF 5
ENDMDL
MODEL 3
REMARK VINA RESULT:      -7.8      1.157      1.172
REMARK  Name = 
REMARK  7 active torsions:
REMARK  status: ('A' for Active; 'I' for Inactive)
REMARK    1  A    between atoms: C_1  and  O_2
REMARK    2  A    between atoms: O_2  and  C_3
REMARK    3  A    between atoms: C_6  and  C_7
REMARK    4  A    between atoms: C_9  and  C_10
REMARK    5  A    between atoms: C_17  and  C_18
REMARK    6  A    between atoms: C_28  and  O_29
REMARK    7  A    between atoms: O_29  and  C_30
REMARK                            x       y       z     vdW  Elec       q    Type
REMARK                         _______ _______ _______ _____ _____    ______ ____
ROOT
ATOM      1  C   UNL     1       0.612   9.264  20.577  0.00  0.00    +0.000 A 
ATOM      2  N   UNL     1       0.274   8.383  21.576  0.00  0.00    +0.000 NA
ATOM      3  N   UNL     1      -0.416   9.046  22.500  0.00  0.00    +0.000 NA
ATOM      4  N   UNL     1      -0.501  10.315  22.085  0.00  0.00    +0.000 N 
ATOM      5  C   UNL     1       0.110  10.511  20.884  0.00  0.00    +0.000 A 
ATOM      6  C   UNL     1       0.096  11.823  20.210  0.00  0.00    +0.000 C 
ATOM      7  O   UNL     1      -0.335  12.836  21.137  0.00  0.00    +0.000 OA
ATOM      8  C   UNL     1      -1.522  12.470  21.870  0.00  0.00    +0.000 C 
ATOM      9  C   UNL     1      -1.166  11.348  22.845  0.00  0.00    +0.000 C 
ENDROOT
BRANCH   8  10
ATOM     10  C   UNL     1      -2.076  13.688  22.586  0.00  0.00    +0.000 A 
ATOM     11  C   UNL     1      -2.667  14.727  21.847  0.00  0.00    +0.000 A 
ATOM     12  C   UNL     1      -3.155  15.871  22.488  0.00  0.00    +0.000 A 
ATOM     13  C   UNL     1      -3.063  15.981  23.874  0.00  0.00    +0.000 A 
ATOM     14 CL   UNL     1      -3.640  17.397  24.660  0.00  0.00    +0.000 Cl
ATOM     15  C   UNL     1      -2.502  14.951  24.624  0.00  0.00    +0.000 A 
ATOM     16  C   UNL     1      -2.016  13.809  23.983  0.00  0.00    +0.000 A 
ENDBRANCH   8  10
BRANCH   1  19
ATOM     17  C   UNL     1       2.663   7.641  18.273  0.00  0.00    +0.000 A 
ATOM     18  N   UNL     1       2.209   7.751  19.501  0.00  0.00    +0.000 NA
ATOM     19  C   UNL     1       1.393   8.851  19.416  0.00  0.00    +0.000 A 
ATOM     20  N   UNL     1       1.372   9.445  18.216  0.00  0.00    +0.000 NA
ATOM     21  O   UNL     1       2.219   8.641  17.450  0.00  0.00    +0.000 OA
BRANCH  17  25
ATOM     22  C   UNL     1       5.183   4.691  16.460  0.00  0.00    +0.000 A 
ATOM     23  C   UNL     1       5.486   6.047  16.349  0.00  0.00    +0.000 A 
ATOM     24  C   UNL     1       4.659   7.006  16.940  0.00  0.00    +0.000 A 
ATOM     25  C   UNL     1       3.516   6.626  17.660  0.00  0.00    +0.000 A 
ATOM     26  C   UNL     1       3.208   5.251  17.771  0.00  0.00    +0.000 A 
ATOM     27  C   UNL     1       4.042   4.301  17.162  0.00  0.00    +0.000 A 
BRANCH  22  29
ATOM     28  C   UNL     1       6.666   4.315  14.641  0.00  0.00    +0.000 C 
ATOM     29  O   UNL     1       6.071   3.850  15.848  0.00  0.00    +0.000 OA
ENDBRANCH  22  29
BRANCH  26  30
ATOM     30  O   UNL     1       2.073   4.925  18.468  0.00  0.00    +0.000 OA
ATOM     31  C   UNL     1       1.459   3.670  18.207  0.00  0.00    +0.000 C 
ENDBRANCH  26  30
ENDBRANCH  17  25
ENDBRANCH   1  19
TORSDOF 5
ENDMDL
MODEL 4
REMARK VINA RESULT:      -7.7      3.898     11.148
REMARK  Name = 
REMARK  7 active torsions:
REMARK  status: ('A' for Active; 'I' for Inactive)
REMARK    1  A    between atoms: C_1  and  O_2
REMARK    2  A    between atoms: O_2  and  C_3
REMARK    3  A    between atoms: C_6  and  C_7
REMARK    4  A    between atoms: C_9  and  C_10
REMARK    5  A    between atoms: C_17  and  C_18
REMARK    6  A    between atoms: C_28  and  O_29
REMARK    7  A    between atoms: O_29  and  C_30
REMARK                            x       y       z     vdW  Elec       q    Type
REMARK                         _______ _______ _______ _____ _____    ______ ____
ROOT
ATOM      1  C   UNL     1       0.468  10.866  20.171  0.00  0.00    +0.000 A 
ATOM      2  N   UNL     1       0.461  11.655  19.045  0.00  0.00    +0.000 NA
ATOM      3  N   UNL     1       1.107  11.008  18.079  0.00  0.00    +0.000 NA
ATOM      4  N   UNL     1       1.512   9.842  18.597  0.00  0.00    +0.000 N 
ATOM      5  C   UNL     1       1.130   9.689  19.894  0.00  0.00    +0.000 A 
ATOM      6  C   UNL     1       1.423   8.457  20.651  0.00  0.00    +0.000 C 
ATOM      7  O   UNL     1       2.397   7.674  19.938  0.00  0.00    +0.000 OA
ATOM      8  C   UNL     1       2.090   7.519  18.537  0.00  0.00    +0.000 C 
ATOM      9  C   UNL     1       2.272   8.870  17.846  0.00  0.00    +0.000 C 
ENDROOT
BRANCH   8  10
ATOM     10  C   UNL     1       2.981   6.449  17.934  0.00  0.00    +0.000 A 
ATOM     11  C   UNL     1       4.213   6.803  17.359  0.00  0.00    +0.000 A 
ATOM     12  C   UNL     1       5.031   5.833  16.772  0.00  0.00    +0.000 A 
ATOM     13  C   UNL     1       4.628   4.499  16.761  0.00  0.00    +0.000 A 
ATOM     14 CL   UNL     1       5.623   3.310  16.017  0.00  0.00    +0.000 Cl
ATOM     15  C   UNL     1       3.422   4.127  17.346  0.00  0.00    +0.000 A 
ATOM     16  C   UNL     1       2.605   5.096  17.934  0.00  0.00    +0.000 A 
ENDBRANCH   8  10
BRANCH   1  19
ATOM     17  C   UNL     1      -1.228  12.545  22.711  0.00  0.00    +0.000 A 
ATOM     18  N   UNL     1      -0.710  12.549  21.504  0.00  0.00    +0.000 NA
ATOM     19  C   UNL     1      -0.149  11.300  21.420  0.00  0.00    +0.000 A 
ATOM     20  N   UNL     1      -0.252  10.560  22.531  0.00  0.00    +0.000 NA
ATOM     21  O   UNL     1      -0.972  11.388  23.396  0.00  0.00    +0.000 OA
BRANCH  17  25
ATOM     22  C   UNL     1      -3.586  15.483  24.748  0.00  0.00    +0.000 A 
ATOM     23  C   UNL     1      -2.194  15.562  24.756  0.00  0.00    +0.000 A 
ATOM     24  C   UNL     1      -1.429  14.598  24.093  0.00  0.00    +0.000 A 
ATOM     25  C   UNL     1      -2.043  13.542  23.402  0.00  0.00    +0.000 A 
ATOM     26  C   UNL     1      -3.454  13.462  23.396  0.00  0.00    +0.000 A 
ATOM     27  C   UNL     1      -4.207  14.431  24.077  0.00  0.00    +0.000 A 
BRANCH  22  29
ATOM     28  C   UNL     1      -5.154  17.269  24.682  0.00  0.00    +0.000 C 
ATOM     29  O   UNL     1      -4.223  16.487  25.424  0.00  0.00    +0.000 OA
ENDBRANCH  22  29
BRANCH  26  30
ATOM     30  O   UNL     1      -4.012  12.405  22.723  0.00  0.00    +0.000 OA
ATOM     31  C   UNL     1      -4.827  12.680  21.592  0.00  0.00    +0.000 C 
ENDBRANCH  26  30
ENDBRANCH  17  25
ENDBRANCH   1  19
TORSDOF 5
ENDMDL
MODEL 5
REMARK VINA RESULT:      -7.6      4.157     10.694
REMARK  Name = 
REMARK  7 active torsions:
REMARK  status: ('A' for Active; 'I' for Inactive)
REMARK    1  A    between atoms: C_1  and  O_2
REMARK    2  A    between atoms: O_2  and  C_3
REMARK    3  A    between atoms: C_6  and  C_7
REMARK    4  A    between atoms: C_9  and  C_10
REMARK    5  A    between atoms: C_17  and  C_18
REMARK    6  A    between atoms: C_28  and  O_29
REMARK    7  A    between atoms: O_29  and  C_30
REMARK                            x       y       z     vdW  Elec       q    Type
REMARK                         _______ _______ _______ _____ _____    ______ ____
ROOT
ATOM      1  C   UNL     1       1.085  10.475  19.528  0.00  0.00    +0.000 A 
ATOM      2  N   UNL     1       1.565  10.949  18.330  0.00  0.00    +0.000 NA
ATOM      3  N   UNL     1       2.152   9.943  17.689  0.00  0.00    +0.000 NA
ATOM      4  N   UNL     1       2.043   8.865  18.475  0.00  0.00    +0.000 N 
ATOM      5  C   UNL     1       1.374   9.131  19.631  0.00  0.00    +0.000 A 
ATOM      6  C   UNL     1       1.091   8.079  20.625  0.00  0.00    +0.000 C 
ATOM      7  O   UNL     1       1.885   6.915  20.334  0.00  0.00    +0.000 OA
ATOM      8  C   UNL     1       1.839   6.527  18.945  0.00  0.00    +0.000 C 
ATOM      9  C   UNL     1       2.586   7.575  18.121  0.00  0.00    +0.000 C 
ENDROOT
BRANCH   8  10
ATOM     10  C   UNL     1       2.441   5.142  18.782  0.00  0.00    +0.000 A 
ATOM     11  C   UNL     1       1.914   4.257  17.827  0.00  0.00    +0.000 A 
ATOM     12  C   UNL     1       2.437   2.967  17.685  0.00  0.00    +0.000 A 
ATOM     13  C   UNL     1       3.496   2.555  18.492  0.00  0.00    +0.000 A 
ATOM     14 CL   UNL     1       4.122   0.961  18.335  0.00  0.00    +0.000 Cl
ATOM     15  C   UNL     1       4.045   3.427  19.427  0.00  0.00    +0.000 A 
ATOM     16  C   UNL     1       3.523   4.716  19.568  0.00  0.00    +0.000 A 
ENDBRANCH   8  10
BRANCH   1  19
ATOM     17  C   UNL     1      -1.223  12.208  21.482  0.00  0.00    +0.000 A 
ATOM     18  N   UNL     1      -0.971  11.430  20.454  0.00  0.00    +0.000 NA
ATOM     19  C   UNL     1       0.398  11.341  20.480  0.00  0.00    +0.000 A 
ATOM     20  N   UNL     1       0.992  12.068  21.435  0.00  0.00    +0.000 NA
ATOM     21  O   UNL     1      -0.087  12.649  22.107  0.00  0.00    +0.000 OA
BRANCH  17  25
ATOM     22  C   UNL     1      -4.929  13.451  23.230  0.00  0.00    +0.000 A 
ATOM     23  C   UNL     1      -3.817  13.199  24.031  0.00  0.00    +0.000 A 
ATOM     24  C   UNL     1      -2.611  12.791  23.457  0.00  0.00    +0.000 A 
ATOM     25  C   UNL     1      -2.492  12.634  22.067  0.00  0.00    +0.000 A 
ATOM     26  C   UNL     1      -3.621  12.887  21.255  0.00  0.00    +0.000 A 
ATOM     27  C   UNL     1      -4.828  13.285  21.849  0.00  0.00    +0.000 A 
BRANCH  22  29
ATOM     28  C   UNL     1      -7.071  12.879  24.090  0.00  0.00    +0.000 C 
ATOM     29  O   UNL     1      -6.048  13.853  23.907  0.00  0.00    +0.000 OA
ENDBRANCH  22  29
BRANCH  26  30
ATOM     30  O   UNL     1      -3.466  12.705  19.904  0.00  0.00    +0.000 OA
ATOM     31  C   UNL     1      -4.531  12.105  19.179  0.00  0.00    +0.000 C 
ENDBRANCH  26  30
ENDBRANCH  17  25
ENDBRANCH   1  19
TORSDOF 5
ENDMDL
MODEL 6
REMARK VINA RESULT:      -7.5      4.085     10.821
REMARK  Name = 
REMARK  7 active torsions:
REMARK  status: ('A' for Active; 'I' for Inactive)
REMARK    1  A    between atoms: C_1  and  O_2
REMARK    2  A    between atoms: O_2  and  C_3
REMARK    3  A    between atoms: C_6  and  C_7
REMARK    4  A    between atoms: C_9  and  C_10
REMARK    5  A    between atoms: C_17  and  C_18
REMARK    6  A    between atoms: C_28  and  O_29
REMARK    7  A    between atoms: O_29  and  C_30
REMARK                            x       y       z     vdW  Elec       q    Type
REMARK                         _______ _______ _______ _____ _____    ______ ____
ROOT
ATOM      1  C   UNL     1       1.233   8.412  20.686  0.00  0.00    +0.000 A 
ATOM      2  N   UNL     1       1.050   7.324  21.506  0.00  0.00    +0.000 NA
ATOM      3  N   UNL     1       1.639   6.274  20.942  0.00  0.00    +0.000 NA
ATOM      4  N   UNL     1       2.173   6.699  19.791  0.00  0.00    +0.000 N 
ATOM      5  C   UNL     1       1.965   8.029  19.583  0.00  0.00    +0.000 A 
ATOM      6  C   UNL     1       2.511   8.725  18.403  0.00  0.00    +0.000 C 
ATOM      7  O   UNL     1       2.956   7.757  17.435  0.00  0.00    +0.000 OA
ATOM      8  C   UNL     1       3.769   6.712  18.007  0.00  0.00    +0.000 C 
ATOM      9  C   UNL     1       2.883   5.828  18.884  0.00  0.00    +0.000 C 
ENDROOT
BRANCH   8  10
ATOM     10  C   UNL     1       4.438   5.921  16.897  0.00  0.00    +0.000 A 
ATOM     11  C   UNL     1       5.051   6.594  15.827  0.00  0.00    +0.000 A 
ATOM     12  C   UNL     1       5.645   5.880  14.782  0.00  0.00    +0.000 A 
ATOM     13  C   UNL     1       5.638   4.487  14.801  0.00  0.00    +0.000 A 
ATOM     14 CL   UNL     1       6.346   3.609  13.503  0.00  0.00    +0.000 Cl
ATOM     15  C   UNL     1       5.056   3.803  15.865  0.00  0.00    +0.000 A 
ATOM     16  C   UNL     1       4.463   4.518  16.909  0.00  0.00    +0.000 A 
ENDBRANCH   8  10
BRANCH   1  19
ATOM     17  C   UNL     1      -0.780  11.174  21.370  0.00  0.00    +0.000 A 
ATOM     18  N   UNL     1      -0.662   9.945  20.923  0.00  0.00    +0.000 NA
ATOM     19  C   UNL     1       0.689   9.725  21.015  0.00  0.00    +0.000 A 
ATOM     20  N   UNL     1       1.402  10.775  21.442  0.00  0.00    +0.000 NA
ATOM     21  O   UNL     1       0.426  11.745  21.680  0.00  0.00    +0.000 OA
BRANCH  17  25
ATOM     22  C   UNL     1      -4.257  13.557  22.124  0.00  0.00    +0.000 A 
ATOM     23  C   UNL     1      -3.571  12.953  23.176  0.00  0.00    +0.000 A 
ATOM     24  C   UNL     1      -2.438  12.173  22.924  0.00  0.00    +0.000 A 
ATOM     25  C   UNL     1      -1.967  11.990  21.615  0.00  0.00    +0.000 A 
ATOM     26  C   UNL     1      -2.664  12.602  20.549  0.00  0.00    +0.000 A 
ATOM     27  C   UNL     1      -3.807  13.371  20.817  0.00  0.00    +0.000 A 
BRANCH  22  29
ATOM     28  C   UNL     1      -6.625  13.727  22.262  0.00  0.00    +0.000 C 
ATOM     29  O   UNL     1      -5.343  14.300  22.497  0.00  0.00    +0.000 OA
ENDBRANCH  22  29
BRANCH  26  30
ATOM     30  O   UNL     1      -2.179  12.383  19.285  0.00  0.00    +0.000 OA
ATOM     31  C   UNL     1      -2.980  11.640  18.375  0.00  0.00    +0.000 C 
ENDBRANCH  26  30
ENDBRANCH  17  25
ENDBRANCH   1  19
TORSDOF 5
ENDMDL
MODEL 7
REMARK VINA RESULT:      -7.5      2.580      3.069
REMARK  Name = 
REMARK  7 active torsions:
REMARK  status: ('A' for Active; 'I' for Inactive)
REMARK    1  A    between atoms: C_1  and  O_2
REMARK    2  A    between atoms: O_2  and  C_3
REMARK    3  A    between atoms: C_6  and  C_7
REMARK    4  A    between atoms: C_9  and  C_10
REMARK    5  A    between atoms: C_17  and  C_18
REMARK    6  A    between atoms: C_28  and  O_29
REMARK    7  A    between atoms: O_29  and  C_30
REMARK                            x       y       z     vdW  Elec       q    Type
REMARK                         _______ _______ _______ _____ _____    ______ ____
ROOT
ATOM      1  C   UNL     1       1.182   8.784  21.115  0.00  0.00    +0.000 A 
ATOM      2  N   UNL     1       1.030   8.906  22.475  0.00  0.00    +0.000 NA
ATOM      3  N   UNL     1       0.655  10.154  22.743  0.00  0.00    +0.000 NA
ATOM      4  N   UNL     1       0.581  10.796  21.571  0.00  0.00    +0.000 N 
ATOM      5  C   UNL     1       0.884   9.989  20.517  0.00  0.00    +0.000 A 
ATOM      6  C   UNL     1       0.816  10.471  19.125  0.00  0.00    +0.000 C 
ATOM      7  O   UNL     1       0.722  11.908  19.116  0.00  0.00    +0.000 OA
ATOM      8  C   UNL     1      -0.269  12.419  20.030  0.00  0.00    +0.000 C 
ATOM      9  C   UNL     1       0.221  12.190  21.459  0.00  0.00    +0.000 C 
ENDROOT
BRANCH   8  10
ATOM     10  C   UNL     1      -0.517  13.889  19.744  0.00  0.00    +0.000 A 
ATOM     11  C   UNL     1      -1.428  14.613  20.532  0.00  0.00    +0.000 A 
ATOM     12  C   UNL     1      -1.691  15.960  20.262  0.00  0.00    +0.000 A 
ATOM     13  C   UNL     1      -1.039  16.597  19.208  0.00  0.00    +0.000 A 
ATOM     14 CL   UNL     1      -1.381  18.246  18.861  0.00  0.00    +0.000 Cl
ATOM     15  C   UNL     1      -0.116  15.902  18.433  0.00  0.00    +0.000 A 
ATOM     16  C   UNL     1       0.147  14.556  18.703  0.00  0.00    +0.000 A 
ENDBRANCH   8  10
BRANCH   1  19
ATOM     17  C   UNL     1       2.633   6.288  19.161  0.00  0.00    +0.000 A 
ATOM     18  N   UNL     1       2.386   7.562  19.367  0.00  0.00    +0.000 NA
ATOM     19  C   UNL     1       1.607   7.533  20.496  0.00  0.00    +0.000 A 
ATOM     20  N   UNL     1       1.323   6.307  20.953  0.00  0.00    +0.000 NA
ATOM     21  O   UNL     1       2.006   5.472  20.065  0.00  0.00    +0.000 OA
BRANCH  17  25
ATOM     22  C   UNL     1       5.133   4.389  16.249  0.00  0.00    +0.000 A 
ATOM     23  C   UNL     1       5.469   5.640  16.763  0.00  0.00    +0.000 A 
ATOM     24  C   UNL     1       4.648   6.258  17.711  0.00  0.00    +0.000 A 
ATOM     25  C   UNL     1       3.478   5.630  18.168  0.00  0.00    +0.000 A 
ATOM     26  C   UNL     1       3.139   4.362  17.646  0.00  0.00    +0.000 A 
ATOM     27  C   UNL     1       3.967   3.761  16.686  0.00  0.00    +0.000 A 
BRANCH  22  29
ATOM     28  C   UNL     1       6.873   4.821  14.688  0.00  0.00    +0.000 C 
ATOM     29  O   UNL     1       6.018   3.885  15.337  0.00  0.00    +0.000 OA
ENDBRANCH  22  29
BRANCH  26  30
ATOM     30  O   UNL     1       1.979   3.792  18.108  0.00  0.00    +0.000 OA
ATOM     31  C   UNL     1       1.928   2.377  18.237  0.00  0.00    +0.000 C 
ENDBRANCH  26  30
ENDBRANCH  17  25
ENDBRANCH   1  19
TORSDOF 5
ENDMDL
MODEL 8
REMARK VINA RESULT:      -7.5      4.187     10.879
REMARK  Name = 
REMARK  7 active torsions:
REMARK  status: ('A' for Active; 'I' for Inactive)
REMARK    1  A    between atoms: C_1  and  O_2
REMARK    2  A    between atoms: O_2  and  C_3
REMARK    3  A    between atoms: C_6  and  C_7
REMARK    4  A    between atoms: C_9  and  C_10
REMARK    5  A    between atoms: C_17  and  C_18
REMARK    6  A    between atoms: C_28  and  O_29
REMARK    7  A    between atoms: O_29  and  C_30
REMARK                            x       y       z     vdW  Elec       q    Type
REMARK                         _______ _______ _______ _____ _____    ______ ____
ROOT
ATOM      1  C   UNL     1       1.131  10.414  19.493  0.00  0.00    +0.000 A 
ATOM      2  N   UNL     1       1.536  10.835  18.249  0.00  0.00    +0.000 NA
ATOM      3  N   UNL     1       2.059   9.795  17.606  0.00  0.00    +0.000 NA
ATOM      4  N   UNL     1       1.984   8.748  18.437  0.00  0.00    +0.000 N 
ATOM      5  C   UNL     1       1.401   9.069  19.624  0.00  0.00    +0.000 A 
ATOM      6  C   UNL     1       1.167   8.058  20.673  0.00  0.00    +0.000 C 
ATOM      7  O   UNL     1       1.917   6.867  20.371  0.00  0.00    +0.000 OA
ATOM      8  C   UNL     1       1.770   6.432  19.004  0.00  0.00    +0.000 C 
ATOM      9  C   UNL     1       2.477   7.435  18.093  0.00  0.00    +0.000 C 
ENDROOT
BRANCH   8  10
ATOM     10  C   UNL     1       2.333   5.031  18.850  0.00  0.00    +0.000 A 
ATOM     11  C   UNL     1       3.481   4.654  19.567  0.00  0.00    +0.000 A 
ATOM     12  C   UNL     1       4.030   3.377  19.414  0.00  0.00    +0.000 A 
ATOM     13  C   UNL     1       3.432   2.463  18.548  0.00  0.00    +0.000 A 
ATOM     14 CL   UNL     1       4.122   0.902  18.340  0.00  0.00    +0.000 Cl
ATOM     15  C   UNL     1       2.281   2.812  17.848  0.00  0.00    +0.000 A 
ATOM     16  C   UNL     1       1.732   4.088  18.002  0.00  0.00    +0.000 A 
ENDBRANCH   8  10
BRANCH   1  19
ATOM     17  C   UNL     1      -1.007  12.277  21.520  0.00  0.00    +0.000 A 
ATOM     18  N   UNL     1      -0.838  11.467  20.499  0.00  0.00    +0.000 NA
ATOM     19  C   UNL     1       0.527  11.327  20.457  0.00  0.00    +0.000 A 
ATOM     20  N   UNL     1       1.195  12.052  21.362  0.00  0.00    +0.000 NA
ATOM     21  O   UNL     1       0.175  12.688  22.074  0.00  0.00    +0.000 OA
BRANCH  17  25
ATOM     22  C   UNL     1      -4.585  13.673  23.414  0.00  0.00    +0.000 A 
ATOM     23  C   UNL     1      -3.926  12.541  23.891  0.00  0.00    +0.000 A 
ATOM     24  C   UNL     1      -2.760  12.088  23.267  0.00  0.00    +0.000 A 
ATOM     25  C   UNL     1      -2.228  12.763  22.158  0.00  0.00    +0.000 A 
ATOM     26  C   UNL     1      -2.897  13.909  21.674  0.00  0.00    +0.000 A 
ATOM     27  C   UNL     1      -4.073  14.345  22.304  0.00  0.00    +0.000 A 
BRANCH  22  29
ATOM     28  C   UNL     1      -6.544  15.015  23.526  0.00  0.00    +0.000 C 
ATOM     29  O   UNL     1      -5.708  14.023  24.112  0.00  0.00    +0.000 OA
ENDBRANCH  22  29
BRANCH  26  30
ATOM     30  O   UNL     1      -2.352  14.529  20.578  0.00  0.00    +0.000 OA
ATOM     31  C   UNL     1      -2.096  15.925  20.651  0.00  0.00    +0.000 C 
ENDBRANCH  26  30
ENDBRANCH  17  25
ENDBRANCH   1  19
TORSDOF 5
ENDMDL
MODEL 9
REMARK VINA RESULT:      -7.4      1.540      2.076
REMARK  Name = 
REMARK  7 active torsions:
REMARK  status: ('A' for Active; 'I' for Inactive)
REMARK    1  A    between atoms: C_1  and  O_2
REMARK    2  A    between atoms: O_2  and  C_3
REMARK    3  A    between atoms: C_6  and  C_7
REMARK    4  A    between atoms: C_9  and  C_10
REMARK    5  A    between atoms: C_17  and  C_18
REMARK    6  A    between atoms: C_28  and  O_29
REMARK    7  A    between atoms: O_29  and  C_30
REMARK                            x       y       z     vdW  Elec       q    Type
REMARK                         _______ _______ _______ _____ _____    ______ ____
ROOT
ATOM      1  C   UNL     1       0.211  10.105  19.292  0.00  0.00    +0.000 A 
ATOM      2  N   UNL     1      -0.284  10.566  18.096  0.00  0.00    +0.000 NA
ATOM      3  N   UNL     1      -1.064  11.615  18.344  0.00  0.00    +0.000 NA
ATOM      4  N   UNL     1      -1.057  11.799  19.669  0.00  0.00    +0.000 N 
ATOM      5  C   UNL     1      -0.268  10.896  20.315  0.00  0.00    +0.000 A 
ATOM      6  C   UNL     1      -0.069  10.942  21.775  0.00  0.00    +0.000 C 
ATOM      7  O   UNL     1      -1.050  11.814  22.368  0.00  0.00    +0.000 OA
ATOM      8  C   UNL     1      -1.171  13.080  21.688  0.00  0.00    +0.000 C 
ATOM      9  C   UNL     1      -1.814  12.841  20.323  0.00  0.00    +0.000 C 
ENDROOT
BRANCH   8  10
ATOM     10  C   UNL     1      -1.985  14.039  22.538  0.00  0.00    +0.000 A 
ATOM     11  C   UNL     1      -2.338  13.687  23.851  0.00  0.00    +0.000 A 
ATOM     12  C   UNL     1      -3.113  14.546  24.637  0.00  0.00    +0.000 A 
ATOM     13  C   UNL     1      -3.536  15.769  24.118  0.00  0.00    +0.000 A 
ATOM     14 CL   UNL     1      -4.510  16.814  25.074  0.00  0.00    +0.000 Cl
ATOM     15  C   UNL     1      -3.176  16.144  22.827  0.00  0.00    +0.000 A 
ATOM     16  C   UNL     1      -2.400  15.286  22.043  0.00  0.00    +0.000 A 
ENDBRANCH   8  10
BRANCH   1  19
ATOM     17  C   UNL     1       2.370   7.441  18.666  0.00  0.00    +0.000 A 
ATOM     18  N   UNL     1       1.561   8.371  18.211  0.00  0.00    +0.000 NA
ATOM     19  C   UNL     1       1.093   8.945  19.366  0.00  0.00    +0.000 A 
ATOM     20  N   UNL     1       1.532   8.377  20.496  0.00  0.00    +0.000 NA
ATOM     21  O   UNL     1       2.385   7.371  20.033  0.00  0.00    +0.000 OA
BRANCH  17  25
ATOM     22  C   UNL     1       4.991   4.773  16.581  0.00  0.00    +0.000 A 
ATOM     23  C   UNL     1       5.265   6.139  16.633  0.00  0.00    +0.000 A 
ATOM     24  C   UNL     1       4.405   7.006  17.312  0.00  0.00    +0.000 A 
ATOM     25  C   UNL     1       3.257   6.521  17.959  0.00  0.00    +0.000 A 
ATOM     26  C   UNL     1       2.979   5.137  17.903  0.00  0.00    +0.000 A 
ATOM     27  C   UNL     1       3.847   4.281  17.208  0.00  0.00    +0.000 A 
BRANCH  22  29
ATOM     28  C   UNL     1       6.910   4.743  15.177  0.00  0.00    +0.000 C 
ATOM     29  O   UNL     1       5.910   4.027  15.896  0.00  0.00    +0.000 OA
ENDBRANCH  22  29
BRANCH  26  30
ATOM     30  O   UNL     1       1.839   4.708  18.534  0.00  0.00    +0.000 OA
ATOM     31  C   UNL     1       1.423   3.364  18.335  0.00  0.00    +0.000 C 
ENDBRANCH  26  30
ENDBRANCH  17  25
ENDBRANCH   1  19
TORSDOF 5
ENDMDL
