MODEL 1
REMARK VINA RESULT:      -7.7      0.000      0.000
REMARK  Name = 
REMARK  5 active torsions:
REMARK  status: ('A' for Active; 'I' for Inactive)
REMARK    1  A    between atoms: C_4  and  C_5
REMARK    2  A    between atoms: C_12  and  O_13
REMARK    3  A    between atoms: C_14  and  C_15
REMARK    4  A    between atoms: C_15  and  S_16
REMARK    5  A    between atoms: S_16  and  C_17
REMARK                            x       y       z     vdW  Elec       q    Type
REMARK                         _______ _______ _______ _____ _____    ______ ____
ROOT
ATOM      1  O   UNL     1       4.209   7.693  17.246  0.00  0.00    +0.000 OA
ATOM      2  C   UNL     1       4.725   6.598  17.050  0.00  0.00    +0.000 A 
ATOM      3  C   UNL     1       5.163   6.231  15.689  0.00  0.00    +0.000 A 
ATOM      4  C   UNL     1       5.646   4.999  15.488  0.00  0.00    +0.000 A 
ATOM      5  O   UNL     1       5.742   4.051  16.483  0.00  0.00    +0.000 OA
ATOM      6  C   UNL     1       5.359   4.381  17.769  0.00  0.00    +0.000 A 
ATOM      7  C   UNL     1       4.905   5.594  18.132  0.00  0.00    +0.000 A 
ENDROOT
BRANCH   4   8
ATOM      8  C   UNL     1       6.112   4.558  14.171  0.00  0.00    +0.000 A 
ATOM      9  C   UNL     1       5.376   3.614  13.440  0.00  0.00    +0.000 A 
ATOM     10  C   UNL     1       5.816   3.197  12.183  0.00  0.00    +0.000 A 
ATOM     11  C   UNL     1       6.989   3.719  11.641  0.00  0.00    +0.000 A 
ATOM     12  C   UNL     1       7.728   4.659  12.363  0.00  0.00    +0.000 A 
ATOM     13  C   UNL     1       7.293   5.076  13.622  0.00  0.00    +0.000 A 
ENDBRANCH   4   8
BRANCH   6  14
ATOM     14  O   UNL     1       5.468   3.375  18.701  0.00  0.00    +0.000 OA
ATOM     15  H   UNL     1       6.370   3.026  18.587  0.00  0.00    +0.000 HD
ENDBRANCH   6  14
BRANCH   7  16
ATOM     16  C   UNL     1       4.484   5.975  19.527  0.00  0.00    +0.000 C 
BRANCH  16  17
ATOM     17  S   UNL     1       2.676   6.283  19.612  0.00  0.00    +0.000 S 
BRANCH  17  18
ATOM     18  C   UNL     1       1.952   4.647  19.736  0.00  0.00    +0.000 A 
ATOM     19  C   UNL     1       1.739   3.951  20.929  0.00  0.00    +0.000 A 
ATOM     20  C   UNL     1       1.200   2.658  20.919  0.00  0.00    +0.000 A 
ATOM     21  C   UNL     1       0.864   2.043  19.712  0.00  0.00    +0.000 A 
ATOM     22  C   UNL     1       1.066   2.725  18.517  0.00  0.00    +0.000 A 
ATOM     23  C   UNL     1       1.605   4.014  18.532  0.00  0.00    +0.000 A 
ENDBRANCH  17  18
ENDBRANCH  16  17
ENDBRANCH   7  16
TORSDOF 5
ENDMDL
MODEL 2
REMARK VINA RESULT:      -7.7      0.065      1.027
REMARK  Name = 
REMARK  5 active torsions:
REMARK  status: ('A' for Active; 'I' for Inactive)
REMARK    1  A    between atoms: C_4  and  C_5
REMARK    2  A    between atoms: C_12  and  O_13
REMARK    3  A    between atoms: C_14  and  C_15
REMARK    4  A    between atoms: C_15  and  S_16
REMARK    5  A    between atoms: S_16  and  C_17
REMARK                            x       y       z     vdW  Elec       q    Type
REMARK                         _______ _______ _______ _____ _____    ______ ____
ROOT
ATOM      1  O   UNL     1       4.166   7.693  17.246  0.00  0.00    +0.000 OA
ATOM      2  C   UNL     1       4.699   6.605  17.053  0.00  0.00    +0.000 A 
ATOM      3  C   UNL     1       5.138   6.237  15.694  0.00  0.00    +0.000 A 
ATOM      4  C   UNL     1       5.640   5.013  15.498  0.00  0.00    +0.000 A 
ATOM      5  O   UNL     1       5.755   4.071  16.497  0.00  0.00    +0.000 OA
ATOM      6  C   UNL     1       5.372   4.403  17.783  0.00  0.00    +0.000 A 
ATOM      7  C   UNL     1       4.899   5.610  18.140  0.00  0.00    +0.000 A 
ENDROOT
BRANCH   4   8
ATOM      8  C   UNL     1       6.109   4.571  14.182  0.00  0.00    +0.000 A 
ATOM      9  C   UNL     1       5.373   3.631  13.447  0.00  0.00    +0.000 A 
ATOM     10  C   UNL     1       5.814   3.214  12.191  0.00  0.00    +0.000 A 
ATOM     11  C   UNL     1       6.991   3.733  11.653  0.00  0.00    +0.000 A 
ATOM     12  C   UNL     1       7.731   4.669  12.379  0.00  0.00    +0.000 A 
ATOM     13  C   UNL     1       7.293   5.087  13.637  0.00  0.00    +0.000 A 
ENDBRANCH   4   8
BRANCH   6  14
ATOM     14  O   UNL     1       5.500   3.404  18.721  0.00  0.00    +0.000 OA
ATOM     15  H   UNL     1       4.815   2.752  18.486  0.00  0.00    +0.000 HD
ENDBRANCH   6  14
BRANCH   7  16
ATOM     16  C   UNL     1       4.477   5.992  19.535  0.00  0.00    +0.000 C 
BRANCH  16  17
ATOM     17  S   UNL     1       2.663   6.262  19.627  0.00  0.00    +0.000 S 
BRANCH  17  18
ATOM     18  C   UNL     1       1.965   4.610  19.572  0.00  0.00    +0.000 A 
ATOM     19  C   UNL     1       1.577   3.941  18.408  0.00  0.00    +0.000 A 
ATOM     20  C   UNL     1       1.004   2.664  18.471  0.00  0.00    +0.000 A 
ATOM     21  C   UNL     1       0.816   2.037  19.703  0.00  0.00    +0.000 A 
ATOM     22  C   UNL     1       1.201   2.688  20.870  0.00  0.00    +0.000 A 
ATOM     23  C   UNL     1       1.770   3.962  20.802  0.00  0.00    +0.000 A 
ENDBRANCH  17  18
ENDBRANCH  16  17
ENDBRANCH   7  16
TORSDOF 5
ENDMDL
MODEL 3
REMARK VINA RESULT:      -7.7      0.036      1.031
REMARK  Name = 
REMARK  5 active torsions:
REMARK  status: ('A' for Active; 'I' for Inactive)
REMARK    1  A    between atoms: C_4  and  C_5
REMARK    2  A    between atoms: C_12  and  O_13
REMARK    3  A    between atoms: C_14  and  C_15
REMARK    4  A    between atoms: C_15  and  S_16
REMARK    5  A    between atoms: S_16  and  C_17
REMARK                            x       y       z     vdW  Elec       q    Type
REMARK                         _______ _______ _______ _____ _____    ______ ____
ROOT
ATOM      1  O   UNL     1       4.140   7.678  17.249  0.00  0.00    +0.000 OA
ATOM      2  C   UNL     1       4.678   6.593  17.054  0.00  0.00    +0.000 A 
ATOM      3  C   UNL     1       5.108   6.225  15.691  0.00  0.00    +0.000 A 
ATOM      4  C   UNL     1       5.615   5.004  15.493  0.00  0.00    +0.000 A 
ATOM      5  O   UNL     1       5.745   4.065  16.492  0.00  0.00    +0.000 OA
ATOM      6  C   UNL     1       5.371   4.396  17.781  0.00  0.00    +0.000 A 
ATOM      7  C   UNL     1       4.893   5.601  18.141  0.00  0.00    +0.000 A 
ENDROOT
BRANCH   4   8
ATOM      8  C   UNL     1       6.075   4.563  14.173  0.00  0.00    +0.000 A 
ATOM      9  C   UNL     1       7.269   5.065  13.636  0.00  0.00    +0.000 A 
ATOM     10  C   UNL     1       7.712   4.642  12.383  0.00  0.00    +0.000 A 
ATOM     11  C   UNL     1       6.973   3.711  11.655  0.00  0.00    +0.000 A 
ATOM     12  C   UNL     1       5.782   3.206  12.182  0.00  0.00    +0.000 A 
ATOM     13  C   UNL     1       5.335   3.630  13.435  0.00  0.00    +0.000 A 
ENDBRANCH   4   8
BRANCH   6  14
ATOM     14  O   UNL     1       5.513   3.400  18.719  0.00  0.00    +0.000 OA
ATOM     15  H   UNL     1       5.487   2.571  18.208  0.00  0.00    +0.000 HD
ENDBRANCH   6  14
BRANCH   7  16
ATOM     16  C   UNL     1       4.482   5.983  19.539  0.00  0.00    +0.000 C 
BRANCH  16  17
ATOM     17  S   UNL     1       2.675   6.297  19.633  0.00  0.00    +0.000 S 
BRANCH  17  18
ATOM     18  C   UNL     1       1.945   4.662  19.736  0.00  0.00    +0.000 A 
ATOM     19  C   UNL     1       1.722   3.955  20.921  0.00  0.00    +0.000 A 
ATOM     20  C   UNL     1       1.179   2.664  20.895  0.00  0.00    +0.000 A 
ATOM     21  C   UNL     1       0.848   2.063  19.680  0.00  0.00    +0.000 A 
ATOM     22  C   UNL     1       1.060   2.755  18.493  0.00  0.00    +0.000 A 
ATOM     23  C   UNL     1       1.603   4.042  18.524  0.00  0.00    +0.000 A 
ENDBRANCH  17  18
ENDBRANCH  16  17
ENDBRANCH   7  16
TORSDOF 5
ENDMDL
MODEL 4
REMARK VINA RESULT:      -7.5      0.628      1.763
REMARK  Name = 
REMARK  5 active torsions:
REMARK  status: ('A' for Active; 'I' for Inactive)
REMARK    1  A    between atoms: C_4  and  C_5
REMARK    2  A    between atoms: C_12  and  O_13
REMARK    3  A    between atoms: C_14  and  C_15
REMARK    4  A    between atoms: C_15  and  S_16
REMARK    5  A    between atoms: S_16  and  C_17
REMARK                            x       y       z     vdW  Elec       q    Type
REMARK                         _______ _______ _______ _____ _____    ______ ____
ROOT
ATOM      1  O   UNL     1       5.645   3.850  18.996  0.00  0.00    +0.000 OA
ATOM      2  C   UNL     1       5.426   4.546  18.010  0.00  0.00    +0.000 A 
ATOM      3  C   UNL     1       5.910   4.109  16.686  0.00  0.00    +0.000 A 
ATOM      4  C   UNL     1       5.730   4.926  15.643  0.00  0.00    +0.000 A 
ATOM      5  O   UNL     1       5.127   6.161  15.742  0.00  0.00    +0.000 OA
ATOM      6  C   UNL     1       4.644   6.580  16.967  0.00  0.00    +0.000 A 
ATOM      7  C   UNL     1       4.708   5.845  18.092  0.00  0.00    +0.000 A 
ENDROOT
BRANCH   4   8
ATOM      8  C   UNL     1       6.171   4.565  14.293  0.00  0.00    +0.000 A 
ATOM      9  C   UNL     1       5.440   3.643  13.533  0.00  0.00    +0.000 A 
ATOM     10  C   UNL     1       5.855   3.302  12.245  0.00  0.00    +0.000 A 
ATOM     11  C   UNL     1       7.000   3.882  11.701  0.00  0.00    +0.000 A 
ATOM     12  C   UNL     1       7.736   4.801  12.452  0.00  0.00    +0.000 A 
ATOM     13  C   UNL     1       7.324   5.142  13.742  0.00  0.00    +0.000 A 
ENDBRANCH   4   8
BRANCH   6  14
ATOM     14  O   UNL     1       4.073   7.831  16.988  0.00  0.00    +0.000 OA
ATOM     15  H   UNL     1       4.464   8.297  16.228  0.00  0.00    +0.000 HD
ENDBRANCH   6  14
BRANCH   7  16
ATOM     16  C   UNL     1       4.186   6.281  19.437  0.00  0.00    +0.000 C 
BRANCH  16  17
ATOM     17  S   UNL     1       2.353   6.388  19.432  0.00  0.00    +0.000 S 
BRANCH  17  18
ATOM     18  C   UNL     1       1.809   4.694  19.655  0.00  0.00    +0.000 A 
ATOM     19  C   UNL     1       1.662   4.053  20.888  0.00  0.00    +0.000 A 
ATOM     20  C   UNL     1       1.266   2.711  20.957  0.00  0.00    +0.000 A 
ATOM     21  C   UNL     1       1.009   1.991  19.788  0.00  0.00    +0.000 A 
ATOM     22  C   UNL     1       1.146   2.617  18.554  0.00  0.00    +0.000 A 
ATOM     23  C   UNL     1       1.543   3.955  18.491  0.00  0.00    +0.000 A 
ENDBRANCH  17  18
ENDBRANCH  16  17
ENDBRANCH   7  16
TORSDOF 5
ENDMDL
MODEL 5
REMARK VINA RESULT:      -7.5      0.606      2.039
REMARK  Name = 
REMARK  5 active torsions:
REMARK  status: ('A' for Active; 'I' for Inactive)
REMARK    1  A    between atoms: C_4  and  C_5
REMARK    2  A    between atoms: C_12  and  O_13
REMARK    3  A    between atoms: C_14  and  C_15
REMARK    4  A    between atoms: C_15  and  S_16
REMARK    5  A    between atoms: S_16  and  C_17
REMARK                            x       y       z     vdW  Elec       q    Type
REMARK                         _______ _______ _______ _____ _____    ______ ____
ROOT
ATOM      1  O   UNL     1       5.711   3.771  18.987  0.00  0.00    +0.000 OA
ATOM      2  C   UNL     1       5.478   4.479  18.013  0.00  0.00    +0.000 A 
ATOM      3  C   UNL     1       5.937   4.055  16.676  0.00  0.00    +0.000 A 
ATOM      4  C   UNL     1       5.743   4.884  15.645  0.00  0.00    +0.000 A 
ATOM      5  O   UNL     1       5.148   6.121  15.768  0.00  0.00    +0.000 OA
ATOM      6  C   UNL     1       4.689   6.528  17.007  0.00  0.00    +0.000 A 
ATOM      7  C   UNL     1       4.769   5.781  18.122  0.00  0.00    +0.000 A 
ENDROOT
BRANCH   4   8
ATOM      8  C   UNL     1       6.158   4.536  14.284  0.00  0.00    +0.000 A 
ATOM      9  C   UNL     1       7.296   5.129  13.718  0.00  0.00    +0.000 A 
ATOM     10  C   UNL     1       7.697   4.794  12.424  0.00  0.00    +0.000 A 
ATOM     11  C   UNL     1       6.972   3.862  11.684  0.00  0.00    +0.000 A 
ATOM     12  C   UNL     1       5.837   3.267  12.240  0.00  0.00    +0.000 A 
ATOM     13  C   UNL     1       5.431   3.602  13.533  0.00  0.00    +0.000 A 
ENDBRANCH   4   8
BRANCH   6  14
ATOM     14  O   UNL     1       4.124   7.781  17.052  0.00  0.00    +0.000 OA
ATOM     15  H   UNL     1       4.781   8.334  17.513  0.00  0.00    +0.000 HD
ENDBRANCH   6  14
BRANCH   7  16
ATOM     16  C   UNL     1       4.273   6.204  19.480  0.00  0.00    +0.000 C 
BRANCH  16  17
ATOM     17  S   UNL     1       2.443   6.353  19.501  0.00  0.00    +0.000 S 
BRANCH  17  18
ATOM     18  C   UNL     1       1.863   4.665  19.677  0.00  0.00    +0.000 A 
ATOM     19  C   UNL     1       1.695   3.996  20.893  0.00  0.00    +0.000 A 
ATOM     20  C   UNL     1       1.271   2.661  20.926  0.00  0.00    +0.000 A 
ATOM     21  C   UNL     1       1.007   1.977  19.738  0.00  0.00    +0.000 A 
ATOM     22  C   UNL     1       1.164   2.630  18.521  0.00  0.00    +0.000 A 
ATOM     23  C   UNL     1       1.589   3.961  18.494  0.00  0.00    +0.000 A 
ENDBRANCH  17  18
ENDBRANCH  16  17
ENDBRANCH   7  16
TORSDOF 5
ENDMDL
MODEL 6
REMARK VINA RESULT:      -7.4      0.657      2.279
REMARK  Name = 
REMARK  5 active torsions:
REMARK  status: ('A' for Active; 'I' for Inactive)
REMARK    1  A    between atoms: C_4  and  C_5
REMARK    2  A    between atoms: C_12  and  O_13
REMARK    3  A    between atoms: C_14  and  C_15
REMARK    4  A    between atoms: C_15  and  S_16
REMARK    5  A    between atoms: S_16  and  C_17
REMARK                            x       y       z     vdW  Elec       q    Type
REMARK                         _______ _______ _______ _____ _____    ______ ____
ROOT
ATOM      1  O   UNL     1       5.955   3.998  19.058  0.00  0.00    +0.000 OA
ATOM      2  C   UNL     1       5.626   4.633  18.061  0.00  0.00    +0.000 A 
ATOM      3  C   UNL     1       6.096   4.199  16.731  0.00  0.00    +0.000 A 
ATOM      4  C   UNL     1       5.792   4.956  15.671  0.00  0.00    +0.000 A 
ATOM      5  O   UNL     1       5.073   6.129  15.759  0.00  0.00    +0.000 OA
ATOM      6  C   UNL     1       4.603   6.541  16.991  0.00  0.00    +0.000 A 
ATOM      7  C   UNL     1       4.786   5.858  18.135  0.00  0.00    +0.000 A 
ENDROOT
BRANCH   4   8
ATOM      8  C   UNL     1       6.210   4.593  14.315  0.00  0.00    +0.000 A 
ATOM      9  C   UNL     1       7.346   5.183  13.743  0.00  0.00    +0.000 A 
ATOM     10  C   UNL     1       7.750   4.833  12.454  0.00  0.00    +0.000 A 
ATOM     11  C   UNL     1       7.029   3.889  11.725  0.00  0.00    +0.000 A 
ATOM     12  C   UNL     1       5.896   3.296  12.287  0.00  0.00    +0.000 A 
ATOM     13  C   UNL     1       5.488   3.646  13.576  0.00  0.00    +0.000 A 
ENDBRANCH   4   8
BRANCH   6  14
ATOM     14  O   UNL     1       3.911   7.730  16.999  0.00  0.00    +0.000 OA
ATOM     15  H   UNL     1       4.520   8.371  17.408  0.00  0.00    +0.000 HD
ENDBRANCH   6  14
BRANCH   7  16
ATOM     16  C   UNL     1       4.281   6.288  19.487  0.00  0.00    +0.000 C 
BRANCH  16  17
ATOM     17  S   UNL     1       2.446   6.362  19.515  0.00  0.00    +0.000 S 
BRANCH  17  18
ATOM     18  C   UNL     1       1.932   4.644  19.477  0.00  0.00    +0.000 A 
ATOM     19  C   UNL     1       1.831   3.861  18.323  0.00  0.00    +0.000 A 
ATOM     20  C   UNL     1       1.382   2.536  18.392  0.00  0.00    +0.000 A 
ATOM     21  C   UNL     1       1.029   1.974  19.621  0.00  0.00    +0.000 A 
ATOM     22  C   UNL     1       1.128   2.739  20.777  0.00  0.00    +0.000 A 
ATOM     23  C   UNL     1       1.576   4.061  20.703  0.00  0.00    +0.000 A 
ENDBRANCH  17  18
ENDBRANCH  16  17
ENDBRANCH   7  16
TORSDOF 5
ENDMDL
MODEL 7
REMARK VINA RESULT:      -7.4      3.902      7.994
REMARK  Name = 
REMARK  5 active torsions:
REMARK  status: ('A' for Active; 'I' for Inactive)
REMARK    1  A    between atoms: C_4  and  C_5
REMARK    2  A    between atoms: C_12  and  O_13
REMARK    3  A    between atoms: C_14  and  C_15
REMARK    4  A    between atoms: C_15  and  S_16
REMARK    5  A    between atoms: S_16  and  C_17
REMARK                            x       y       z     vdW  Elec       q    Type
REMARK                         _______ _______ _______ _____ _____    ______ ____
ROOT
ATOM      1  O   UNL     1       3.291   7.041  17.579  0.00  0.00    +0.000 OA
ATOM      2  C   UNL     1       2.656   6.910  18.619  0.00  0.00    +0.000 A 
ATOM      3  C   UNL     1       2.020   8.087  19.240  0.00  0.00    +0.000 A 
ATOM      4  C   UNL     1       1.404   7.930  20.417  0.00  0.00    +0.000 A 
ATOM      5  O   UNL     1       1.345   6.728  21.088  0.00  0.00    +0.000 OA
ATOM      6  C   UNL     1       1.914   5.607  20.513  0.00  0.00    +0.000 A 
ATOM      7  C   UNL     1       2.520   5.601  19.313  0.00  0.00    +0.000 A 
ENDROOT
BRANCH   4   8
ATOM      8  C   UNL     1       0.738   9.045  21.096  0.00  0.00    +0.000 A 
ATOM      9  C   UNL     1       0.192   8.869  22.376  0.00  0.00    +0.000 A 
ATOM     10  C   UNL     1      -0.437   9.931  23.027  0.00  0.00    +0.000 A 
ATOM     11  C   UNL     1      -0.522  11.179  22.411  0.00  0.00    +0.000 A 
ATOM     12  C   UNL     1       0.018  11.363  21.137  0.00  0.00    +0.000 A 
ATOM     13  C   UNL     1       0.646  10.301  20.482  0.00  0.00    +0.000 A 
ENDBRANCH   4   8
BRANCH   6  14
ATOM     14  O   UNL     1       1.829   4.449  21.252  0.00  0.00    +0.000 OA
ATOM     15  H   UNL     1       1.275   4.683  22.018  0.00  0.00    +0.000 HD
ENDBRANCH   6  14
BRANCH   7  16
ATOM     16  C   UNL     1       3.144   4.391  18.668  0.00  0.00    +0.000 C 
BRANCH  16  17
ATOM     17  S   UNL     1       4.948   4.319  19.004  0.00  0.00    +0.000 S 
BRANCH  17  18
ATOM     18  C   UNL     1       5.707   4.437  17.384  0.00  0.00    +0.000 A 
ATOM     19  C   UNL     1       7.042   4.778  17.144  0.00  0.00    +0.000 A 
ATOM     20  C   UNL     1       7.532   4.881  15.836  0.00  0.00    +0.000 A 
ATOM     21  C   UNL     1       6.692   4.641  14.747  0.00  0.00    +0.000 A 
ATOM     22  C   UNL     1       5.364   4.298  14.969  0.00  0.00    +0.000 A 
ATOM     23  C   UNL     1       4.878   4.197  16.276  0.00  0.00    +0.000 A 
ENDBRANCH  17  18
ENDBRANCH  16  17
ENDBRANCH   7  16
TORSDOF 5
ENDMDL
MODEL 8
REMARK VINA RESULT:      -7.4      0.609      2.039
REMARK  Name = 
REMARK  5 active torsions:
REMARK  status: ('A' for Active; 'I' for Inactive)
REMARK    1  A    between atoms: C_4  and  C_5
REMARK    2  A    between atoms: C_12  and  O_13
REMARK    3  A    between atoms: C_14  and  C_15
REMARK    4  A    between atoms: C_15  and  S_16
REMARK    5  A    between atoms: S_16  and  C_17
REMARK                            x       y       z     vdW  Elec       q    Type
REMARK                         _______ _______ _______ _____ _____    ______ ____
ROOT
ATOM      1  O   UNL     1       5.433   3.635  18.886  0.00  0.00    +0.000 OA
ATOM      2  C   UNL     1       5.357   4.414  17.942  0.00  0.00    +0.000 A 
ATOM      3  C   UNL     1       5.813   3.988  16.605  0.00  0.00    +0.000 A 
ATOM      4  C   UNL     1       5.795   4.884  15.612  0.00  0.00    +0.000 A 
ATOM      5  O   UNL     1       5.387   6.190  15.777  0.00  0.00    +0.000 OA
ATOM      6  C   UNL     1       4.933   6.604  17.015  0.00  0.00    +0.000 A 
ATOM      7  C   UNL     1       4.845   5.802  18.091  0.00  0.00    +0.000 A 
ENDROOT
BRANCH   4   8
ATOM      8  C   UNL     1       6.221   4.541  14.253  0.00  0.00    +0.000 A 
ATOM      9  C   UNL     1       5.503   3.598  13.504  0.00  0.00    +0.000 A 
ATOM     10  C   UNL     1       5.904   3.274  12.207  0.00  0.00    +0.000 A 
ATOM     11  C   UNL     1       7.019   3.890  11.643  0.00  0.00    +0.000 A 
ATOM     12  C   UNL     1       7.741   4.830  12.382  0.00  0.00    +0.000 A 
ATOM     13  C   UNL     1       7.344   5.154  13.682  0.00  0.00    +0.000 A 
ENDBRANCH   4   8
BRANCH   6  14
ATOM     14  O   UNL     1       4.561   7.925  17.103  0.00  0.00    +0.000 OA
ATOM     15  H   UNL     1       3.662   7.906  17.480  0.00  0.00    +0.000 HD
ENDBRANCH   6  14
BRANCH   7  16
ATOM     16  C   UNL     1       4.352   6.232  19.448  0.00  0.00    +0.000 C 
BRANCH  16  17
ATOM     17  S   UNL     1       2.526   6.420  19.459  0.00  0.00    +0.000 S 
BRANCH  17  18
ATOM     18  C   UNL     1       1.906   4.737  19.487  0.00  0.00    +0.000 A 
ATOM     19  C   UNL     1       1.605   3.973  18.356  0.00  0.00    +0.000 A 
ATOM     20  C   UNL     1       1.088   2.677  18.483  0.00  0.00    +0.000 A 
ATOM     21  C   UNL     1       0.868   2.126  19.746  0.00  0.00    +0.000 A 
ATOM     22  C   UNL     1       1.166   2.873  20.881  0.00  0.00    +0.000 A 
ATOM     23  C   UNL     1       1.680   4.165  20.750  0.00  0.00    +0.000 A 
ENDBRANCH  17  18
ENDBRANCH  16  17
ENDBRANCH   7  16
TORSDOF 5
ENDMDL
MODEL 9
REMARK VINA RESULT:      -7.3      4.492      7.576
REMARK  Name = 
REMARK  5 active torsions:
REMARK  status: ('A' for Active; 'I' for Inactive)
REMARK    1  A    between atoms: C_4  and  C_5
REMARK    2  A    between atoms: C_12  and  O_13
REMARK    3  A    between atoms: C_14  and  C_15
REMARK    4  A    between atoms: C_15  and  S_16
REMARK    5  A    between atoms: S_16  and  C_17
REMARK                            x       y       z     vdW  Elec       q    Type
REMARK                         _______ _______ _______ _____ _____    ______ ____
ROOT
ATOM      1  O   UNL     1       6.280   7.653  16.487  0.00  0.00    +0.000 OA
ATOM      2  C   UNL     1       6.203   6.768  17.332  0.00  0.00    +0.000 A 
ATOM      3  C   UNL     1       5.045   5.854  17.330  0.00  0.00    +0.000 A 
ATOM      4  C   UNL     1       4.946   4.951  18.312  0.00  0.00    +0.000 A 
ATOM      5  O   UNL     1       5.862   4.840  19.334  0.00  0.00    +0.000 OA
ATOM      6  C   UNL     1       6.967   5.670  19.344  0.00  0.00    +0.000 A 
ATOM      7  C   UNL     1       7.226   6.588  18.397  0.00  0.00    +0.000 A 
ENDROOT
BRANCH   4   8
ATOM      8  C   UNL     1       3.833   3.999  18.377  0.00  0.00    +0.000 A 
ATOM      9  C   UNL     1       4.044   2.697  18.850  0.00  0.00    +0.000 A 
ATOM     10  C   UNL     1       2.985   1.791  18.919  0.00  0.00    +0.000 A 
ATOM     11  C   UNL     1       1.705   2.176  18.523  0.00  0.00    +0.000 A 
ATOM     12  C   UNL     1       1.486   3.472  18.050  0.00  0.00    +0.000 A 
ATOM     13  C   UNL     1       2.545   4.380  17.977  0.00  0.00    +0.000 A 
ENDBRANCH   4   8
BRANCH   6  14
ATOM     14  O   UNL     1       7.825   5.510  20.407  0.00  0.00    +0.000 OA
ATOM     15  H   UNL     1       7.487   4.731  20.885  0.00  0.00    +0.000 HD
ENDBRANCH   6  14
BRANCH   7  16
ATOM     16  C   UNL     1       8.424   7.501  18.387  0.00  0.00    +0.000 C 
BRANCH  16  17
ATOM     17  S   UNL     1       7.951   9.209  17.904  0.00  0.00    +0.000 S 
BRANCH  17  18
ATOM     18  C   UNL     1       9.175  10.251  18.699  0.00  0.00    +0.000 A 
ATOM     19  C   UNL     1       9.246  10.502  20.072  0.00  0.00    +0.000 A 
ATOM     20  C   UNL     1      10.220  11.364  20.595  0.00  0.00    +0.000 A 
ATOM     21  C   UNL     1      11.139  11.985  19.748  0.00  0.00    +0.000 A 
ATOM     22  C   UNL     1      11.084  11.741  18.380  0.00  0.00    +0.000 A 
ATOM     23  C   UNL     1      10.110  10.882  17.863  0.00  0.00    +0.000 A 
ENDBRANCH  17  18
ENDBRANCH  16  17
ENDBRANCH   7  16
TORSDOF 5
ENDMDL
