MODEL 1
REMARK VINA RESULT:      -7.2      0.000      0.000
REMARK  Name = 
REMARK  4 active torsions:
REMARK  status: ('A' for Active; 'I' for Inactive)
REMARK    1  A    between atoms: C_2  and  O_3
REMARK    2  A    between atoms: C_2  and  C_13
REMARK    3  A    between atoms: O_3  and  C_4
REMARK    4  A    between atoms: C_4  and  C_5
REMARK                            x       y       z     vdW  Elec       q    Type
REMARK                         _______ _______ _______ _____ _____    ______ ____
ROOT
ATOM      1  O   UNL     1       5.406   3.651  16.246  0.00  0.00    +0.000 OA
ENDROOT
BRANCH   1   3
ATOM      2  O   UNL     1       6.893   4.254  14.605  0.00  0.00    +0.000 OA
ATOM      3  C   UNL     1       6.447   4.358  15.738  0.00  0.00    +0.000 C 
BRANCH   3   4
ATOM      4  C   UNL     1       7.005   5.311  16.747  0.00  0.00    +0.000 A 
ATOM      5  C   UNL     1       7.477   4.790  17.949  0.00  0.00    +0.000 A 
ATOM      6  C   UNL     1       7.992   5.665  18.900  0.00  0.00    +0.000 A 
ATOM      7  C   UNL     1       8.019   7.028  18.623  0.00  0.00    +0.000 A 
ATOM      8  C   UNL     1       7.530   7.461  17.398  0.00  0.00    +0.000 A 
ATOM      9  N   UNL     1       7.026   6.638  16.452  0.00  0.00    +0.000 NA
ENDBRANCH   3   4
ENDBRANCH   1   3
BRANCH   1  10
ATOM     10  C   UNL     1       4.149   4.336  16.315  0.00  0.00    +0.000 C 
BRANCH  10  11
ATOM     11  C   UNL     1       3.455   3.954  17.599  0.00  0.00    +0.000 A 
ATOM     12  C   UNL     1       2.121   4.313  17.833  0.00  0.00    +0.000 A 
ATOM     13  C   UNL     1       1.481   3.929  19.013  0.00  0.00    +0.000 A 
ATOM     14  C   UNL     1       2.165   3.180  19.976  0.00  0.00    +0.000 A 
ATOM     15 CL   UNL     1       1.303   2.717  21.399  0.00  0.00    +0.000 Cl
ATOM     16  C   UNL     1       3.501   2.828  19.759  0.00  0.00    +0.000 A 
ATOM     17 CL   UNL     1       4.416   1.913  20.904  0.00  0.00    +0.000 Cl
ATOM     18  C   UNL     1       4.140   3.218  18.578  0.00  0.00    +0.000 A 
ENDBRANCH  10  11
ENDBRANCH   1  10
TORSDOF 4
ENDMDL
MODEL 2
REMARK VINA RESULT:      -7.1      2.378      3.498
REMARK  Name = 
REMARK  4 active torsions:
REMARK  status: ('A' for Active; 'I' for Inactive)
REMARK    1  A    between atoms: C_2  and  O_3
REMARK    2  A    between atoms: C_2  and  C_13
REMARK    3  A    between atoms: O_3  and  C_4
REMARK    4  A    between atoms: C_4  and  C_5
REMARK                            x       y       z     vdW  Elec       q    Type
REMARK                         _______ _______ _______ _____ _____    ______ ____
ROOT
ATOM      1  O   UNL     1       6.462   6.322  16.472  0.00  0.00    +0.000 OA
ENDROOT
BRANCH   1   3
ATOM      2  O   UNL     1       7.747   4.498  17.011  0.00  0.00    +0.000 OA
ATOM      3  C   UNL     1       7.151   5.186  16.196  0.00  0.00    +0.000 C 
BRANCH   3   4
ATOM      4  C   UNL     1       7.096   4.854  14.738  0.00  0.00    +0.000 A 
ATOM      5  C   UNL     1       6.212   3.859  14.327  0.00  0.00    +0.000 A 
ATOM      6  C   UNL     1       6.155   3.534  12.975  0.00  0.00    +0.000 A 
ATOM      7  C   UNL     1       6.980   4.208  12.081  0.00  0.00    +0.000 A 
ATOM      8  C   UNL     1       7.830   5.187  12.577  0.00  0.00    +0.000 A 
ATOM      9  N   UNL     1       7.907   5.529  13.882  0.00  0.00    +0.000 NA
ENDBRANCH   3   4
ENDBRANCH   1   3
BRANCH   1  10
ATOM     10  C   UNL     1       5.116   6.381  15.983  0.00  0.00    +0.000 C 
BRANCH  10  11
ATOM     11  C   UNL     1       4.185   5.869  17.055  0.00  0.00    +0.000 A 
ATOM     12  C   UNL     1       3.601   6.744  17.981  0.00  0.00    +0.000 A 
ATOM     13  C   UNL     1       2.718   6.262  18.950  0.00  0.00    +0.000 A 
ATOM     14  C   UNL     1       2.407   4.900  19.007  0.00  0.00    +0.000 A 
ATOM     15 CL   UNL     1       1.287   4.379  20.215  0.00  0.00    +0.000 Cl
ATOM     16  C   UNL     1       2.995   4.015  18.097  0.00  0.00    +0.000 A 
ATOM     17 CL   UNL     1       2.668   2.319  18.108  0.00  0.00    +0.000 Cl
ATOM     18  C   UNL     1       3.881   4.501  17.130  0.00  0.00    +0.000 A 
ENDBRANCH  10  11
ENDBRANCH   1  10
TORSDOF 4
ENDMDL
MODEL 3
REMARK VINA RESULT:      -7.1      0.936      1.574
REMARK  Name = 
REMARK  4 active torsions:
REMARK  status: ('A' for Active; 'I' for Inactive)
REMARK    1  A    between atoms: C_2  and  O_3
REMARK    2  A    between atoms: C_2  and  C_13
REMARK    3  A    between atoms: O_3  and  C_4
REMARK    4  A    between atoms: C_4  and  C_5
REMARK                            x       y       z     vdW  Elec       q    Type
REMARK                         _______ _______ _______ _____ _____    ______ ____
ROOT
ATOM      1  O   UNL     1       5.486   3.796  16.144  0.00  0.00    +0.000 OA
ENDROOT
BRANCH   1   3
ATOM      2  O   UNL     1       7.109   4.334  14.614  0.00  0.00    +0.000 OA
ATOM      3  C   UNL     1       6.590   4.457  15.713  0.00  0.00    +0.000 C 
BRANCH   3   4
ATOM      4  C   UNL     1       7.116   5.385  16.761  0.00  0.00    +0.000 A 
ATOM      5  C   UNL     1       7.460   4.847  17.999  0.00  0.00    +0.000 A 
ATOM      6  C   UNL     1       7.944   5.699  18.987  0.00  0.00    +0.000 A 
ATOM      7  C   UNL     1       8.069   7.056  18.709  0.00  0.00    +0.000 A 
ATOM      8  C   UNL     1       7.705   7.507  17.448  0.00  0.00    +0.000 A 
ATOM      9  N   UNL     1       7.235   6.707  16.466  0.00  0.00    +0.000 NA
ENDBRANCH   3   4
ENDBRANCH   1   3
BRANCH   1  10
ATOM     10  C   UNL     1       4.346   4.606  16.459  0.00  0.00    +0.000 C 
BRANCH  10  11
ATOM     11  C   UNL     1       3.749   4.123  17.759  0.00  0.00    +0.000 A 
ATOM     12  C   UNL     1       3.926   2.801  18.186  0.00  0.00    +0.000 A 
ATOM     13  C   UNL     1       3.393   2.374  19.405  0.00  0.00    +0.000 A 
ATOM     14  C   UNL     1       2.677   3.263  20.212  0.00  0.00    +0.000 A 
ATOM     15 CL   UNL     1       2.070   2.674  21.719  0.00  0.00    +0.000 Cl
ATOM     16  C   UNL     1       2.482   4.582  19.788  0.00  0.00    +0.000 A 
ATOM     17 CL   UNL     1       1.601   5.736  20.725  0.00  0.00    +0.000 Cl
ATOM     18  C   UNL     1       3.014   5.005  18.566  0.00  0.00    +0.000 A 
ENDBRANCH  10  11
ENDBRANCH   1  10
TORSDOF 4
ENDMDL
MODEL 4
REMARK VINA RESULT:      -7.0      2.502      3.719
REMARK  Name = 
REMARK  4 active torsions:
REMARK  status: ('A' for Active; 'I' for Inactive)
REMARK    1  A    between atoms: C_2  and  O_3
REMARK    2  A    between atoms: C_2  and  C_13
REMARK    3  A    between atoms: O_3  and  C_4
REMARK    4  A    between atoms: C_4  and  C_5
REMARK                            x       y       z     vdW  Elec       q    Type
REMARK                         _______ _______ _______ _____ _____    ______ ____
ROOT
ATOM      1  O   UNL     1       6.387   6.194  16.684  0.00  0.00    +0.000 OA
ENDROOT
BRANCH   1   3
ATOM      2  O   UNL     1       7.767   4.418  17.141  0.00  0.00    +0.000 OA
ATOM      3  C   UNL     1       7.126   5.104  16.359  0.00  0.00    +0.000 C 
BRANCH   3   4
ATOM      4  C   UNL     1       7.066   4.821  14.891  0.00  0.00    +0.000 A 
ATOM      5  C   UNL     1       6.167   3.855  14.447  0.00  0.00    +0.000 A 
ATOM      6  C   UNL     1       6.105   3.574  13.085  0.00  0.00    +0.000 A 
ATOM      7  C   UNL     1       6.941   4.264  12.213  0.00  0.00    +0.000 A 
ATOM      8  C   UNL     1       7.806   5.212  12.741  0.00  0.00    +0.000 A 
ATOM      9  N   UNL     1       7.889   5.510  14.057  0.00  0.00    +0.000 NA
ENDBRANCH   3   4
ENDBRANCH   1   3
BRANCH   1  10
ATOM     10  C   UNL     1       5.065   6.250  16.131  0.00  0.00    +0.000 C 
BRANCH  10  11
ATOM     11  C   UNL     1       4.076   5.819  17.187  0.00  0.00    +0.000 A 
ATOM     12  C   UNL     1       3.715   4.473  17.330  0.00  0.00    +0.000 A 
ATOM     13  C   UNL     1       2.821   4.082  18.330  0.00  0.00    +0.000 A 
ATOM     14  C   UNL     1       2.277   5.032  19.200  0.00  0.00    +0.000 A 
ATOM     15 CL   UNL     1       1.199   4.474  20.430  0.00  0.00    +0.000 Cl
ATOM     16  C   UNL     1       2.619   6.380  19.057  0.00  0.00    +0.000 A 
ATOM     17 CL   UNL     1       1.982   7.613  20.087  0.00  0.00    +0.000 Cl
ATOM     18  C   UNL     1       3.512   6.768  18.053  0.00  0.00    +0.000 A 
ENDBRANCH  10  11
ENDBRANCH   1  10
TORSDOF 4
ENDMDL
MODEL 5
REMARK VINA RESULT:      -7.0      2.195      3.341
REMARK  Name = 
REMARK  4 active torsions:
REMARK  status: ('A' for Active; 'I' for Inactive)
REMARK    1  A    between atoms: C_2  and  O_3
REMARK    2  A    between atoms: C_2  and  C_13
REMARK    3  A    between atoms: O_3  and  C_4
REMARK    4  A    between atoms: C_4  and  C_5
REMARK                            x       y       z     vdW  Elec       q    Type
REMARK                         _______ _______ _______ _____ _____    ______ ____
ROOT
ATOM      1  O   UNL     1       5.699   5.856  16.329  0.00  0.00    +0.000 OA
ENDROOT
BRANCH   1   3
ATOM      2  O   UNL     1       7.681   4.817  16.841  0.00  0.00    +0.000 OA
ATOM      3  C   UNL     1       6.825   5.157  16.038  0.00  0.00    +0.000 C 
BRANCH   3   4
ATOM      4  C   UNL     1       6.905   4.832  14.580  0.00  0.00    +0.000 A 
ATOM      5  C   UNL     1       6.045   3.859  14.078  0.00  0.00    +0.000 A 
ATOM      6  C   UNL     1       6.113   3.541  12.725  0.00  0.00    +0.000 A 
ATOM      7  C   UNL     1       7.035   4.200  11.919  0.00  0.00    +0.000 A 
ATOM      8  C   UNL     1       7.854   5.158  12.502  0.00  0.00    +0.000 A 
ATOM      9  N   UNL     1       7.811   5.493  13.811  0.00  0.00    +0.000 NA
ENDBRANCH   3   4
ENDBRANCH   1   3
BRANCH   1  10
ATOM     10  C   UNL     1       5.607   6.381  17.660  0.00  0.00    +0.000 C 
BRANCH  10  11
ATOM     11  C   UNL     1       4.475   5.689  18.380  0.00  0.00    +0.000 A 
ATOM     12  C   UNL     1       3.188   6.241  18.398  0.00  0.00    +0.000 A 
ATOM     13  C   UNL     1       2.142   5.576  19.043  0.00  0.00    +0.000 A 
ATOM     14  C   UNL     1       2.370   4.351  19.678  0.00  0.00    +0.000 A 
ATOM     15 CL   UNL     1       1.025   3.572  20.433  0.00  0.00    +0.000 Cl
ATOM     16  C   UNL     1       3.655   3.799  19.679  0.00  0.00    +0.000 A 
ATOM     17 CL   UNL     1       4.017   2.295  20.450  0.00  0.00    +0.000 Cl
ATOM     18  C   UNL     1       4.700   4.469  19.035  0.00  0.00    +0.000 A 
ENDBRANCH  10  11
ENDBRANCH   1  10
TORSDOF 4
ENDMDL
MODEL 6
REMARK VINA RESULT:      -7.0      2.087      3.206
REMARK  Name = 
REMARK  4 active torsions:
REMARK  status: ('A' for Active; 'I' for Inactive)
REMARK    1  A    between atoms: C_2  and  O_3
REMARK    2  A    between atoms: C_2  and  C_13
REMARK    3  A    between atoms: O_3  and  C_4
REMARK    4  A    between atoms: C_4  and  C_5
REMARK                            x       y       z     vdW  Elec       q    Type
REMARK                         _______ _______ _______ _____ _____    ______ ____
ROOT
ATOM      1  O   UNL     1       7.190   5.221  18.004  0.00  0.00    +0.000 OA
ENDROOT
BRANCH   1   3
ATOM      2  O   UNL     1       7.133   7.305  17.045  0.00  0.00    +0.000 OA
ATOM      3  C   UNL     1       7.057   6.088  16.969  0.00  0.00    +0.000 C 
BRANCH   3   4
ATOM      4  C   UNL     1       6.802   5.370  15.682  0.00  0.00    +0.000 A 
ATOM      5  C   UNL     1       5.637   4.615  15.574  0.00  0.00    +0.000 A 
ATOM      6  C   UNL     1       5.390   3.934  14.385  0.00  0.00    +0.000 A 
ATOM      7  C   UNL     1       6.311   4.029  13.346  0.00  0.00    +0.000 A 
ATOM      8  C   UNL     1       7.445   4.805  13.539  0.00  0.00    +0.000 A 
ATOM      9  N   UNL     1       7.713   5.480  14.679  0.00  0.00    +0.000 NA
ENDBRANCH   3   4
ENDBRANCH   1   3
BRANCH   1  10
ATOM     10  C   UNL     1       6.464   5.543  19.197  0.00  0.00    +0.000 C 
BRANCH  10  11
ATOM     11  C   UNL     1       5.086   4.933  19.110  0.00  0.00    +0.000 A 
ATOM     12  C   UNL     1       3.937   5.725  19.229  0.00  0.00    +0.000 A 
ATOM     13  C   UNL     1       2.668   5.153  19.118  0.00  0.00    +0.000 A 
ATOM     14  C   UNL     1       2.531   3.780  18.887  0.00  0.00    +0.000 A 
ATOM     15 CL   UNL     1       0.931   3.145  18.733  0.00  0.00    +0.000 Cl
ATOM     16  C   UNL     1       3.671   2.977  18.781  0.00  0.00    +0.000 A 
ATOM     17 CL   UNL     1       3.583   1.274  18.504  0.00  0.00    +0.000 Cl
ATOM     18  C   UNL     1       4.940   3.554  18.896  0.00  0.00    +0.000 A 
ENDBRANCH  10  11
ENDBRANCH   1  10
TORSDOF 4
ENDMDL
MODEL 7
REMARK VINA RESULT:      -6.9      2.086      3.246
REMARK  Name = 
REMARK  4 active torsions:
REMARK  status: ('A' for Active; 'I' for Inactive)
REMARK    1  A    between atoms: C_2  and  O_3
REMARK    2  A    between atoms: C_2  and  C_13
REMARK    3  A    between atoms: O_3  and  C_4
REMARK    4  A    between atoms: C_4  and  C_5
REMARK                            x       y       z     vdW  Elec       q    Type
REMARK                         _______ _______ _______ _____ _____    ______ ____
ROOT
ATOM      1  O   UNL     1       5.595   4.927  16.398  0.00  0.00    +0.000 OA
ENDROOT
BRANCH   1   3
ATOM      2  O   UNL     1       7.820   4.512  16.774  0.00  0.00    +0.000 OA
ATOM      3  C   UNL     1       6.873   4.677  16.020  0.00  0.00    +0.000 C 
BRANCH   3   4
ATOM      4  C   UNL     1       7.003   4.622  14.530  0.00  0.00    +0.000 A 
ATOM      5  C   UNL     1       6.224   3.695  13.841  0.00  0.00    +0.000 A 
ATOM      6  C   UNL     1       6.339   3.626  12.455  0.00  0.00    +0.000 A 
ATOM      7  C   UNL     1       7.224   4.480  11.805  0.00  0.00    +0.000 A 
ATOM      8  C   UNL     1       7.960   5.374  12.571  0.00  0.00    +0.000 A 
ATOM      9  N   UNL     1       7.870   5.469  13.916  0.00  0.00    +0.000 NA
ENDBRANCH   3   4
ENDBRANCH   1   3
BRANCH   1  10
ATOM     10  C   UNL     1       5.391   5.216  17.788  0.00  0.00    +0.000 C 
BRANCH  10  11
ATOM     11  C   UNL     1       4.117   4.547  18.242  0.00  0.00    +0.000 A 
ATOM     12  C   UNL     1       2.982   4.524  17.421  0.00  0.00    +0.000 A 
ATOM     13  C   UNL     1       1.817   3.876  17.842  0.00  0.00    +0.000 A 
ATOM     14  C   UNL     1       1.772   3.244  19.088  0.00  0.00    +0.000 A 
ATOM     15 CL   UNL     1       0.308   2.440  19.532  0.00  0.00    +0.000 Cl
ATOM     16  C   UNL     1       2.895   3.274  19.922  0.00  0.00    +0.000 A 
ATOM     17 CL   UNL     1       2.914   2.525  21.479  0.00  0.00    +0.000 Cl
ATOM     18  C   UNL     1       4.058   3.926  19.499  0.00  0.00    +0.000 A 
ENDBRANCH  10  11
ENDBRANCH   1  10
TORSDOF 4
ENDMDL
MODEL 8
REMARK VINA RESULT:      -6.7      3.103      4.191
REMARK  Name = 
REMARK  4 active torsions:
REMARK  status: ('A' for Active; 'I' for Inactive)
REMARK    1  A    between atoms: C_2  and  O_3
REMARK    2  A    between atoms: C_2  and  C_13
REMARK    3  A    between atoms: O_3  and  C_4
REMARK    4  A    between atoms: C_4  and  C_5
REMARK                            x       y       z     vdW  Elec       q    Type
REMARK                         _______ _______ _______ _____ _____    ______ ____
ROOT
ATOM      1  O   UNL     1       5.085   5.031  16.281  0.00  0.00    +0.000 OA
ENDROOT
BRANCH   1   3
ATOM      2  O   UNL     1       7.242   4.637  16.955  0.00  0.00    +0.000 OA
ATOM      3  C   UNL     1       6.400   4.767  16.080  0.00  0.00    +0.000 C 
BRANCH   3   4
ATOM      4  C   UNL     1       6.717   4.643  14.623  0.00  0.00    +0.000 A 
ATOM      5  C   UNL     1       5.992   3.721  13.872  0.00  0.00    +0.000 A 
ATOM      6  C   UNL     1       6.280   3.588  12.517  0.00  0.00    +0.000 A 
ATOM      7  C   UNL     1       7.280   4.377  11.957  0.00  0.00    +0.000 A 
ATOM      8  C   UNL     1       7.952   5.271  12.779  0.00  0.00    +0.000 A 
ATOM      9  N   UNL     1       7.694   5.426  14.097  0.00  0.00    +0.000 NA
ENDBRANCH   3   4
ENDBRANCH   1   3
BRANCH   1  10
ATOM     10  C   UNL     1       4.424   4.237  17.275  0.00  0.00    +0.000 C 
BRANCH  10  11
ATOM     11  C   UNL     1       3.625   5.149  18.175  0.00  0.00    +0.000 A 
ATOM     12  C   UNL     1       3.217   4.728  19.448  0.00  0.00    +0.000 A 
ATOM     13  C   UNL     1       2.503   5.591  20.283  0.00  0.00    +0.000 A 
ATOM     14  C   UNL     1       2.188   6.885  19.857  0.00  0.00    +0.000 A 
ATOM     15 CL   UNL     1       1.326   7.907  20.952  0.00  0.00    +0.000 Cl
ATOM     16  C   UNL     1       2.578   7.310  18.582  0.00  0.00    +0.000 A 
ATOM     17 CL   UNL     1       2.218   8.890  17.981  0.00  0.00    +0.000 Cl
ATOM     18  C   UNL     1       3.289   6.442  17.748  0.00  0.00    +0.000 A 
ENDBRANCH  10  11
ENDBRANCH   1  10
TORSDOF 4
ENDMDL
MODEL 9
REMARK VINA RESULT:      -6.7      2.821      3.369
REMARK  Name = 
REMARK  4 active torsions:
REMARK  status: ('A' for Active; 'I' for Inactive)
REMARK    1  A    between atoms: C_2  and  O_3
REMARK    2  A    between atoms: C_2  and  C_13
REMARK    3  A    between atoms: O_3  and  C_4
REMARK    4  A    between atoms: C_4  and  C_5
REMARK                            x       y       z     vdW  Elec       q    Type
REMARK                         _______ _______ _______ _____ _____    ______ ____
ROOT
ATOM      1  O   UNL     1       4.537   3.718  17.818  0.00  0.00    +0.000 OA
ENDROOT
BRANCH   1   3
ATOM      2  O   UNL     1       5.692   3.615  15.838  0.00  0.00    +0.000 OA
ATOM      3  C   UNL     1       5.527   4.068  16.961  0.00  0.00    +0.000 C 
BRANCH   3   4
ATOM      4  C   UNL     1       6.425   5.106  17.556  0.00  0.00    +0.000 A 
ATOM      5  C   UNL     1       6.540   6.328  16.897  0.00  0.00    +0.000 A 
ATOM      6  C   UNL     1       7.377   7.301  17.435  0.00  0.00    +0.000 A 
ATOM      7  C   UNL     1       8.071   7.025  18.608  0.00  0.00    +0.000 A 
ATOM      8  C   UNL     1       7.897   5.781  19.200  0.00  0.00    +0.000 A 
ATOM      9  N   UNL     1       7.090   4.816  18.706  0.00  0.00    +0.000 NA
ENDBRANCH   3   4
ENDBRANCH   1   3
BRANCH   1  10
ATOM     10  C   UNL     1       3.207   4.099  17.439  0.00  0.00    +0.000 C 
BRANCH  10  11
ATOM     11  C   UNL     1       2.736   5.201  18.357  0.00  0.00    +0.000 A 
ATOM     12  C   UNL     1       2.388   4.933  19.687  0.00  0.00    +0.000 A 
ATOM     13  C   UNL     1       1.981   5.967  20.534  0.00  0.00    +0.000 A 
ATOM     14  C   UNL     1       1.916   7.281  20.063  0.00  0.00    +0.000 A 
ATOM     15 CL   UNL     1       1.430   8.512  21.174  0.00  0.00    +0.000 Cl
ATOM     16  C   UNL     1       2.247   7.559  18.733  0.00  0.00    +0.000 A 
ATOM     17 CL   UNL     1       2.184   9.155  18.074  0.00  0.00    +0.000 Cl
ATOM     18  C   UNL     1       2.651   6.521  17.886  0.00  0.00    +0.000 A 
ENDBRANCH  10  11
ENDBRANCH   1  10
TORSDOF 4
ENDMDL
