MODEL 1
REMARK VINA RESULT:      -7.5      0.000      0.000
REMARK  Name = 
REMARK  5 active torsions:
REMARK  status: ('A' for Active; 'I' for Inactive)
REMARK    1  A    between atoms: C_1  and  C_2
REMARK    2  A    between atoms: C_2  and  O_3
REMARK    3  A    between atoms: O_3  and  C_4
REMARK    4  A    between atoms: C_6  and  C_7
REMARK    5  A    between atoms: C_15  and  C_16
REMARK                            x       y       z     vdW  Elec       q    Type
REMARK                         _______ _______ _______ _____ _____    ______ ____
ROOT
ATOM      1  C   UNL     1       6.291   4.662  17.534  0.00  0.00    +0.000 A 
ATOM      2  C   UNL     1       5.442   4.398  18.634  0.00  0.00    +0.000 A 
ATOM      3  C   UNL     1       4.091   4.034  18.479  0.00  0.00    +0.000 A 
ATOM      4  C   UNL     1       3.592   4.017  17.169  0.00  0.00    +0.000 A 
ATOM      5  C   UNL     1       4.427   4.218  16.067  0.00  0.00    +0.000 A 
ATOM      6  C   UNL     1       5.791   4.503  16.233  0.00  0.00    +0.000 A 
ENDROOT
BRANCH   3   7
ATOM      7  C   UNL     1       3.241   3.614  19.618  0.00  0.00    +0.000 A 
ATOM      8  C   UNL     1       1.886   3.988  19.695  0.00  0.00    +0.000 A 
ATOM      9  C   UNL     1       1.078   3.569  20.750  0.00  0.00    +0.000 A 
ATOM     10  C   UNL     1       1.639   2.764  21.720  0.00  0.00    +0.000 A 
ATOM     11  N   UNL     1       2.928   2.369  21.701  0.00  0.00    +0.000 NA
ATOM     12  C   UNL     1       3.689   2.799  20.659  0.00  0.00    +0.000 A 
ENDBRANCH   3   7
BRANCH   6  13
ATOM     13  C   UNL     1       6.648   4.459  15.015  0.00  0.00    +0.000 C 
ATOM     14  N   UNL     1       7.688   5.348  14.937  0.00  0.00    +0.000 N 
ATOM     15  O   UNL     1       6.444   3.685  14.093  0.00  0.00    +0.000 OA
ATOM     16  H   UNL     1       7.955   5.986  15.670  0.00  0.00    +0.000 HD
ATOM     17  H   UNL     1       8.254   5.317  14.098  0.00  0.00    +0.000 HD
ENDBRANCH   6  13
BRANCH   1  18
ATOM     18  O   UNL     1       7.561   4.993  17.926  0.00  0.00    +0.000 OA
BRANCH  18  20
ATOM     19  C   UNL     1       7.669   7.384  17.795  0.00  0.00    +0.000 C 
ATOM     20  C   UNL     1       7.749   6.173  18.709  0.00  0.00    +0.000 C 
ENDBRANCH  18  20
ENDBRANCH   1  18
TORSDOF 4
ENDMDL
MODEL 2
REMARK VINA RESULT:      -7.2      0.740      1.161
REMARK  Name = 
REMARK  5 active torsions:
REMARK  status: ('A' for Active; 'I' for Inactive)
REMARK    1  A    between atoms: C_1  and  C_2
REMARK    2  A    between atoms: C_2  and  O_3
REMARK    3  A    between atoms: O_3  and  C_4
REMARK    4  A    between atoms: C_6  and  C_7
REMARK    5  A    between atoms: C_15  and  C_16
REMARK                            x       y       z     vdW  Elec       q    Type
REMARK                         _______ _______ _______ _____ _____    ______ ____
ROOT
ATOM      1  C   UNL     1       6.246   4.476  17.587  0.00  0.00    +0.000 A 
ATOM      2  C   UNL     1       5.342   4.211  18.641  0.00  0.00    +0.000 A 
ATOM      3  C   UNL     1       3.964   4.019  18.429  0.00  0.00    +0.000 A 
ATOM      4  C   UNL     1       3.504   4.178  17.114  0.00  0.00    +0.000 A 
ATOM      5  C   UNL     1       4.387   4.384  16.051  0.00  0.00    +0.000 A 
ATOM      6  C   UNL     1       5.769   4.495  16.267  0.00  0.00    +0.000 A 
ENDROOT
BRANCH   3   7
ATOM      7  C   UNL     1       3.040   3.595  19.507  0.00  0.00    +0.000 A 
ATOM      8  C   UNL     1       3.477   2.770  20.560  0.00  0.00    +0.000 A 
ATOM      9  C   UNL     1       2.617   2.395  21.592  0.00  0.00    +0.000 A 
ATOM     10  C   UNL     1       1.320   2.865  21.560  0.00  0.00    +0.000 A 
ATOM     11  N   UNL     1       0.843   3.661  20.582  0.00  0.00    +0.000 NA
ATOM     12  C   UNL     1       1.708   4.003  19.590  0.00  0.00    +0.000 A 
ENDBRANCH   3   7
BRANCH   6  13
ATOM     13  C   UNL     1       6.650   4.465  15.067  0.00  0.00    +0.000 C 
ATOM     14  N   UNL     1       7.669   5.379  15.003  0.00  0.00    +0.000 N 
ATOM     15  O   UNL     1       6.482   3.682  14.145  0.00  0.00    +0.000 OA
ATOM     16  H   UNL     1       7.906   6.027  15.738  0.00  0.00    +0.000 HD
ATOM     17  H   UNL     1       8.252   5.357  14.176  0.00  0.00    +0.000 HD
ENDBRANCH   6  13
BRANCH   1  18
ATOM     18  O   UNL     1       7.533   4.623  18.031  0.00  0.00    +0.000 OA
BRANCH  18  20
ATOM     19  C   UNL     1       7.859   6.988  18.250  0.00  0.00    +0.000 C 
ATOM     20  C   UNL     1       7.817   5.654  18.978  0.00  0.00    +0.000 C 
ENDBRANCH  18  20
ENDBRANCH   1  18
TORSDOF 4
ENDMDL
MODEL 3
REMARK VINA RESULT:      -7.1      1.126      1.187
REMARK  Name = 
REMARK  5 active torsions:
REMARK  status: ('A' for Active; 'I' for Inactive)
REMARK    1  A    between atoms: C_1  and  C_2
REMARK    2  A    between atoms: C_2  and  O_3
REMARK    3  A    between atoms: O_3  and  C_4
REMARK    4  A    between atoms: C_6  and  C_7
REMARK    5  A    between atoms: C_15  and  C_16
REMARK                            x       y       z     vdW  Elec       q    Type
REMARK                         _______ _______ _______ _____ _____    ______ ____
ROOT
ATOM      1  C   UNL     1       5.852   5.804  16.569  0.00  0.00    +0.000 A 
ATOM      2  C   UNL     1       5.086   5.620  17.743  0.00  0.00    +0.000 A 
ATOM      3  C   UNL     1       4.191   4.545  17.905  0.00  0.00    +0.000 A 
ATOM      4  C   UNL     1       4.034   3.689  16.805  0.00  0.00    +0.000 A 
ATOM      5  C   UNL     1       4.823   3.820  15.660  0.00  0.00    +0.000 A 
ATOM      6  C   UNL     1       5.768   4.851  15.543  0.00  0.00    +0.000 A 
ENDROOT
BRANCH   3   7
ATOM      7  C   UNL     1       3.499   4.267  19.185  0.00  0.00    +0.000 A 
ATOM      8  C   UNL     1       2.618   5.203  19.757  0.00  0.00    +0.000 A 
ATOM      9  C   UNL     1       1.943   4.931  20.946  0.00  0.00    +0.000 A 
ATOM     10  C   UNL     1       2.154   3.707  21.548  0.00  0.00    +0.000 A 
ATOM     11  N   UNL     1       2.982   2.768  21.049  0.00  0.00    +0.000 NA
ATOM     12  C   UNL     1       3.627   3.068  19.890  0.00  0.00    +0.000 A 
ENDBRANCH   3   7
BRANCH   6  13
ATOM     13  C   UNL     1       6.728   4.769  14.407  0.00  0.00    +0.000 C 
ATOM     14  N   UNL     1       7.863   5.533  14.477  0.00  0.00    +0.000 N 
ATOM     15  O   UNL     1       6.527   4.074  13.423  0.00  0.00    +0.000 OA
ATOM     16  H   UNL     1       8.129   6.096  15.270  0.00  0.00    +0.000 HD
ATOM     17  H   UNL     1       8.500   5.478  13.692  0.00  0.00    +0.000 HD
ENDBRANCH   6  13
BRANCH   1  18
ATOM     18  O   UNL     1       6.652   6.913  16.640  0.00  0.00    +0.000 OA
BRANCH  18  20
ATOM     19  C   UNL     1       8.030   8.495  17.800  0.00  0.00    +0.000 C 
ATOM     20  C   UNL     1       7.508   7.068  17.773  0.00  0.00    +0.000 C 
ENDBRANCH  18  20
ENDBRANCH   1  18
TORSDOF 4
ENDMDL
MODEL 4
REMARK VINA RESULT:      -7.0      3.645      4.649
REMARK  Name = 
REMARK  5 active torsions:
REMARK  status: ('A' for Active; 'I' for Inactive)
REMARK    1  A    between atoms: C_1  and  C_2
REMARK    2  A    between atoms: C_2  and  O_3
REMARK    3  A    between atoms: O_3  and  C_4
REMARK    4  A    between atoms: C_6  and  C_7
REMARK    5  A    between atoms: C_15  and  C_16
REMARK                            x       y       z     vdW  Elec       q    Type
REMARK                         _______ _______ _______ _____ _____    ______ ____
ROOT
ATOM      1  C   UNL     1       4.676   4.532  19.024  0.00  0.00    +0.000 A 
ATOM      2  C   UNL     1       4.168   5.852  19.015  0.00  0.00    +0.000 A 
ATOM      3  C   UNL     1       2.818   6.144  18.742  0.00  0.00    +0.000 A 
ATOM      4  C   UNL     1       1.999   5.059  18.399  0.00  0.00    +0.000 A 
ATOM      5  C   UNL     1       2.467   3.744  18.457  0.00  0.00    +0.000 A 
ATOM      6  C   UNL     1       3.795   3.461  18.809  0.00  0.00    +0.000 A 
ENDROOT
BRANCH   3   7
ATOM      7  C   UNL     1       2.252   7.506  18.877  0.00  0.00    +0.000 A 
ATOM      8  C   UNL     1       2.210   8.392  17.784  0.00  0.00    +0.000 A 
ATOM      9  C   UNL     1       1.651   9.663  17.902  0.00  0.00    +0.000 A 
ATOM     10  C   UNL     1       1.125  10.031  19.123  0.00  0.00    +0.000 A 
ATOM     11  N   UNL     1       1.131   9.229  20.206  0.00  0.00    +0.000 NA
ATOM     12  C   UNL     1       1.688   7.997  20.057  0.00  0.00    +0.000 A 
ENDBRANCH   3   7
BRANCH   6  13
ATOM     13  C   UNL     1       4.139   2.038  19.084  0.00  0.00    +0.000 C 
ATOM     14  N   UNL     1       5.049   1.784  20.076  0.00  0.00    +0.000 N 
ATOM     15  O   UNL     1       3.662   1.111  18.450  0.00  0.00    +0.000 OA
ATOM     16  H   UNL     1       5.454   2.485  20.677  0.00  0.00    +0.000 HD
ATOM     17  H   UNL     1       5.284   0.814  20.244  0.00  0.00    +0.000 HD
ENDBRANCH   6  13
BRANCH   1  18
ATOM     18  O   UNL     1       6.013   4.493  19.318  0.00  0.00    +0.000 OA
BRANCH  18  20
ATOM     19  C   UNL     1       7.851   5.986  18.948  0.00  0.00    +0.000 C 
ATOM     20  C   UNL     1       6.944   4.935  18.329  0.00  0.00    +0.000 C 
ENDBRANCH  18  20
ENDBRANCH   1  18
TORSDOF 4
ENDMDL
MODEL 5
REMARK VINA RESULT:      -7.0      3.683      6.613
REMARK  Name = 
REMARK  5 active torsions:
REMARK  status: ('A' for Active; 'I' for Inactive)
REMARK    1  A    between atoms: C_1  and  C_2
REMARK    2  A    between atoms: C_2  and  O_3
REMARK    3  A    between atoms: O_3  and  C_4
REMARK    4  A    between atoms: C_6  and  C_7
REMARK    5  A    between atoms: C_15  and  C_16
REMARK                            x       y       z     vdW  Elec       q    Type
REMARK                         _______ _______ _______ _____ _____    ______ ____
ROOT
ATOM      1  C   UNL     1       2.389   6.307  19.772  0.00  0.00    +0.000 A 
ATOM      2  C   UNL     1       3.329   5.675  18.926  0.00  0.00    +0.000 A 
ATOM      3  C   UNL     1       3.875   6.307  17.792  0.00  0.00    +0.000 A 
ATOM      4  C   UNL     1       3.383   7.584  17.488  0.00  0.00    +0.000 A 
ATOM      5  C   UNL     1       2.498   8.247  18.342  0.00  0.00    +0.000 A 
ATOM      6  C   UNL     1       2.022   7.636  19.512  0.00  0.00    +0.000 A 
ENDROOT
BRANCH   3   7
ATOM      7  C   UNL     1       4.966   5.706  16.990  0.00  0.00    +0.000 A 
ATOM      8  C   UNL     1       4.829   4.432  16.409  0.00  0.00    +0.000 A 
ATOM      9  C   UNL     1       5.843   3.878  15.629  0.00  0.00    +0.000 A 
ATOM     10  C   UNL     1       6.990   4.620  15.431  0.00  0.00    +0.000 A 
ATOM     11  N   UNL     1       7.180   5.846  15.957  0.00  0.00    +0.000 NA
ATOM     12  C   UNL     1       6.172   6.354  16.715  0.00  0.00    +0.000 A 
ENDBRANCH   3   7
BRANCH   6  13
ATOM     13  C   UNL     1       1.287   8.497  20.479  0.00  0.00    +0.000 C 
ATOM     14  N   UNL     1       1.582   8.355  21.810  0.00  0.00    +0.000 N 
ATOM     15  O   UNL     1       0.429   9.294  20.133  0.00  0.00    +0.000 OA
ATOM     16  H   UNL     1       2.307   7.758  22.177  0.00  0.00    +0.000 HD
ATOM     17  H   UNL     1       1.065   8.936  22.458  0.00  0.00    +0.000 HD
ENDBRANCH   6  13
BRANCH   1  18
ATOM     18  O   UNL     1       2.003   5.502  20.811  0.00  0.00    +0.000 OA
BRANCH  18  20
ATOM     19  C   UNL     1       1.702   3.194  21.382  0.00  0.00    +0.000 C 
ATOM     20  C   UNL     1       1.211   4.349  20.525  0.00  0.00    +0.000 C 
ENDBRANCH  18  20
ENDBRANCH   1  18
TORSDOF 4
ENDMDL
MODEL 6
REMARK VINA RESULT:      -7.0      1.204      1.432
REMARK  Name = 
REMARK  5 active torsions:
REMARK  status: ('A' for Active; 'I' for Inactive)
REMARK    1  A    between atoms: C_1  and  C_2
REMARK    2  A    between atoms: C_2  and  O_3
REMARK    3  A    between atoms: O_3  and  C_4
REMARK    4  A    between atoms: C_6  and  C_7
REMARK    5  A    between atoms: C_15  and  C_16
REMARK                            x       y       z     vdW  Elec       q    Type
REMARK                         _______ _______ _______ _____ _____    ______ ____
ROOT
ATOM      1  C   UNL     1       6.482   5.131  17.119  0.00  0.00    +0.000 A 
ATOM      2  C   UNL     1       5.682   4.938  18.269  0.00  0.00    +0.000 A 
ATOM      3  C   UNL     1       4.374   4.422  18.206  0.00  0.00    +0.000 A 
ATOM      4  C   UNL     1       3.859   4.173  16.925  0.00  0.00    +0.000 A 
ATOM      5  C   UNL     1       4.652   4.302  15.782  0.00  0.00    +0.000 A 
ATOM      6  C   UNL     1       5.981   4.743  15.867  0.00  0.00    +0.000 A 
ENDROOT
BRANCH   3   7
ATOM      7  C   UNL     1       3.590   4.081  19.415  0.00  0.00    +0.000 A 
ATOM      8  C   UNL     1       3.650   2.795  19.986  0.00  0.00    +0.000 A 
ATOM      9  C   UNL     1       2.935   2.481  21.141  0.00  0.00    +0.000 A 
ATOM     10  C   UNL     1       2.171   3.472  21.723  0.00  0.00    +0.000 A 
ATOM     11  N   UNL     1       2.075   4.722  21.227  0.00  0.00    +0.000 NA
ATOM     12  C   UNL     1       2.781   4.993  20.097  0.00  0.00    +0.000 A 
ENDBRANCH   3   7
BRANCH   6  13
ATOM     13  C   UNL     1       6.820   4.616  14.642  0.00  0.00    +0.000 C 
ATOM     14  N   UNL     1       6.512   3.613  13.761  0.00  0.00    +0.000 N 
ATOM     15  O   UNL     1       7.769   5.350  14.415  0.00  0.00    +0.000 OA
ATOM     16  H   UNL     1       5.720   2.995  13.848  0.00  0.00    +0.000 HD
ATOM     17  H   UNL     1       7.098   3.530  12.940  0.00  0.00    +0.000 HD
ENDBRANCH   6  13
BRANCH   1  18
ATOM     18  O   UNL     1       7.716   5.639  17.425  0.00  0.00    +0.000 OA
BRANCH  18  20
ATOM     19  C   UNL     1       7.813   8.025  17.641  0.00  0.00    +0.000 C 
ATOM     20  C   UNL     1       7.803   6.697  18.381  0.00  0.00    +0.000 C 
ENDBRANCH  18  20
ENDBRANCH   1  18
TORSDOF 4
ENDMDL
MODEL 7
REMARK VINA RESULT:      -6.9      3.653      4.720
REMARK  Name = 
REMARK  5 active torsions:
REMARK  status: ('A' for Active; 'I' for Inactive)
REMARK    1  A    between atoms: C_1  and  C_2
REMARK    2  A    between atoms: C_2  and  O_3
REMARK    3  A    between atoms: O_3  and  C_4
REMARK    4  A    between atoms: C_6  and  C_7
REMARK    5  A    between atoms: C_15  and  C_16
REMARK                            x       y       z     vdW  Elec       q    Type
REMARK                         _______ _______ _______ _____ _____    ______ ____
ROOT
ATOM      1  C   UNL     1       4.702   4.530  18.940  0.00  0.00    +0.000 A 
ATOM      2  C   UNL     1       4.207   5.852  18.877  0.00  0.00    +0.000 A 
ATOM      3  C   UNL     1       2.862   6.146  18.578  0.00  0.00    +0.000 A 
ATOM      4  C   UNL     1       2.037   5.056  18.267  0.00  0.00    +0.000 A 
ATOM      5  C   UNL     1       2.493   3.740  18.379  0.00  0.00    +0.000 A 
ATOM      6  C   UNL     1       3.815   3.459  18.755  0.00  0.00    +0.000 A 
ENDROOT
BRANCH   3   7
ATOM      7  C   UNL     1       2.307   7.517  18.657  0.00  0.00    +0.000 A 
ATOM      8  C   UNL     1       1.676   7.984  19.826  0.00  0.00    +0.000 A 
ATOM      9  C   UNL     1       1.179   9.283  19.912  0.00  0.00    +0.000 A 
ATOM     10  C   UNL     1       1.331  10.111  18.818  0.00  0.00    +0.000 A 
ATOM     11  N   UNL     1       1.927   9.724  17.672  0.00  0.00    +0.000 NA
ATOM     12  C   UNL     1       2.397   8.449  17.621  0.00  0.00    +0.000 A 
ENDBRANCH   3   7
BRANCH   6  13
ATOM     13  C   UNL     1       4.143   2.044  19.086  0.00  0.00    +0.000 C 
ATOM     14  N   UNL     1       5.008   1.818  20.125  0.00  0.00    +0.000 N 
ATOM     15  O   UNL     1       3.691   1.099  18.459  0.00  0.00    +0.000 OA
ATOM     16  H   UNL     1       5.388   2.536  20.722  0.00  0.00    +0.000 HD
ATOM     17  H   UNL     1       5.233   0.853  20.330  0.00  0.00    +0.000 HD
ENDBRANCH   6  13
BRANCH   1  18
ATOM     18  O   UNL     1       6.036   4.490  19.250  0.00  0.00    +0.000 OA
BRANCH  18  20
ATOM     19  C   UNL     1       7.862   6.015  18.956  0.00  0.00    +0.000 C 
ATOM     20  C   UNL     1       6.976   4.974  18.290  0.00  0.00    +0.000 C 
ENDBRANCH  18  20
ENDBRANCH   1  18
TORSDOF 4
ENDMDL
MODEL 8
REMARK VINA RESULT:      -6.9      1.337      1.584
REMARK  Name = 
REMARK  5 active torsions:
REMARK  status: ('A' for Active; 'I' for Inactive)
REMARK    1  A    between atoms: C_1  and  C_2
REMARK    2  A    between atoms: C_2  and  O_3
REMARK    3  A    between atoms: O_3  and  C_4
REMARK    4  A    between atoms: C_6  and  C_7
REMARK    5  A    between atoms: C_15  and  C_16
REMARK                            x       y       z     vdW  Elec       q    Type
REMARK                         _______ _______ _______ _____ _____    ______ ____
ROOT
ATOM      1  C   UNL     1       5.730   5.833  16.525  0.00  0.00    +0.000 A 
ATOM      2  C   UNL     1       4.938   5.641  17.679  0.00  0.00    +0.000 A 
ATOM      3  C   UNL     1       4.077   4.537  17.835  0.00  0.00    +0.000 A 
ATOM      4  C   UNL     1       3.981   3.659  16.745  0.00  0.00    +0.000 A 
ATOM      5  C   UNL     1       4.797   3.800  15.620  0.00  0.00    +0.000 A 
ATOM      6  C   UNL     1       5.708   4.861  15.512  0.00  0.00    +0.000 A 
ENDROOT
BRANCH   3   7
ATOM      7  C   UNL     1       3.360   4.254  19.099  0.00  0.00    +0.000 A 
ATOM      8  C   UNL     1       3.537   3.036  19.783  0.00  0.00    +0.000 A 
ATOM      9  C   UNL     1       2.885   2.780  20.989  0.00  0.00    +0.000 A 
ATOM     10  C   UNL     1       2.064   3.762  21.505  0.00  0.00    +0.000 A 
ATOM     11  N   UNL     1       1.856   4.949  20.900  0.00  0.00    +0.000 NA
ATOM     12  C   UNL     1       2.504   5.163  19.724  0.00  0.00    +0.000 A 
ENDBRANCH   3   7
BRANCH   6  13
ATOM     13  C   UNL     1       6.702   4.796  14.405  0.00  0.00    +0.000 C 
ATOM     14  N   UNL     1       7.842   5.547  14.527  0.00  0.00    +0.000 N 
ATOM     15  O   UNL     1       6.525   4.126  13.399  0.00  0.00    +0.000 OA
ATOM     16  H   UNL     1       8.088   6.089  15.341  0.00  0.00    +0.000 HD
ATOM     17  H   UNL     1       8.502   5.504  13.762  0.00  0.00    +0.000 HD
ENDBRANCH   6  13
BRANCH   1  18
ATOM     18  O   UNL     1       6.488   6.971  16.599  0.00  0.00    +0.000 OA
BRANCH  18  20
ATOM     19  C   UNL     1       8.021   8.491  17.642  0.00  0.00    +0.000 C 
ATOM     20  C   UNL     1       7.459   7.078  17.641  0.00  0.00    +0.000 C 
ENDBRANCH  18  20
ENDBRANCH   1  18
TORSDOF 4
ENDMDL
MODEL 9
REMARK VINA RESULT:      -6.9      2.743      6.269
REMARK  Name = 
REMARK  5 active torsions:
REMARK  status: ('A' for Active; 'I' for Inactive)
REMARK    1  A    between atoms: C_1  and  C_2
REMARK    2  A    between atoms: C_2  and  O_3
REMARK    3  A    between atoms: O_3  and  C_4
REMARK    4  A    between atoms: C_6  and  C_7
REMARK    5  A    between atoms: C_15  and  C_16
REMARK                            x       y       z     vdW  Elec       q    Type
REMARK                         _______ _______ _______ _____ _____    ______ ____
ROOT
ATOM      1  C   UNL     1       2.829   4.996  19.467  0.00  0.00    +0.000 A 
ATOM      2  C   UNL     1       3.683   5.256  18.370  0.00  0.00    +0.000 A 
ATOM      3  C   UNL     1       4.741   4.399  18.012  0.00  0.00    +0.000 A 
ATOM      4  C   UNL     1       4.963   3.295  18.847  0.00  0.00    +0.000 A 
ATOM      5  C   UNL     1       4.097   2.989  19.900  0.00  0.00    +0.000 A 
ATOM      6  C   UNL     1       2.999   3.811  20.198  0.00  0.00    +0.000 A 
ENDROOT
BRANCH   3   7
ATOM      7  C   UNL     1       5.542   4.589  16.780  0.00  0.00    +0.000 A 
ATOM      8  C   UNL     1       5.164   3.991  15.563  0.00  0.00    +0.000 A 
ATOM      9  C   UNL     1       5.900   4.193  14.397  0.00  0.00    +0.000 A 
ATOM     10  C   UNL     1       7.011   5.009  14.462  0.00  0.00    +0.000 A 
ATOM     11  N   UNL     1       7.423   5.612  15.596  0.00  0.00    +0.000 NA
ATOM     12  C   UNL     1       6.684   5.389  16.715  0.00  0.00    +0.000 A 
ENDBRANCH   3   7
BRANCH   6  13
ATOM     13  C   UNL     1       1.998   3.284  21.167  0.00  0.00    +0.000 C 
ATOM     14  N   UNL     1       0.701   3.166  20.741  0.00  0.00    +0.000 N 
ATOM     15  O   UNL     1       2.287   2.982  22.314  0.00  0.00    +0.000 OA
ATOM     16  H   UNL     1       0.387   3.347  19.800  0.00  0.00    +0.000 HD
ATOM     17  H   UNL     1       0.029   2.820  21.413  0.00  0.00    +0.000 HD
ENDBRANCH   6  13
BRANCH   1  18
ATOM     18  O   UNL     1       1.873   5.965  19.621  0.00  0.00    +0.000 OA
BRANCH  18  20
ATOM     19  C   UNL     1       1.476   8.032  20.767  0.00  0.00    +0.000 C 
ATOM     20  C   UNL     1       2.288   7.330  19.691  0.00  0.00    +0.000 C 
ENDBRANCH  18  20
ENDBRANCH   1  18
TORSDOF 4
ENDMDL
