MODEL 1
REMARK VINA RESULT:      -7.7      0.000      0.000
REMARK  Name = 
REMARK  10 active torsions:
REMARK  status: ('A' for Active; 'I' for Inactive)
REMARK    1  A    between atoms: C_1  and  O_2
REMARK    2  A    between atoms: O_2  and  C_3
REMARK    3  A    between atoms: C_8  and  C_9
REMARK    4  A    between atoms: C_9  and  C_10
REMARK    5  A    between atoms: C_10  and  C_11
REMARK    6  A    between atoms: N_13  and  C_14
REMARK    7  A    between atoms: C_14  and  C_15
REMARK    8  A    between atoms: C_14  and  C_22
REMARK    9  A    between atoms: C_15  and  C_16
REMARK   10  A    between atoms: C_22  and  C_24
REMARK                            x       y       z     vdW  Elec       q    Type
REMARK                         _______ _______ _______ _____ _____    ______ ____
ROOT
ATOM      1  C   UNL     1       7.859   7.658  17.949  0.00  0.00    +0.000 C 
ATOM      2  O   UNL     1       8.305   7.036  18.902  0.00  0.00    +0.000 OA
ATOM      3  N   UNL     1       6.876   7.183  17.106  0.00  0.00    +0.000 N 
ATOM      4  H   UNL     1       6.461   7.854  16.460  0.00  0.00    +0.000 HD
ENDROOT
BRANCH   1   5
ATOM      5  C   UNL     1       8.314   9.042  17.506  0.00  0.00    +0.000 C 
BRANCH   5   6
ATOM      6  C   UNL     1       8.378  10.092  18.608  0.00  0.00    +0.000 C 
BRANCH   6  12
ATOM      7  C   UNL     1       9.028  12.367  17.614  0.00  0.00    +0.000 A 
ATOM      8  C   UNL     1      10.010  13.317  17.307  0.00  0.00    +0.000 A 
ATOM      9  C   UNL     1      11.360  13.031  17.509  0.00  0.00    +0.000 A 
ATOM     10  C   UNL     1      11.733  11.810  18.059  0.00  0.00    +0.000 A 
ATOM     11  C   UNL     1      10.757  10.891  18.444  0.00  0.00    +0.000 A 
ATOM     12  C   UNL     1       9.392  11.162  18.241  0.00  0.00    +0.000 A 
BRANCH   7  14
ATOM     13  C   UNL     1       7.204  13.870  17.535  0.00  0.00    +0.000 C 
ATOM     14  O   UNL     1       7.701  12.548  17.323  0.00  0.00    +0.000 OA
ENDBRANCH   7  14
ENDBRANCH   6  12
ENDBRANCH   5   6
ENDBRANCH   1   5
BRANCH   3  15
ATOM     15  C   UNL     1       6.152   5.924  17.304  0.00  0.00    +0.000 C 
BRANCH  15  16
ATOM     16  C   UNL     1       6.906   4.737  16.645  0.00  0.00    +0.000 C 
ATOM     17  O   UNL     1       8.019   4.365  17.034  0.00  0.00    +0.000 OA
BRANCH  16  18
ATOM     18  C   UNL     1       6.357   4.174  15.353  0.00  0.00    +0.000 C 
ATOM     19 CL   UNL     1       7.094   4.968  13.953  0.00  0.00    +0.000 Cl
ENDBRANCH  16  18
ENDBRANCH  15  16
BRANCH  15  20
ATOM     20  C   UNL     1       4.668   5.987  16.889  0.00  0.00    +0.000 C 
BRANCH  20  21
ATOM     21  C   UNL     1       3.738   5.327  17.883  0.00  0.00    +0.000 A 
ATOM     22  C   UNL     1       2.728   4.466  17.444  0.00  0.00    +0.000 A 
ATOM     23  C   UNL     1       1.767   3.991  18.334  0.00  0.00    +0.000 A 
ATOM     24  C   UNL     1       1.822   4.357  19.677  0.00  0.00    +0.000 A 
ATOM     25  C   UNL     1       2.863   5.161  20.138  0.00  0.00    +0.000 A 
ATOM     26  C   UNL     1       3.826   5.632  19.248  0.00  0.00    +0.000 A 
ENDBRANCH  20  21
ENDBRANCH  15  20
ENDBRANCH   3  15
TORSDOF 9
ENDMDL
MODEL 2
REMARK VINA RESULT:      -7.6      1.732      2.014
REMARK  Name = 
REMARK  10 active torsions:
REMARK  status: ('A' for Active; 'I' for Inactive)
REMARK    1  A    between atoms: C_1  and  O_2
REMARK    2  A    between atoms: O_2  and  C_3
REMARK    3  A    between atoms: C_8  and  C_9
REMARK    4  A    between atoms: C_9  and  C_10
REMARK    5  A    between atoms: C_10  and  C_11
REMARK    6  A    between atoms: N_13  and  C_14
REMARK    7  A    between atoms: C_14  and  C_15
REMARK    8  A    between atoms: C_14  and  C_22
REMARK    9  A    between atoms: C_15  and  C_16
REMARK   10  A    between atoms: C_22  and  C_24
REMARK                            x       y       z     vdW  Elec       q    Type
REMARK                         _______ _______ _______ _____ _____    ______ ____
ROOT
ATOM      1  C   UNL     1       7.747   7.798  17.897  0.00  0.00    +0.000 C 
ATOM      2  O   UNL     1       7.170   8.020  16.842  0.00  0.00    +0.000 OA
ATOM      3  N   UNL     1       7.540   6.673  18.670  0.00  0.00    +0.000 N 
ATOM      4  H   UNL     1       8.201   6.511  19.430  0.00  0.00    +0.000 HD
ENDROOT
BRANCH   1   5
ATOM      5  C   UNL     1       8.766   8.716  18.558  0.00  0.00    +0.000 C 
BRANCH   5   6
ATOM      6  C   UNL     1       8.551  10.205  18.324  0.00  0.00    +0.000 C 
BRANCH   6  12
ATOM      7  C   UNL     1      10.050  11.319  20.085  0.00  0.00    +0.000 A 
ATOM      8  C   UNL     1      11.215  12.026  20.410  0.00  0.00    +0.000 A 
ATOM      9  C   UNL     1      12.060  12.497  19.406  0.00  0.00    +0.000 A 
ATOM     10  C   UNL     1      11.770  12.227  18.074  0.00  0.00    +0.000 A 
ATOM     11  C   UNL     1      10.657  11.453  17.746  0.00  0.00    +0.000 A 
ATOM     12  C   UNL     1       9.790  10.976  18.746  0.00  0.00    +0.000 A 
BRANCH   7  14
ATOM     13  C   UNL     1       8.708  11.971  21.919  0.00  0.00    +0.000 C 
ATOM     14  O   UNL     1       9.123  10.941  21.021  0.00  0.00    +0.000 OA
ENDBRANCH   7  14
ENDBRANCH   6  12
ENDBRANCH   5   6
ENDBRANCH   1   5
BRANCH   3  15
ATOM     15  C   UNL     1       6.695   5.542  18.277  0.00  0.00    +0.000 C 
BRANCH  15  16
ATOM     16  C   UNL     1       7.389   4.681  17.187  0.00  0.00    +0.000 C 
ATOM     17  O   UNL     1       8.425   4.044  17.409  0.00  0.00    +0.000 OA
BRANCH  16  18
ATOM     18  C   UNL     1       6.901   4.810  15.761  0.00  0.00    +0.000 C 
ATOM     19 CL   UNL     1       5.817   3.475  15.340  0.00  0.00    +0.000 Cl
ENDBRANCH  16  18
ENDBRANCH  15  16
BRANCH  15  20
ATOM     20  C   UNL     1       5.257   5.942  17.892  0.00  0.00    +0.000 C 
BRANCH  20  21
ATOM     21  C   UNL     1       4.200   5.273  18.741  0.00  0.00    +0.000 A 
ATOM     22  C   UNL     1       4.101   3.879  18.783  0.00  0.00    +0.000 A 
ATOM     23  C   UNL     1       3.028   3.264  19.425  0.00  0.00    +0.000 A 
ATOM     24  C   UNL     1       2.055   4.040  20.050  0.00  0.00    +0.000 A 
ATOM     25  C   UNL     1       2.179   5.428  20.072  0.00  0.00    +0.000 A 
ATOM     26  C   UNL     1       3.254   6.042  19.433  0.00  0.00    +0.000 A 
ENDBRANCH  20  21
ENDBRANCH  15  20
ENDBRANCH   3  15
TORSDOF 9
ENDMDL
MODEL 3
REMARK VINA RESULT:      -7.4      5.239      7.481
REMARK  Name = 
REMARK  10 active torsions:
REMARK  status: ('A' for Active; 'I' for Inactive)
REMARK    1  A    between atoms: C_1  and  O_2
REMARK    2  A    between atoms: O_2  and  C_3
REMARK    3  A    between atoms: C_8  and  C_9
REMARK    4  A    between atoms: C_9  and  C_10
REMARK    5  A    between atoms: C_10  and  C_11
REMARK    6  A    between atoms: N_13  and  C_14
REMARK    7  A    between atoms: C_14  and  C_15
REMARK    8  A    between atoms: C_14  and  C_22
REMARK    9  A    between atoms: C_15  and  C_16
REMARK   10  A    between atoms: C_22  and  C_24
REMARK                            x       y       z     vdW  Elec       q    Type
REMARK                         _______ _______ _______ _____ _____    ______ ____
ROOT
ATOM      1  C   UNL     1       2.212   8.142  18.583  0.00  0.00    +0.000 C 
ATOM      2  O   UNL     1       2.102   7.784  19.747  0.00  0.00    +0.000 OA
ATOM      3  N   UNL     1       3.082   7.573  17.677  0.00  0.00    +0.000 N 
ATOM      4  H   UNL     1       2.959   7.831  16.697  0.00  0.00    +0.000 HD
ENDROOT
BRANCH   1   5
ATOM      5  C   UNL     1       1.438   9.280  17.932  0.00  0.00    +0.000 C 
BRANCH   5   6
ATOM      6  C   UNL     1       0.778  10.257  18.896  0.00  0.00    +0.000 C 
BRANCH   6  12
ATOM      7  C   UNL     1      -1.475  11.469  19.101  0.00  0.00    +0.000 A 
ATOM      8  C   UNL     1      -2.781  11.683  18.641  0.00  0.00    +0.000 A 
ATOM      9  C   UNL     1      -3.310  10.892  17.622  0.00  0.00    +0.000 A 
ATOM     10  C   UNL     1      -2.523   9.912  17.027  0.00  0.00    +0.000 A 
ATOM     11  C   UNL     1      -1.196   9.748  17.423  0.00  0.00    +0.000 A 
ATOM     12  C   UNL     1      -0.649  10.533  18.454  0.00  0.00    +0.000 A 
BRANCH   7  14
ATOM     13  C   UNL     1      -1.627  13.333  20.548  0.00  0.00    +0.000 C 
ATOM     14  O   UNL     1      -0.948  12.132  20.180  0.00  0.00    +0.000 OA
ENDBRANCH   7  14
ENDBRANCH   6  12
ENDBRANCH   5   6
ENDBRANCH   1   5
BRANCH   3  15
ATOM     15  C   UNL     1       3.906   6.391  17.948  0.00  0.00    +0.000 C 
BRANCH  15  16
ATOM     16  C   UNL     1       5.327   6.552  17.343  0.00  0.00    +0.000 C 
ATOM     17  O   UNL     1       5.511   6.924  16.179  0.00  0.00    +0.000 OA
BRANCH  16  18
ATOM     18  C   UNL     1       6.502   6.024  18.136  0.00  0.00    +0.000 C 
ATOM     19 CL   UNL     1       7.857   7.162  18.095  0.00  0.00    +0.000 Cl
ENDBRANCH  16  18
ENDBRANCH  15  16
BRANCH  15  20
ATOM     20  C   UNL     1       3.238   5.061  17.548  0.00  0.00    +0.000 C 
BRANCH  20  21
ATOM     21  C   UNL     1       2.582   4.346  18.708  0.00  0.00    +0.000 A 
ATOM     22  C   UNL     1       1.496   3.492  18.491  0.00  0.00    +0.000 A 
ATOM     23  C   UNL     1       0.784   2.966  19.568  0.00  0.00    +0.000 A 
ATOM     24  C   UNL     1       1.165   3.275  20.871  0.00  0.00    +0.000 A 
ATOM     25  C   UNL     1       2.286   4.071  21.099  0.00  0.00    +0.000 A 
ATOM     26  C   UNL     1       3.000   4.593  20.023  0.00  0.00    +0.000 A 
ENDBRANCH  20  21
ENDBRANCH  15  20
ENDBRANCH   3  15
TORSDOF 9
ENDMDL
MODEL 4
REMARK VINA RESULT:      -7.4      4.882      8.247
REMARK  Name = 
REMARK  10 active torsions:
REMARK  status: ('A' for Active; 'I' for Inactive)
REMARK    1  A    between atoms: C_1  and  O_2
REMARK    2  A    between atoms: O_2  and  C_3
REMARK    3  A    between atoms: C_8  and  C_9
REMARK    4  A    between atoms: C_9  and  C_10
REMARK    5  A    between atoms: C_10  and  C_11
REMARK    6  A    between atoms: N_13  and  C_14
REMARK    7  A    between atoms: C_14  and  C_15
REMARK    8  A    between atoms: C_14  and  C_22
REMARK    9  A    between atoms: C_15  and  C_16
REMARK   10  A    between atoms: C_22  and  C_24
REMARK                            x       y       z     vdW  Elec       q    Type
REMARK                         _______ _______ _______ _____ _____    ______ ____
ROOT
ATOM      1  C   UNL     1       4.439   4.401  16.541  0.00  0.00    +0.000 C 
ATOM      2  O   UNL     1       4.407   5.620  16.632  0.00  0.00    +0.000 OA
ATOM      3  N   UNL     1       5.482   3.695  15.976  0.00  0.00    +0.000 N 
ATOM      4  H   UNL     1       5.480   2.684  16.116  0.00  0.00    +0.000 HD
ENDROOT
BRANCH   1   5
ATOM      5  C   UNL     1       3.343   3.451  17.002  0.00  0.00    +0.000 C 
BRANCH   5   6
ATOM      6  C   UNL     1       2.084   4.118  17.539  0.00  0.00    +0.000 C 
BRANCH   6  12
ATOM      7  C   UNL     1       2.489   4.777  19.987  0.00  0.00    +0.000 A 
ATOM      8  C   UNL     1       2.348   4.501  21.353  0.00  0.00    +0.000 A 
ATOM      9  C   UNL     1       1.807   3.289  21.779  0.00  0.00    +0.000 A 
ATOM     10  C   UNL     1       1.363   2.363  20.842  0.00  0.00    +0.000 A 
ATOM     11  C   UNL     1       1.423   2.663  19.481  0.00  0.00    +0.000 A 
ATOM     12  C   UNL     1       1.973   3.878  19.035  0.00  0.00    +0.000 A 
BRANCH   7  14
ATOM     13  C   UNL     1       2.328   7.080  19.479  0.00  0.00    +0.000 C 
ATOM     14  O   UNL     1       3.125   5.896  19.514  0.00  0.00    +0.000 OA
ENDBRANCH   7  14
ENDBRANCH   6  12
ENDBRANCH   5   6
ENDBRANCH   1   5
BRANCH   3  15
ATOM     15  C   UNL     1       6.738   4.295  15.519  0.00  0.00    +0.000 C 
BRANCH  15  16
ATOM     16  C   UNL     1       7.342   5.221  16.609  0.00  0.00    +0.000 C 
ATOM     17  O   UNL     1       7.658   6.394  16.378  0.00  0.00    +0.000 OA
BRANCH  16  18
ATOM     18  C   UNL     1       7.758   4.597  17.922  0.00  0.00    +0.000 C 
ATOM     19 CL   UNL     1       7.893   5.823  19.192  0.00  0.00    +0.000 Cl
ENDBRANCH  16  18
ENDBRANCH  15  16
BRANCH  15  20
ATOM     20  C   UNL     1       6.635   4.986  14.145  0.00  0.00    +0.000 C 
BRANCH  20  21
ATOM     21  C   UNL     1       6.271   4.039  13.023  0.00  0.00    +0.000 A 
ATOM     22  C   UNL     1       4.933   3.844  12.665  0.00  0.00    +0.000 A 
ATOM     23  C   UNL     1       4.582   2.851  11.752  0.00  0.00    +0.000 A 
ATOM     24  C   UNL     1       5.570   2.058  11.173  0.00  0.00    +0.000 A 
ATOM     25  C   UNL     1       6.912   2.288  11.472  0.00  0.00    +0.000 A 
ATOM     26  C   UNL     1       7.263   3.283  12.382  0.00  0.00    +0.000 A 
ENDBRANCH  20  21
ENDBRANCH  15  20
ENDBRANCH   3  15
TORSDOF 9
ENDMDL
MODEL 5
REMARK VINA RESULT:      -7.3      4.987      8.490
REMARK  Name = 
REMARK  10 active torsions:
REMARK  status: ('A' for Active; 'I' for Inactive)
REMARK    1  A    between atoms: C_1  and  O_2
REMARK    2  A    between atoms: O_2  and  C_3
REMARK    3  A    between atoms: C_8  and  C_9
REMARK    4  A    between atoms: C_9  and  C_10
REMARK    5  A    between atoms: C_10  and  C_11
REMARK    6  A    between atoms: N_13  and  C_14
REMARK    7  A    between atoms: C_14  and  C_15
REMARK    8  A    between atoms: C_14  and  C_22
REMARK    9  A    between atoms: C_15  and  C_16
REMARK   10  A    between atoms: C_22  and  C_24
REMARK                            x       y       z     vdW  Elec       q    Type
REMARK                         _______ _______ _______ _____ _____    ______ ____
ROOT
ATOM      1  C   UNL     1       3.646   6.012  17.566  0.00  0.00    +0.000 C 
ATOM      2  O   UNL     1       4.376   6.964  17.799  0.00  0.00    +0.000 OA
ATOM      3  N   UNL     1       4.073   4.831  16.993  0.00  0.00    +0.000 N 
ATOM      4  H   UNL     1       3.418   4.049  17.011  0.00  0.00    +0.000 HD
ENDROOT
BRANCH   1   5
ATOM      5  C   UNL     1       2.149   5.959  17.836  0.00  0.00    +0.000 C 
BRANCH   5   6
ATOM      6  C   UNL     1       1.533   4.566  17.834  0.00  0.00    +0.000 C 
BRANCH   6  12
ATOM      7  C   UNL     1       2.465   2.607  19.205  0.00  0.00    +0.000 A 
ATOM      8  C   UNL     1       2.727   2.016  20.448  0.00  0.00    +0.000 A 
ATOM      9  C   UNL     1       2.268   2.608  21.624  0.00  0.00    +0.000 A 
ATOM     10  C   UNL     1       1.582   3.816  21.569  0.00  0.00    +0.000 A 
ATOM     11  C   UNL     1       1.389   4.453  20.342  0.00  0.00    +0.000 A 
ATOM     12  C   UNL     1       1.840   3.866  19.147  0.00  0.00    +0.000 A 
BRANCH   7  14
ATOM     13  C   UNL     1       3.955   1.189  18.038  0.00  0.00    +0.000 C 
ATOM     14  O   UNL     1       2.785   2.008  18.014  0.00  0.00    +0.000 OA
ENDBRANCH   7  14
ENDBRANCH   6  12
ENDBRANCH   5   6
ENDBRANCH   1   5
BRANCH   3  15
ATOM     15  C   UNL     1       5.472   4.512  16.697  0.00  0.00    +0.000 C 
BRANCH  15  16
ATOM     16  C   UNL     1       6.297   4.355  18.003  0.00  0.00    +0.000 C 
ATOM     17  O   UNL     1       5.779   4.018  19.074  0.00  0.00    +0.000 OA
BRANCH  16  18
ATOM     18  C   UNL     1       7.728   4.844  18.004  0.00  0.00    +0.000 C 
ATOM     19 CL   UNL     1       7.843   6.461  18.717  0.00  0.00    +0.000 Cl
ENDBRANCH  16  18
ENDBRANCH  15  16
BRANCH  15  20
ATOM     20  C   UNL     1       6.131   5.478  15.692  0.00  0.00    +0.000 C 
BRANCH  20  21
ATOM     21  C   UNL     1       6.284   4.890  14.306  0.00  0.00    +0.000 A 
ATOM     22  C   UNL     1       5.332   3.996  13.806  0.00  0.00    +0.000 A 
ATOM     23  C   UNL     1       5.554   3.325  12.606  0.00  0.00    +0.000 A 
ATOM     24  C   UNL     1       6.722   3.558  11.884  0.00  0.00    +0.000 A 
ATOM     25  C   UNL     1       7.647   4.497  12.339  0.00  0.00    +0.000 A 
ATOM     26  C   UNL     1       7.422   5.171  13.538  0.00  0.00    +0.000 A 
ENDBRANCH  20  21
ENDBRANCH  15  20
ENDBRANCH   3  15
TORSDOF 9
ENDMDL
MODEL 6
REMARK VINA RESULT:      -7.3      5.465      7.696
REMARK  Name = 
REMARK  10 active torsions:
REMARK  status: ('A' for Active; 'I' for Inactive)
REMARK    1  A    between atoms: C_1  and  O_2
REMARK    2  A    between atoms: O_2  and  C_3
REMARK    3  A    between atoms: C_8  and  C_9
REMARK    4  A    between atoms: C_9  and  C_10
REMARK    5  A    between atoms: C_10  and  C_11
REMARK    6  A    between atoms: N_13  and  C_14
REMARK    7  A    between atoms: C_14  and  C_15
REMARK    8  A    between atoms: C_14  and  C_22
REMARK    9  A    between atoms: C_15  and  C_16
REMARK   10  A    between atoms: C_22  and  C_24
REMARK                            x       y       z     vdW  Elec       q    Type
REMARK                         _______ _______ _______ _____ _____    ______ ____
ROOT
ATOM      1  C   UNL     1       2.313   7.035  19.518  0.00  0.00    +0.000 C 
ATOM      2  O   UNL     1       2.408   7.225  18.314  0.00  0.00    +0.000 OA
ATOM      3  N   UNL     1       2.761   5.899  20.159  0.00  0.00    +0.000 N 
ATOM      4  H   UNL     1       2.790   5.928  21.179  0.00  0.00    +0.000 HD
ENDROOT
BRANCH   1   5
ATOM      5  C   UNL     1       1.671   7.989  20.515  0.00  0.00    +0.000 C 
BRANCH   5   6
ATOM      6  C   UNL     1       1.034   9.234  19.911  0.00  0.00    +0.000 C 
BRANCH   6  12
ATOM      7  C   UNL     1      -0.375  11.209  20.747  0.00  0.00    +0.000 A 
ATOM      8  C   UNL     1      -1.156  11.801  21.748  0.00  0.00    +0.000 A 
ATOM      9  C   UNL     1      -1.290  11.190  22.995  0.00  0.00    +0.000 A 
ATOM     10  C   UNL     1      -0.680   9.965  23.234  0.00  0.00    +0.000 A 
ATOM     11  C   UNL     1       0.032   9.330  22.216  0.00  0.00    +0.000 A 
ATOM     12  C   UNL     1       0.182   9.935  20.956  0.00  0.00    +0.000 A 
BRANCH   7  14
ATOM     13  C   UNL     1      -1.257  12.180  18.780  0.00  0.00    +0.000 C 
ATOM     14  O   UNL     1      -0.109  11.823  19.550  0.00  0.00    +0.000 OA
ENDBRANCH   7  14
ENDBRANCH   6  12
ENDBRANCH   5   6
ENDBRANCH   1   5
BRANCH   3  15
ATOM     15  C   UNL     1       3.515   4.822  19.510  0.00  0.00    +0.000 C 
BRANCH  15  16
ATOM     16  C   UNL     1       3.233   3.455  20.191  0.00  0.00    +0.000 C 
ATOM     17  O   UNL     1       2.453   3.341  21.143  0.00  0.00    +0.000 OA
BRANCH  16  18
ATOM     18  C   UNL     1       4.108   2.281  19.817  0.00  0.00    +0.000 C 
ATOM     19 CL   UNL     1       3.579   1.556  18.291  0.00  0.00    +0.000 Cl
ENDBRANCH  16  18
ENDBRANCH  15  16
BRANCH  15  20
ATOM     20  C   UNL     1       5.022   5.115  19.368  0.00  0.00    +0.000 C 
BRANCH  20  21
ATOM     21  C   UNL     1       5.537   4.940  17.957  0.00  0.00    +0.000 A 
ATOM     22  C   UNL     1       4.646   4.782  16.891  0.00  0.00    +0.000 A 
ATOM     23  C   UNL     1       5.113   4.452  15.621  0.00  0.00    +0.000 A 
ATOM     24  C   UNL     1       6.480   4.300  15.401  0.00  0.00    +0.000 A 
ATOM     25  C   UNL     1       7.382   4.521  16.440  0.00  0.00    +0.000 A 
ATOM     26  C   UNL     1       6.914   4.854  17.709  0.00  0.00    +0.000 A 
ENDBRANCH  20  21
ENDBRANCH  15  20
ENDBRANCH   3  15
TORSDOF 9
ENDMDL
MODEL 7
REMARK VINA RESULT:      -7.3      1.262      1.498
REMARK  Name = 
REMARK  10 active torsions:
REMARK  status: ('A' for Active; 'I' for Inactive)
REMARK    1  A    between atoms: C_1  and  O_2
REMARK    2  A    between atoms: O_2  and  C_3
REMARK    3  A    between atoms: C_8  and  C_9
REMARK    4  A    between atoms: C_9  and  C_10
REMARK    5  A    between atoms: C_10  and  C_11
REMARK    6  A    between atoms: N_13  and  C_14
REMARK    7  A    between atoms: C_14  and  C_15
REMARK    8  A    between atoms: C_14  and  C_22
REMARK    9  A    between atoms: C_15  and  C_16
REMARK   10  A    between atoms: C_22  and  C_24
REMARK                            x       y       z     vdW  Elec       q    Type
REMARK                         _______ _______ _______ _____ _____    ______ ____
ROOT
ATOM      1  C   UNL     1       7.653   7.070  18.164  0.00  0.00    +0.000 C 
ATOM      2  O   UNL     1       7.318   6.341  19.086  0.00  0.00    +0.000 OA
ATOM      3  N   UNL     1       7.234   6.911  16.859  0.00  0.00    +0.000 N 
ATOM      4  H   UNL     1       7.433   7.678  16.216  0.00  0.00    +0.000 HD
ENDROOT
BRANCH   1   5
ATOM      5  C   UNL     1       8.600   8.257  18.276  0.00  0.00    +0.000 C 
BRANCH   5   6
ATOM      6  C   UNL     1       8.002   9.607  17.905  0.00  0.00    +0.000 C 
BRANCH   6  12
ATOM      7  C   UNL     1       8.729  12.065  18.032  0.00  0.00    +0.000 A 
ATOM      8  C   UNL     1       9.575  13.051  18.556  0.00  0.00    +0.000 A 
ATOM      9  C   UNL     1      10.648  12.701  19.375  0.00  0.00    +0.000 A 
ATOM     10  C   UNL     1      10.856  11.369  19.710  0.00  0.00    +0.000 A 
ATOM     11  C   UNL     1       9.970  10.389  19.260  0.00  0.00    +0.000 A 
ATOM     12  C   UNL     1       8.888  10.725  18.428  0.00  0.00    +0.000 A 
BRANCH   7  14
ATOM     13  C   UNL     1       7.048  13.573  17.333  0.00  0.00    +0.000 C 
ATOM     14  O   UNL     1       7.737  12.340  17.126  0.00  0.00    +0.000 OA
ENDBRANCH   7  14
ENDBRANCH   6  12
ENDBRANCH   5   6
ENDBRANCH   1   5
BRANCH   3  15
ATOM     15  C   UNL     1       6.242   5.924  16.422  0.00  0.00    +0.000 C 
BRANCH  15  16
ATOM     16  C   UNL     1       6.698   5.218  15.116  0.00  0.00    +0.000 C 
ATOM     17  O   UNL     1       7.780   5.467  14.575  0.00  0.00    +0.000 OA
BRANCH  16  18
ATOM     18  C   UNL     1       5.687   4.370  14.377  0.00  0.00    +0.000 C 
ATOM     19 CL   UNL     1       6.390   3.691  12.900  0.00  0.00    +0.000 Cl
ENDBRANCH  16  18
ENDBRANCH  15  16
BRANCH  15  20
ATOM     20  C   UNL     1       4.809   6.483  16.325  0.00  0.00    +0.000 C 
BRANCH  20  21
ATOM     21  C   UNL     1       3.937   6.109  17.503  0.00  0.00    +0.000 A 
ATOM     22  C   UNL     1       3.200   7.086  18.179  0.00  0.00    +0.000 A 
ATOM     23  C   UNL     1       2.533   6.776  19.363  0.00  0.00    +0.000 A 
ATOM     24  C   UNL     1       2.580   5.480  19.869  0.00  0.00    +0.000 A 
ATOM     25  C   UNL     1       3.256   4.482  19.168  0.00  0.00    +0.000 A 
ATOM     26  C   UNL     1       3.920   4.792  17.983  0.00  0.00    +0.000 A 
ENDBRANCH  20  21
ENDBRANCH  15  20
ENDBRANCH   3  15
TORSDOF 9
ENDMDL
MODEL 8
REMARK VINA RESULT:      -7.3      5.503      7.808
REMARK  Name = 
REMARK  10 active torsions:
REMARK  status: ('A' for Active; 'I' for Inactive)
REMARK    1  A    between atoms: C_1  and  O_2
REMARK    2  A    between atoms: O_2  and  C_3
REMARK    3  A    between atoms: C_8  and  C_9
REMARK    4  A    between atoms: C_9  and  C_10
REMARK    5  A    between atoms: C_10  and  C_11
REMARK    6  A    between atoms: N_13  and  C_14
REMARK    7  A    between atoms: C_14  and  C_15
REMARK    8  A    between atoms: C_14  and  C_22
REMARK    9  A    between atoms: C_15  and  C_16
REMARK   10  A    between atoms: C_22  and  C_24
REMARK                            x       y       z     vdW  Elec       q    Type
REMARK                         _______ _______ _______ _____ _____    ______ ____
ROOT
ATOM      1  C   UNL     1       2.386   6.882  19.168  0.00  0.00    +0.000 C 
ATOM      2  O   UNL     1       2.738   7.233  18.051  0.00  0.00    +0.000 OA
ATOM      3  N   UNL     1       2.383   5.573  19.604  0.00  0.00    +0.000 N 
ATOM      4  H   UNL     1       2.241   5.422  20.603  0.00  0.00    +0.000 HD
ENDROOT
BRANCH   1   5
ATOM      5  C   UNL     1       1.871   7.807  20.263  0.00  0.00    +0.000 C 
BRANCH   5   6
ATOM      6  C   UNL     1       1.211   9.090  19.776  0.00  0.00    +0.000 C 
BRANCH   6  12
ATOM      7  C   UNL     1      -0.345  10.893  20.734  0.00  0.00    +0.000 A 
ATOM      8  C   UNL     1      -1.100  11.397  21.801  0.00  0.00    +0.000 A 
ATOM      9  C   UNL     1      -1.049  10.789  23.054  0.00  0.00    +0.000 A 
ATOM     10  C   UNL     1      -0.277   9.647  23.238  0.00  0.00    +0.000 A 
ATOM     11  C   UNL     1       0.413   9.091  22.161  0.00  0.00    +0.000 A 
ATOM     12  C   UNL     1       0.378   9.696  20.892  0.00  0.00    +0.000 A 
BRANCH   7  14
ATOM     13  C   UNL     1       0.406  12.783  19.528  0.00  0.00    +0.000 C 
ATOM     14  O   UNL     1      -0.262  11.521  19.518  0.00  0.00    +0.000 OA
ENDBRANCH   7  14
ENDBRANCH   6  12
ENDBRANCH   5   6
ENDBRANCH   1   5
BRANCH   3  15
ATOM     15  C   UNL     1       2.910   4.442  18.835  0.00  0.00    +0.000 C 
BRANCH  15  16
ATOM     16  C   UNL     1       1.993   3.197  18.978  0.00  0.00    +0.000 C 
ATOM     17  O   UNL     1       2.005   2.271  18.158  0.00  0.00    +0.000 OA
BRANCH  16  18
ATOM     18  C   UNL     1       0.905   3.231  20.027  0.00  0.00    +0.000 C 
ATOM     19 CL   UNL     1       1.535   2.751  21.610  0.00  0.00    +0.000 Cl
ENDBRANCH  16  18
ENDBRANCH  15  16
BRANCH  15  20
ATOM     20  C   UNL     1       4.390   4.126  19.126  0.00  0.00    +0.000 C 
BRANCH  20  21
ATOM     21  C   UNL     1       5.277   4.231  17.905  0.00  0.00    +0.000 A 
ATOM     22  C   UNL     1       6.609   4.638  18.030  0.00  0.00    +0.000 A 
ATOM     23  C   UNL     1       7.378   4.898  16.897  0.00  0.00    +0.000 A 
ATOM     24  C   UNL     1       6.827   4.733  15.629  0.00  0.00    +0.000 A 
ATOM     25  C   UNL     1       5.521   4.263  15.493  0.00  0.00    +0.000 A 
ATOM     26  C   UNL     1       4.754   3.999  16.625  0.00  0.00    +0.000 A 
ENDBRANCH  20  21
ENDBRANCH  15  20
ENDBRANCH   3  15
TORSDOF 9
ENDMDL
MODEL 9
REMARK VINA RESULT:      -7.3      4.867      6.749
REMARK  Name = 
REMARK  10 active torsions:
REMARK  status: ('A' for Active; 'I' for Inactive)
REMARK    1  A    between atoms: C_1  and  O_2
REMARK    2  A    between atoms: O_2  and  C_3
REMARK    3  A    between atoms: C_8  and  C_9
REMARK    4  A    between atoms: C_9  and  C_10
REMARK    5  A    between atoms: C_10  and  C_11
REMARK    6  A    between atoms: N_13  and  C_14
REMARK    7  A    between atoms: C_14  and  C_15
REMARK    8  A    between atoms: C_14  and  C_22
REMARK    9  A    between atoms: C_15  and  C_16
REMARK   10  A    between atoms: C_22  and  C_24
REMARK                            x       y       z     vdW  Elec       q    Type
REMARK                         _______ _______ _______ _____ _____    ______ ____
ROOT
ATOM      1  C   UNL     1       2.603   7.391  18.499  0.00  0.00    +0.000 C 
ATOM      2  O   UNL     1       2.563   6.993  19.654  0.00  0.00    +0.000 OA
ATOM      3  N   UNL     1       3.387   6.829  17.513  0.00  0.00    +0.000 N 
ATOM      4  H   UNL     1       3.205   7.128  16.555  0.00  0.00    +0.000 HD
ENDROOT
BRANCH   1   5
ATOM      5  C   UNL     1       1.826   8.578  17.946  0.00  0.00    +0.000 C 
BRANCH   5   6
ATOM      6  C   UNL     1       1.330   9.575  18.985  0.00  0.00    +0.000 C 
BRANCH   6  12
ATOM      7  C   UNL     1      -0.254  11.591  18.877  0.00  0.00    +0.000 A 
ATOM      8  C   UNL     1      -1.400  12.203  18.352  0.00  0.00    +0.000 A 
ATOM      9  C   UNL     1      -2.259  11.496  17.512  0.00  0.00    +0.000 A 
ATOM     10  C   UNL     1      -1.955  10.187  17.157  0.00  0.00    +0.000 A 
ATOM     11  C   UNL     1      -0.775   9.597  17.609  0.00  0.00    +0.000 A 
ATOM     12  C   UNL     1       0.099  10.295  18.462  0.00  0.00    +0.000 A 
BRANCH   7  14
ATOM     13  C   UNL     1       1.283  13.331  19.326  0.00  0.00    +0.000 C 
ATOM     14  O   UNL     1       0.556  12.198  19.802  0.00  0.00    +0.000 OA
ENDBRANCH   7  14
ENDBRANCH   6  12
ENDBRANCH   5   6
ENDBRANCH   1   5
BRANCH   3  15
ATOM     15  C   UNL     1       4.185   5.611  17.683  0.00  0.00    +0.000 C 
BRANCH  15  16
ATOM     16  C   UNL     1       5.515   5.702  16.887  0.00  0.00    +0.000 C 
ATOM     17  O   UNL     1       5.910   6.758  16.379  0.00  0.00    +0.000 OA
BRANCH  16  18
ATOM     18  C   UNL     1       6.226   4.413  16.539  0.00  0.00    +0.000 C 
ATOM     19 CL   UNL     1       6.033   4.028  14.822  0.00  0.00    +0.000 Cl
ENDBRANCH  16  18
ENDBRANCH  15  16
BRANCH  15  20
ATOM     20  C   UNL     1       3.408   4.311  17.394  0.00  0.00    +0.000 C 
BRANCH  20  21
ATOM     21  C   UNL     1       2.749   3.721  18.621  0.00  0.00    +0.000 A 
ATOM     22  C   UNL     1       1.355   3.677  18.724  0.00  0.00    +0.000 A 
ATOM     23  C   UNL     1       0.746   3.293  19.917  0.00  0.00    +0.000 A 
ATOM     24  C   UNL     1       1.528   2.928  21.011  0.00  0.00    +0.000 A 
ATOM     25  C   UNL     1       2.917   2.904  20.898  0.00  0.00    +0.000 A 
ATOM     26  C   UNL     1       3.525   3.285  19.704  0.00  0.00    +0.000 A 
ENDBRANCH  20  21
ENDBRANCH  15  20
ENDBRANCH   3  15
TORSDOF 9
ENDMDL
