MODEL 1
REMARK VINA RESULT:      -9.5      0.000      0.000
REMARK  Name = 
REMARK  4 active torsions:
REMARK  status: ('A' for Active; 'I' for Inactive)
REMARK    1  A    between atoms: O_1  and  C_2
REMARK    2  A    between atoms: C_7  and  N_8
REMARK    3  A    between atoms: N_12  and  C_13
REMARK    4  A    between atoms: C_13  and  C_14
REMARK                            x       y       z     vdW  Elec       q    Type
REMARK                         _______ _______ _______ _____ _____    ______ ____
ROOT
ATOM      1  N   UNL     1       3.059   7.882  17.778  0.00  0.00    +0.000 N 
ATOM      2  C   UNL     1       3.247   6.494  17.698  0.00  0.00    +0.000 A 
ATOM      3  N   UNL     1       4.480   6.057  17.398  0.00  0.00    +0.000 NA
ATOM      4  C   UNL     1       4.705   4.729  17.441  0.00  0.00    +0.000 A 
ATOM      5  N   UNL     1       5.965   4.236  17.062  0.00  0.00    +0.000 N 
ATOM      6  C   UNL     1       3.697   3.820  17.823  0.00  0.00    +0.000 A 
ATOM      7  C   UNL     1       3.839   2.416  17.980  0.00  0.00    +0.000 A 
ATOM      8  C   UNL     1       2.748   1.620  18.345  0.00  0.00    +0.000 A 
ATOM      9  C   UNL     1       1.505   2.203  18.533  0.00  0.00    +0.000 A 
ATOM     10  C   UNL     1       1.362   3.578  18.365  0.00  0.00    +0.000 A 
ATOM     11  C   UNL     1       2.436   4.387  18.023  0.00  0.00    +0.000 A 
ATOM     12  N   UNL     1       2.205   5.687  17.921  0.00  0.00    +0.000 NA
ATOM     13  H   UNL     1       3.976   8.300  17.852  0.00  0.00    +0.000 HD
ATOM     14  H   UNL     1       6.430   3.730  17.807  0.00  0.00    +0.000 HD
ENDROOT
BRANCH   1  20
ATOM     15  C   UNL     1       1.788   8.163  19.904  0.00  0.00    +0.000 A 
ATOM     16  C   UNL     1       0.776   8.800  20.626  0.00  0.00    +0.000 A 
ATOM     17  C   UNL     1       0.093   9.871  20.055  0.00  0.00    +0.000 A 
ATOM     18  C   UNL     1       0.434  10.307  18.776  0.00  0.00    +0.000 A 
ATOM     19  C   UNL     1       1.430   9.646  18.051  0.00  0.00    +0.000 A 
ATOM     20  C   UNL     1       2.091   8.529  18.581  0.00  0.00    +0.000 A 
BRANCH  15  21
ATOM     21  O   UNL     1       2.518   7.196  20.545  0.00  0.00    +0.000 OA
ATOM     22  H   UNL     1       3.103   7.651  21.174  0.00  0.00    +0.000 HD
ENDBRANCH  15  21
ENDBRANCH   1  20
BRANCH   5  23
ATOM     23  C   UNL     1       6.837   5.081  16.258  0.00  0.00    +0.000 C 
BRANCH  23  24
ATOM     24  C   UNL     1       6.780   4.775  14.778  0.00  0.00    +0.000 A 
ATOM     25  C   UNL     1       7.681   5.387  13.885  0.00  0.00    +0.000 A 
ATOM     26  C   UNL     1       7.709   5.026  12.535  0.00  0.00    +0.000 A 
ATOM     27  C   UNL     1       6.837   4.054  12.053  0.00  0.00    +0.000 A 
ATOM     28  C   UNL     1       5.932   3.448  12.920  0.00  0.00    +0.000 A 
ATOM     29  C   UNL     1       5.903   3.805  14.275  0.00  0.00    +0.000 A 
ENDBRANCH  23  24
ENDBRANCH   5  23
TORSDOF 4
ENDMDL
MODEL 2
REMARK VINA RESULT:      -9.3      0.945      1.339
REMARK  Name = 
REMARK  4 active torsions:
REMARK  status: ('A' for Active; 'I' for Inactive)
REMARK    1  A    between atoms: O_1  and  C_2
REMARK    2  A    between atoms: C_7  and  N_8
REMARK    3  A    between atoms: N_12  and  C_13
REMARK    4  A    between atoms: C_13  and  C_14
REMARK                            x       y       z     vdW  Elec       q    Type
REMARK                         _______ _______ _______ _____ _____    ______ ____
ROOT
ATOM      1  N   UNL     1       2.904   7.865  18.126  0.00  0.00    +0.000 N 
ATOM      2  C   UNL     1       3.103   6.488  17.945  0.00  0.00    +0.000 A 
ATOM      3  N   UNL     1       4.314   6.092  17.521  0.00  0.00    +0.000 NA
ATOM      4  C   UNL     1       4.558   4.768  17.464  0.00  0.00    +0.000 A 
ATOM      5  N   UNL     1       5.789   4.321  16.956  0.00  0.00    +0.000 N 
ATOM      6  C   UNL     1       3.595   3.819  17.867  0.00  0.00    +0.000 A 
ATOM      7  C   UNL     1       3.768   2.411  17.924  0.00  0.00    +0.000 A 
ATOM      8  C   UNL     1       2.720   1.575  18.325  0.00  0.00    +0.000 A 
ATOM      9  C   UNL     1       1.488   2.124  18.648  0.00  0.00    +0.000 A 
ATOM     10  C   UNL     1       1.315   3.504  18.578  0.00  0.00    +0.000 A 
ATOM     11  C   UNL     1       2.347   4.351  18.203  0.00  0.00    +0.000 A 
ATOM     12  N   UNL     1       2.093   5.650  18.200  0.00  0.00    +0.000 NA
ATOM     13  H   UNL     1       3.819   8.294  18.153  0.00  0.00    +0.000 HD
ATOM     14  H   UNL     1       6.319   3.779  17.628  0.00  0.00    +0.000 HD
ENDROOT
BRANCH   1  20
ATOM     15  C   UNL     1       1.200   9.569  18.763  0.00  0.00    +0.000 A 
ATOM     16  C   UNL     1       0.368  10.135  19.732  0.00  0.00    +0.000 A 
ATOM     17  C   UNL     1       0.266   9.539  20.986  0.00  0.00    +0.000 A 
ATOM     18  C   UNL     1       0.982   8.374  21.259  0.00  0.00    +0.000 A 
ATOM     19  C   UNL     1       1.832   7.829  20.292  0.00  0.00    +0.000 A 
ATOM     20  C   UNL     1       1.997   8.444  19.043  0.00  0.00    +0.000 A 
BRANCH  15  21
ATOM     21  O   UNL     1       1.179  10.114  17.506  0.00  0.00    +0.000 OA
ATOM     22  H   UNL     1       1.888  10.776  17.471  0.00  0.00    +0.000 HD
ENDBRANCH  15  21
ENDBRANCH   1  20
BRANCH   5  23
ATOM     23  C   UNL     1       6.583   5.228  16.139  0.00  0.00    +0.000 C 
BRANCH  23  24
ATOM     24  C   UNL     1       6.630   4.844  14.677  0.00  0.00    +0.000 A 
ATOM     25  C   UNL     1       7.618   5.378  13.827  0.00  0.00    +0.000 A 
ATOM     26  C   UNL     1       7.738   4.943  12.504  0.00  0.00    +0.000 A 
ATOM     27  C   UNL     1       6.874   3.971  12.007  0.00  0.00    +0.000 A 
ATOM     28  C   UNL     1       5.885   3.441  12.831  0.00  0.00    +0.000 A 
ATOM     29  C   UNL     1       5.764   3.873  14.158  0.00  0.00    +0.000 A 
ENDBRANCH  23  24
ENDBRANCH   5  23
TORSDOF 4
ENDMDL
MODEL 3
REMARK VINA RESULT:      -8.7      1.704      2.713
REMARK  Name = 
REMARK  4 active torsions:
REMARK  status: ('A' for Active; 'I' for Inactive)
REMARK    1  A    between atoms: O_1  and  C_2
REMARK    2  A    between atoms: C_7  and  N_8
REMARK    3  A    between atoms: N_12  and  C_13
REMARK    4  A    between atoms: C_13  and  C_14
REMARK                            x       y       z     vdW  Elec       q    Type
REMARK                         _______ _______ _______ _____ _____    ______ ____
ROOT
ATOM      1  N   UNL     1       2.898   7.651  17.845  0.00  0.00    +0.000 N 
ATOM      2  C   UNL     1       2.959   6.249  17.833  0.00  0.00    +0.000 A 
ATOM      3  N   UNL     1       4.149   5.688  17.569  0.00  0.00    +0.000 NA
ATOM      4  C   UNL     1       4.251   4.349  17.678  0.00  0.00    +0.000 A 
ATOM      5  N   UNL     1       5.463   3.725  17.339  0.00  0.00    +0.000 N 
ATOM      6  C   UNL     1       3.160   3.554  18.089  0.00  0.00    +0.000 A 
ATOM      7  C   UNL     1       3.172   2.153  18.314  0.00  0.00    +0.000 A 
ATOM      8  C   UNL     1       2.009   1.478  18.703  0.00  0.00    +0.000 A 
ATOM      9  C   UNL     1       0.823   2.181  18.848  0.00  0.00    +0.000 A 
ATOM     10  C   UNL     1       0.808   3.554  18.613  0.00  0.00    +0.000 A 
ATOM     11  C   UNL     1       1.955   4.243  18.247  0.00  0.00    +0.000 A 
ATOM     12  N   UNL     1       1.845   5.552  18.080  0.00  0.00    +0.000 NA
ATOM     13  H   UNL     1       3.849   7.987  17.911  0.00  0.00    +0.000 HD
ATOM     14  H   UNL     1       5.874   3.215  18.112  0.00  0.00    +0.000 HD
ENDROOT
BRANCH   1  20
ATOM     15  C   UNL     1       1.692   8.190  19.959  0.00  0.00    +0.000 A 
ATOM     16  C   UNL     1       0.734   8.946  20.639  0.00  0.00    +0.000 A 
ATOM     17  C   UNL     1       0.102  10.002  19.988  0.00  0.00    +0.000 A 
ATOM     18  C   UNL     1       0.441  10.306  18.671  0.00  0.00    +0.000 A 
ATOM     19  C   UNL     1       1.381   9.527  17.990  0.00  0.00    +0.000 A 
ATOM     20  C   UNL     1       1.987   8.422  18.604  0.00  0.00    +0.000 A 
BRANCH  15  21
ATOM     21  O   UNL     1       2.378   7.240  20.670  0.00  0.00    +0.000 OA
ATOM     22  H   UNL     1       3.303   7.531  20.715  0.00  0.00    +0.000 HD
ENDBRANCH  15  21
ENDBRANCH   1  20
BRANCH   5  23
ATOM     23  C   UNL     1       6.415   4.446  16.507  0.00  0.00    +0.000 C 
BRANCH  23  24
ATOM     24  C   UNL     1       7.146   5.550  17.239  0.00  0.00    +0.000 A 
ATOM     25  C   UNL     1       7.212   6.848  16.697  0.00  0.00    +0.000 A 
ATOM     26  C   UNL     1       7.787   7.898  17.419  0.00  0.00    +0.000 A 
ATOM     27  C   UNL     1       8.308   7.670  18.689  0.00  0.00    +0.000 A 
ATOM     28  C   UNL     1       8.262   6.390  19.235  0.00  0.00    +0.000 A 
ATOM     29  C   UNL     1       7.683   5.336  18.516  0.00  0.00    +0.000 A 
ENDBRANCH  23  24
ENDBRANCH   5  23
TORSDOF 4
ENDMDL
MODEL 4
REMARK VINA RESULT:      -8.7      1.908      2.988
REMARK  Name = 
REMARK  4 active torsions:
REMARK  status: ('A' for Active; 'I' for Inactive)
REMARK    1  A    between atoms: O_1  and  C_2
REMARK    2  A    between atoms: C_7  and  N_8
REMARK    3  A    between atoms: N_12  and  C_13
REMARK    4  A    between atoms: C_13  and  C_14
REMARK                            x       y       z     vdW  Elec       q    Type
REMARK                         _______ _______ _______ _____ _____    ______ ____
ROOT
ATOM      1  N   UNL     1       2.921   7.586  18.150  0.00  0.00    +0.000 N 
ATOM      2  C   UNL     1       2.958   6.189  18.034  0.00  0.00    +0.000 A 
ATOM      3  N   UNL     1       4.123   5.632  17.668  0.00  0.00    +0.000 NA
ATOM      4  C   UNL     1       4.208   4.288  17.675  0.00  0.00    +0.000 A 
ATOM      5  N   UNL     1       5.390   3.674  17.228  0.00  0.00    +0.000 N 
ATOM      6  C   UNL     1       3.126   3.480  18.085  0.00  0.00    +0.000 A 
ATOM      7  C   UNL     1       3.126   2.065  18.207  0.00  0.00    +0.000 A 
ATOM      8  C   UNL     1       1.974   1.380  18.607  0.00  0.00    +0.000 A 
ATOM      9  C   UNL     1       0.809   2.085  18.865  0.00  0.00    +0.000 A 
ATOM     10  C   UNL     1       0.805   3.471  18.731  0.00  0.00    +0.000 A 
ATOM     11  C   UNL     1       1.943   4.171  18.356  0.00  0.00    +0.000 A 
ATOM     12  N   UNL     1       1.847   5.490  18.289  0.00  0.00    +0.000 NA
ATOM     13  H   UNL     1       3.880   7.904  18.190  0.00  0.00    +0.000 HD
ATOM     14  H   UNL     1       5.832   3.104  17.940  0.00  0.00    +0.000 HD
ENDROOT
BRANCH   1  20
ATOM     15  C   UNL     1       1.408   9.503  18.653  0.00  0.00    +0.000 A 
ATOM     16  C   UNL     1       0.625  10.209  19.568  0.00  0.00    +0.000 A 
ATOM     17  C   UNL     1       0.425   9.693  20.846  0.00  0.00    +0.000 A 
ATOM     18  C   UNL     1       0.995   8.470  21.196  0.00  0.00    +0.000 A 
ATOM     19  C   UNL     1       1.800   7.784  20.282  0.00  0.00    +0.000 A 
ATOM     20  C   UNL     1       2.064   8.312  19.010  0.00  0.00    +0.000 A 
BRANCH  15  21
ATOM     21  O   UNL     1       1.480   9.982  17.371  0.00  0.00    +0.000 OA
ATOM     22  H   UNL     1       0.678  10.508  17.218  0.00  0.00    +0.000 HD
ENDBRANCH  15  21
ENDBRANCH   1  20
BRANCH   5  23
ATOM     23  C   UNL     1       6.310   4.442  16.401  0.00  0.00    +0.000 C 
BRANCH  23  24
ATOM     24  C   UNL     1       7.070   5.505  17.164  0.00  0.00    +0.000 A 
ATOM     25  C   UNL     1       7.136   6.825  16.680  0.00  0.00    +0.000 A 
ATOM     26  C   UNL     1       7.739   7.836  17.434  0.00  0.00    +0.000 A 
ATOM     27  C   UNL     1       8.288   7.546  18.680  0.00  0.00    +0.000 A 
ATOM     28  C   UNL     1       8.241   6.243  19.168  0.00  0.00    +0.000 A 
ATOM     29  C   UNL     1       7.634   5.228  18.417  0.00  0.00    +0.000 A 
ENDBRANCH  23  24
ENDBRANCH   5  23
TORSDOF 4
ENDMDL
MODEL 5
REMARK VINA RESULT:      -8.6      2.457      3.143
REMARK  Name = 
REMARK  4 active torsions:
REMARK  status: ('A' for Active; 'I' for Inactive)
REMARK    1  A    between atoms: O_1  and  C_2
REMARK    2  A    between atoms: C_7  and  N_8
REMARK    3  A    between atoms: N_12  and  C_13
REMARK    4  A    between atoms: C_13  and  C_14
REMARK                            x       y       z     vdW  Elec       q    Type
REMARK                         _______ _______ _______ _____ _____    ______ ____
ROOT
ATOM      1  N   UNL     1       2.624   7.565  18.247  0.00  0.00    +0.000 N 
ATOM      2  C   UNL     1       2.850   6.266  18.727  0.00  0.00    +0.000 A 
ATOM      3  N   UNL     1       4.062   5.732  18.509  0.00  0.00    +0.000 NA
ATOM      4  C   UNL     1       4.334   4.539  19.072  0.00  0.00    +0.000 A 
ATOM      5  N   UNL     1       5.567   3.921  18.804  0.00  0.00    +0.000 N 
ATOM      6  C   UNL     1       3.397   3.878  19.894  0.00  0.00    +0.000 A 
ATOM      7  C   UNL     1       3.600   2.662  20.600  0.00  0.00    +0.000 A 
ATOM      8  C   UNL     1       2.577   2.099  21.369  0.00  0.00    +0.000 A 
ATOM      9  C   UNL     1       1.339   2.720  21.426  0.00  0.00    +0.000 A 
ATOM     10  C   UNL     1       1.135   3.904  20.722  0.00  0.00    +0.000 A 
ATOM     11  C   UNL     1       2.143   4.489  19.971  0.00  0.00    +0.000 A 
ATOM     12  N   UNL     1       1.861   5.633  19.366  0.00  0.00    +0.000 NA
ATOM     13  H   UNL     1       3.530   7.968  18.049  0.00  0.00    +0.000 HD
ATOM     14  H   UNL     1       6.118   3.762  19.639  0.00  0.00    +0.000 HD
ENDROOT
BRANCH   1  20
ATOM     15  C   UNL     1       1.439   8.600  20.180  0.00  0.00    +0.000 A 
ATOM     16  C   UNL     1       0.485   9.497  20.667  0.00  0.00    +0.000 A 
ATOM     17  C   UNL     1      -0.160  10.362  19.785  0.00  0.00    +0.000 A 
ATOM     18  C   UNL     1       0.162  10.336  18.430  0.00  0.00    +0.000 A 
ATOM     19  C   UNL     1       1.099   9.416  17.948  0.00  0.00    +0.000 A 
ATOM     20  C   UNL     1       1.718   8.496  18.806  0.00  0.00    +0.000 A 
BRANCH  15  21
ATOM     21  O   UNL     1       2.137   7.854  21.093  0.00  0.00    +0.000 OA
ATOM     22  H   UNL     1       3.016   7.689  20.713  0.00  0.00    +0.000 HD
ENDBRANCH  15  21
ENDBRANCH   1  20
BRANCH   5  23
ATOM     23  C   UNL     1       6.329   4.349  17.640  0.00  0.00    +0.000 C 
BRANCH  23  24
ATOM     24  C   UNL     1       7.090   5.639  17.854  0.00  0.00    +0.000 A 
ATOM     25  C   UNL     1       6.961   6.707  16.945  0.00  0.00    +0.000 A 
ATOM     26  C   UNL     1       7.571   7.939  17.195  0.00  0.00    +0.000 A 
ATOM     27  C   UNL     1       8.322   8.125  18.352  0.00  0.00    +0.000 A 
ATOM     28  C   UNL     1       8.469   7.076  19.255  0.00  0.00    +0.000 A 
ATOM     29  C   UNL     1       7.856   5.841  19.010  0.00  0.00    +0.000 A 
ENDBRANCH  23  24
ENDBRANCH   5  23
TORSDOF 4
ENDMDL
MODEL 6
REMARK VINA RESULT:      -8.6      1.558      2.059
REMARK  Name = 
REMARK  4 active torsions:
REMARK  status: ('A' for Active; 'I' for Inactive)
REMARK    1  A    between atoms: O_1  and  C_2
REMARK    2  A    between atoms: C_7  and  N_8
REMARK    3  A    between atoms: N_12  and  C_13
REMARK    4  A    between atoms: C_13  and  C_14
REMARK                            x       y       z     vdW  Elec       q    Type
REMARK                         _______ _______ _______ _____ _____    ______ ____
ROOT
ATOM      1  N   UNL     1       2.570   8.065  18.533  0.00  0.00    +0.000 N 
ATOM      2  C   UNL     1       2.819   6.732  18.893  0.00  0.00    +0.000 A 
ATOM      3  N   UNL     1       4.095   6.314  18.860  0.00  0.00    +0.000 NA
ATOM      4  C   UNL     1       4.364   5.078  19.322  0.00  0.00    +0.000 A 
ATOM      5  N   UNL     1       5.677   4.586  19.235  0.00  0.00    +0.000 N 
ATOM      6  C   UNL     1       3.354   4.252  19.858  0.00  0.00    +0.000 A 
ATOM      7  C   UNL     1       3.531   2.970  20.443  0.00  0.00    +0.000 A 
ATOM      8  C   UNL     1       2.437   2.242  20.921  0.00  0.00    +0.000 A 
ATOM      9  C   UNL     1       1.158   2.764  20.803  0.00  0.00    +0.000 A 
ATOM     10  C   UNL     1       0.983   4.015  20.216  0.00  0.00    +0.000 A 
ATOM     11  C   UNL     1       2.057   4.762  19.755  0.00  0.00    +0.000 A 
ATOM     12  N   UNL     1       1.790   5.954  19.244  0.00  0.00    +0.000 NA
ATOM     13  H   UNL     1       3.456   8.550  18.569  0.00  0.00    +0.000 HD
ATOM     14  H   UNL     1       6.073   4.355  20.139  0.00  0.00    +0.000 HD
ENDROOT
BRANCH   1  20
ATOM     15  C   UNL     1       1.098   8.923  20.354  0.00  0.00    +0.000 A 
ATOM     16  C   UNL     1      -0.016   9.666  20.751  0.00  0.00    +0.000 A 
ATOM     17  C   UNL     1      -0.718  10.412  19.807  0.00  0.00    +0.000 A 
ATOM     18  C   UNL     1      -0.295  10.423  18.479  0.00  0.00    +0.000 A 
ATOM     19  C   UNL     1       0.805   9.655  18.086  0.00  0.00    +0.000 A 
ATOM     20  C   UNL     1       1.492   8.849  19.006  0.00  0.00    +0.000 A 
BRANCH  15  21
ATOM     21  O   UNL     1       1.833   8.302  21.330  0.00  0.00    +0.000 OA
ATOM     22  H   UNL     1       1.367   7.480  21.558  0.00  0.00    +0.000 HD
ENDBRANCH  15  21
ENDBRANCH   1  20
BRANCH   5  23
ATOM     23  C   UNL     1       6.602   5.216  18.304  0.00  0.00    +0.000 C 
BRANCH  23  24
ATOM     24  C   UNL     1       6.433   4.753  16.874  0.00  0.00    +0.000 A 
ATOM     25  C   UNL     1       5.345   3.937  16.508  0.00  0.00    +0.000 A 
ATOM     26  C   UNL     1       5.119   3.599  15.171  0.00  0.00    +0.000 A 
ATOM     27  C   UNL     1       5.977   4.064  14.178  0.00  0.00    +0.000 A 
ATOM     28  C   UNL     1       7.064   4.861  14.524  0.00  0.00    +0.000 A 
ATOM     29  C   UNL     1       7.291   5.206  15.863  0.00  0.00    +0.000 A 
ENDBRANCH  23  24
ENDBRANCH   5  23
TORSDOF 4
ENDMDL
MODEL 7
REMARK VINA RESULT:      -8.6      2.319      7.816
REMARK  Name = 
REMARK  4 active torsions:
REMARK  status: ('A' for Active; 'I' for Inactive)
REMARK    1  A    between atoms: O_1  and  C_2
REMARK    2  A    between atoms: C_7  and  N_8
REMARK    3  A    between atoms: N_12  and  C_13
REMARK    4  A    between atoms: C_13  and  C_14
REMARK                            x       y       z     vdW  Elec       q    Type
REMARK                         _______ _______ _______ _____ _____    ______ ____
ROOT
ATOM      1  N   UNL     1       4.913   6.521  17.191  0.00  0.00    +0.000 N 
ATOM      2  C   UNL     1       4.155   6.054  18.275  0.00  0.00    +0.000 A 
ATOM      3  N   UNL     1       3.201   6.866  18.755  0.00  0.00    +0.000 NA
ATOM      4  C   UNL     1       2.385   6.382  19.712  0.00  0.00    +0.000 A 
ATOM      5  N   UNL     1       1.424   7.231  20.285  0.00  0.00    +0.000 N 
ATOM      6  C   UNL     1       2.496   5.055  20.177  0.00  0.00    +0.000 A 
ATOM      7  C   UNL     1       1.647   4.416  21.119  0.00  0.00    +0.000 A 
ATOM      8  C   UNL     1       1.879   3.094  21.512  0.00  0.00    +0.000 A 
ATOM      9  C   UNL     1       2.966   2.404  20.998  0.00  0.00    +0.000 A 
ATOM     10  C   UNL     1       3.807   3.036  20.085  0.00  0.00    +0.000 A 
ATOM     11  C   UNL     1       3.581   4.339  19.667  0.00  0.00    +0.000 A 
ATOM     12  N   UNL     1       4.418   4.840  18.771  0.00  0.00    +0.000 NA
ATOM     13  H   UNL     1       4.408   7.303  16.795  0.00  0.00    +0.000 HD
ATOM     14  H   UNL     1       0.476   6.899  20.154  0.00  0.00    +0.000 HD
ENDROOT
BRANCH   1  20
ATOM     15  C   UNL     1       6.877   5.795  15.839  0.00  0.00    +0.000 A 
ATOM     16  C   UNL     1       7.409   5.006  14.817  0.00  0.00    +0.000 A 
ATOM     17  C   UNL     1       6.605   4.055  14.192  0.00  0.00    +0.000 A 
ATOM     18  C   UNL     1       5.283   3.889  14.602  0.00  0.00    +0.000 A 
ATOM     19  C   UNL     1       4.752   4.703  15.608  0.00  0.00    +0.000 A 
ATOM     20  C   UNL     1       5.524   5.706  16.210  0.00  0.00    +0.000 A 
BRANCH  15  21
ATOM     21  O   UNL     1       7.731   6.631  16.510  0.00  0.00    +0.000 OA
ATOM     22  H   UNL     1       8.457   6.845  15.901  0.00  0.00    +0.000 HD
ENDBRANCH  15  21
ENDBRANCH   1  20
BRANCH   5  23
ATOM     23  C   UNL     1       1.591   8.672  20.154  0.00  0.00    +0.000 C 
BRANCH  23  24
ATOM     24  C   UNL     1       0.745   9.472  21.119  0.00  0.00    +0.000 A 
ATOM     25  C   UNL     1       0.041  10.610  20.682  0.00  0.00    +0.000 A 
ATOM     26  C   UNL     1      -0.830  11.288  21.539  0.00  0.00    +0.000 A 
ATOM     27  C   UNL     1      -1.011  10.843  22.846  0.00  0.00    +0.000 A 
ATOM     28  C   UNL     1      -0.313   9.727  23.298  0.00  0.00    +0.000 A 
ATOM     29  C   UNL     1       0.559   9.043  22.440  0.00  0.00    +0.000 A 
ENDBRANCH  23  24
ENDBRANCH   5  23
TORSDOF 4
ENDMDL
MODEL 8
REMARK VINA RESULT:      -8.5      2.205      7.695
REMARK  Name = 
REMARK  4 active torsions:
REMARK  status: ('A' for Active; 'I' for Inactive)
REMARK    1  A    between atoms: O_1  and  C_2
REMARK    2  A    between atoms: C_7  and  N_8
REMARK    3  A    between atoms: N_12  and  C_13
REMARK    4  A    between atoms: C_13  and  C_14
REMARK                            x       y       z     vdW  Elec       q    Type
REMARK                         _______ _______ _______ _____ _____    ______ ____
ROOT
ATOM      1  N   UNL     1       5.142   6.363  18.017  0.00  0.00    +0.000 N 
ATOM      2  C   UNL     1       4.143   5.795  18.822  0.00  0.00    +0.000 A 
ATOM      3  N   UNL     1       3.302   6.636  19.443  0.00  0.00    +0.000 NA
ATOM      4  C   UNL     1       2.263   6.103  20.116  0.00  0.00    +0.000 A 
ATOM      5  N   UNL     1       1.407   6.953  20.837  0.00  0.00    +0.000 N 
ATOM      6  C   UNL     1       2.035   4.711  20.145  0.00  0.00    +0.000 A 
ATOM      7  C   UNL     1       0.936   4.046  20.751  0.00  0.00    +0.000 A 
ATOM      8  C   UNL     1       0.839   2.651  20.725  0.00  0.00    +0.000 A 
ATOM      9  C   UNL     1       1.838   1.903  20.122  0.00  0.00    +0.000 A 
ATOM     10  C   UNL     1       2.923   2.555  19.541  0.00  0.00    +0.000 A 
ATOM     11  C   UNL     1       3.027   3.938  19.538  0.00  0.00    +0.000 A 
ATOM     12  N   UNL     1       4.079   4.463  18.929  0.00  0.00    +0.000 NA
ATOM     13  H   UNL     1       4.872   7.321  17.844  0.00  0.00    +0.000 HD
ATOM     14  H   UNL     1       0.446   6.906  20.518  0.00  0.00    +0.000 HD
ENDROOT
BRANCH   1  20
ATOM     15  C   UNL     1       6.764   4.791  16.961  0.00  0.00    +0.000 A 
ATOM     16  C   UNL     1       7.351   4.263  15.809  0.00  0.00    +0.000 A 
ATOM     17  C   UNL     1       6.865   4.631  14.557  0.00  0.00    +0.000 A 
ATOM     18  C   UNL     1       5.787   5.510  14.464  0.00  0.00    +0.000 A 
ATOM     19  C   UNL     1       5.222   6.054  15.622  0.00  0.00    +0.000 A 
ATOM     20  C   UNL     1       5.733   5.745  16.891  0.00  0.00    +0.000 A 
BRANCH  15  21
ATOM     21  O   UNL     1       7.189   4.312  18.172  0.00  0.00    +0.000 OA
ATOM     22  H   UNL     1       8.016   3.827  18.012  0.00  0.00    +0.000 HD
ENDBRANCH  15  21
ENDBRANCH   1  20
BRANCH   5  23
ATOM     23  C   UNL     1       1.872   8.287  21.185  0.00  0.00    +0.000 C 
BRANCH  23  24
ATOM     24  C   UNL     1       0.753   9.260  21.488  0.00  0.00    +0.000 A 
ATOM     25  C   UNL     1       0.262   9.400  22.800  0.00  0.00    +0.000 A 
ATOM     26  C   UNL     1      -0.692  10.374  23.108  0.00  0.00    +0.000 A 
ATOM     27  C   UNL     1      -1.172  11.221  22.114  0.00  0.00    +0.000 A 
ATOM     28  C   UNL     1      -0.705  11.088  20.809  0.00  0.00    +0.000 A 
ATOM     29  C   UNL     1       0.253  10.115  20.497  0.00  0.00    +0.000 A 
ENDBRANCH  23  24
ENDBRANCH   5  23
TORSDOF 4
ENDMDL
MODEL 9
REMARK VINA RESULT:      -8.4      2.066      7.129
REMARK  Name = 
REMARK  4 active torsions:
REMARK  status: ('A' for Active; 'I' for Inactive)
REMARK    1  A    between atoms: O_1  and  C_2
REMARK    2  A    between atoms: C_7  and  N_8
REMARK    3  A    between atoms: N_12  and  C_13
REMARK    4  A    between atoms: C_13  and  C_14
REMARK                            x       y       z     vdW  Elec       q    Type
REMARK                         _______ _______ _______ _____ _____    ______ ____
ROOT
ATOM      1  N   UNL     1       5.071   6.393  17.900  0.00  0.00    +0.000 N 
ATOM      2  C   UNL     1       4.134   5.840  18.786  0.00  0.00    +0.000 A 
ATOM      3  N   UNL     1       3.253   6.679  19.352  0.00  0.00    +0.000 NA
ATOM      4  C   UNL     1       2.271   6.146  20.105  0.00  0.00    +0.000 A 
ATOM      5  N   UNL     1       1.377   7.002  20.770  0.00  0.00    +0.000 N 
ATOM      6  C   UNL     1       2.141   4.751  20.273  0.00  0.00    +0.000 A 
ATOM      7  C   UNL     1       1.107   4.076  20.974  0.00  0.00    +0.000 A 
ATOM      8  C   UNL     1       1.105   2.682  21.083  0.00  0.00    +0.000 A 
ATOM      9  C   UNL     1       2.138   1.947  20.522  0.00  0.00    +0.000 A 
ATOM     10  C   UNL     1       3.160   2.610  19.846  0.00  0.00    +0.000 A 
ATOM     11  C   UNL     1       3.168   3.991  19.709  0.00  0.00    +0.000 A 
ATOM     12  N   UNL     1       4.165   4.524  19.021  0.00  0.00    +0.000 NA
ATOM     13  H   UNL     1       4.730   7.310  17.646  0.00  0.00    +0.000 HD
ATOM     14  H   UNL     1       0.414   6.861  20.488  0.00  0.00    +0.000 HD
ENDROOT
BRANCH   1  20
ATOM     15  C   UNL     1       6.696   4.754  16.957  0.00  0.00    +0.000 A 
ATOM     16  C   UNL     1       7.297   4.160  15.845  0.00  0.00    +0.000 A 
ATOM     17  C   UNL     1       6.832   4.462  14.568  0.00  0.00    +0.000 A 
ATOM     18  C   UNL     1       5.763   5.341  14.410  0.00  0.00    +0.000 A 
ATOM     19  C   UNL     1       5.185   5.953  15.527  0.00  0.00    +0.000 A 
ATOM     20  C   UNL     1       5.673   5.710  16.819  0.00  0.00    +0.000 A 
BRANCH  15  21
ATOM     21  O   UNL     1       7.099   4.339  18.199  0.00  0.00    +0.000 OA
ATOM     22  H   UNL     1       6.445   4.670  18.836  0.00  0.00    +0.000 HD
ENDBRANCH  15  21
ENDBRANCH   1  20
BRANCH   5  23
ATOM     23  C   UNL     1       1.757   8.392  20.975  0.00  0.00    +0.000 C 
BRANCH  23  24
ATOM     24  C   UNL     1       0.866   9.378  20.252  0.00  0.00    +0.000 A 
ATOM     25  C   UNL     1       0.830   9.413  18.845  0.00  0.00    +0.000 A 
ATOM     26  C   UNL     1      -0.071  10.242  18.171  0.00  0.00    +0.000 A 
ATOM     27  C   UNL     1      -0.948  11.050  18.889  0.00  0.00    +0.000 A 
ATOM     28  C   UNL     1      -0.917  11.036  20.280  0.00  0.00    +0.000 A 
ATOM     29  C   UNL     1      -0.017  10.205  20.959  0.00  0.00    +0.000 A 
ENDBRANCH  23  24
ENDBRANCH   5  23
TORSDOF 4
ENDMDL
