MODEL 1
REMARK VINA RESULT:      -7.1      0.000      0.000
REMARK  Name = 
REMARK  6 active torsions:
REMARK  status: ('A' for Active; 'I' for Inactive)
REMARK    1  A    between atoms: C_5  and  C_6
REMARK    2  A    between atoms: N_14  and  C_15
REMARK    3  A    between atoms: C_15  and  C_16
REMARK    4  A    between atoms: C_16  and  C_17
REMARK    5  A    between atoms: C_17  and  C_18
REMARK    6  A    between atoms: C_18  and  O_20
REMARK                            x       y       z     vdW  Elec       q    Type
REMARK                         _______ _______ _______ _____ _____    ______ ____
ROOT
ATOM      1  N   UNL     1       5.475   3.538  16.339  0.00  0.00    +0.000 N 
ATOM      2  C   UNL     1       4.770   4.540  17.044  0.00  0.00    +0.000 A 
ATOM      3  C   UNL     1       5.202   5.855  16.849  0.00  0.00    +0.000 A 
ATOM      4  C   UNL     1       4.500   6.908  17.391  0.00  0.00    +0.000 A 
ATOM      5  C   UNL     1       3.347   6.624  18.095  0.00  0.00    +0.000 A 
ATOM      6  N   UNL     1       2.963   5.350  18.324  0.00  0.00    +0.000 NA
ATOM      7  N   UNL     1       3.670   4.319  17.815  0.00  0.00    +0.000 N 
ATOM      8  H   UNL     1       6.477   3.648  16.612  0.00  0.00    +0.000 HD
ATOM      9  H   UNL     1       5.262   2.580  16.561  0.00  0.00    +0.000 HD
ENDROOT
BRANCH   5  10
ATOM     10  C   UNL     1       2.436   7.687  18.575  0.00  0.00    +0.000 A 
ATOM     11  C   UNL     1       2.012   7.742  19.923  0.00  0.00    +0.000 A 
ATOM     12  C   UNL     1       1.150   8.741  20.382  0.00  0.00    +0.000 A 
ATOM     13  C   UNL     1       0.701   9.715  19.499  0.00  0.00    +0.000 A 
ATOM     14  F   UNL     1      -0.117  10.673  19.935  0.00  0.00    +0.000 F 
ATOM     15  C   UNL     1       1.109   9.703  18.173  0.00  0.00    +0.000 A 
ATOM     16  C   UNL     1       1.971   8.701  17.713  0.00  0.00    +0.000 A 
ENDBRANCH   5  10
BRANCH   7  17
ATOM     17  C   UNL     1       3.060   2.984  17.995  0.00  0.00    +0.000 C 
BRANCH  17  18
ATOM     18  C   UNL     1       1.654   2.983  18.592  0.00  0.00    +0.000 C 
BRANCH  18  19
ATOM     19  C   UNL     1       1.481   2.299  19.947  0.00  0.00    +0.000 C 
BRANCH  19  20
ATOM     20  C   UNL     1       1.994   3.125  21.095  0.00  0.00    +0.000 C 
ATOM     21  O   UNL     1       2.582   2.666  22.063  0.00  0.00    +0.000 OA
BRANCH  20  22
ATOM     22  O   UNL     1       1.702   4.436  20.969  0.00  0.00    +0.000 OA
ATOM     23  H   UNL     1       1.233   4.811  21.744  0.00  0.00    +0.000 HD
ENDBRANCH  20  22
ENDBRANCH  19  20
ENDBRANCH  18  19
ENDBRANCH  17  18
ENDBRANCH   7  17
TORSDOF 6
ENDMDL
MODEL 2
REMARK VINA RESULT:      -7.1      4.840      6.454
REMARK  Name = 
REMARK  6 active torsions:
REMARK  status: ('A' for Active; 'I' for Inactive)
REMARK    1  A    between atoms: C_5  and  C_6
REMARK    2  A    between atoms: N_14  and  C_15
REMARK    3  A    between atoms: C_15  and  C_16
REMARK    4  A    between atoms: C_16  and  C_17
REMARK    5  A    between atoms: C_17  and  C_18
REMARK    6  A    between atoms: C_18  and  O_20
REMARK                            x       y       z     vdW  Elec       q    Type
REMARK                         _______ _______ _______ _____ _____    ______ ____
ROOT
ATOM      1  N   UNL     1       8.010   6.979  16.512  0.00  0.00    +0.000 N 
ATOM      2  C   UNL     1       7.003   6.077  16.923  0.00  0.00    +0.000 A 
ATOM      3  C   UNL     1       6.424   6.320  18.172  0.00  0.00    +0.000 A 
ATOM      4  C   UNL     1       5.350   5.573  18.601  0.00  0.00    +0.000 A 
ATOM      5  C   UNL     1       4.848   4.611  17.749  0.00  0.00    +0.000 A 
ATOM      6  N   UNL     1       5.442   4.344  16.566  0.00  0.00    +0.000 NA
ATOM      7  N   UNL     1       6.513   5.060  16.161  0.00  0.00    +0.000 N 
ATOM      8  H   UNL     1       8.730   6.967  17.267  0.00  0.00    +0.000 HD
ATOM      9  H   UNL     1       8.523   6.750  15.677  0.00  0.00    +0.000 HD
ENDROOT
BRANCH   5  10
ATOM     10  C   UNL     1       3.601   3.870  18.046  0.00  0.00    +0.000 A 
ATOM     11  C   UNL     1       3.629   2.541  18.529  0.00  0.00    +0.000 A 
ATOM     12  C   UNL     1       2.457   1.836  18.807  0.00  0.00    +0.000 A 
ATOM     13  C   UNL     1       1.227   2.452  18.618  0.00  0.00    +0.000 A 
ATOM     14  F   UNL     1       0.106   1.783  18.888  0.00  0.00    +0.000 F 
ATOM     15  C   UNL     1       1.160   3.760  18.161  0.00  0.00    +0.000 A 
ATOM     16  C   UNL     1       2.335   4.467  17.880  0.00  0.00    +0.000 A 
ENDBRANCH   5  10
BRANCH   7  17
ATOM     17  C   UNL     1       6.971   4.786  14.782  0.00  0.00    +0.000 C 
BRANCH  17  18
ATOM     18  C   UNL     1       6.027   3.933  13.937  0.00  0.00    +0.000 C 
BRANCH  18  19
ATOM     19  C   UNL     1       6.417   3.712  12.476  0.00  0.00    +0.000 C 
BRANCH  19  20
ATOM     20  C   UNL     1       5.515   2.742  11.763  0.00  0.00    +0.000 C 
ATOM     21  O   UNL     1       4.384   3.006  11.385  0.00  0.00    +0.000 OA
BRANCH  20  22
ATOM     22  O   UNL     1       6.071   1.521  11.617  0.00  0.00    +0.000 OA
ATOM     23  H   UNL     1       5.437   0.783  11.735  0.00  0.00    +0.000 HD
ENDBRANCH  20  22
ENDBRANCH  19  20
ENDBRANCH  18  19
ENDBRANCH  17  18
ENDBRANCH   7  17
TORSDOF 6
ENDMDL
MODEL 3
REMARK VINA RESULT:      -7.1      3.203      5.266
REMARK  Name = 
REMARK  6 active torsions:
REMARK  status: ('A' for Active; 'I' for Inactive)
REMARK    1  A    between atoms: C_5  and  C_6
REMARK    2  A    between atoms: N_14  and  C_15
REMARK    3  A    between atoms: C_15  and  C_16
REMARK    4  A    between atoms: C_16  and  C_17
REMARK    5  A    between atoms: C_17  and  C_18
REMARK    6  A    between atoms: C_18  and  O_20
REMARK                            x       y       z     vdW  Elec       q    Type
REMARK                         _______ _______ _______ _____ _____    ______ ____
ROOT
ATOM      1  N   UNL     1       1.499   7.721  21.079  0.00  0.00    +0.000 N 
ATOM      2  C   UNL     1       2.102   7.077  19.975  0.00  0.00    +0.000 A 
ATOM      3  C   UNL     1       2.431   7.890  18.886  0.00  0.00    +0.000 A 
ATOM      4  C   UNL     1       3.135   7.378  17.820  0.00  0.00    +0.000 A 
ATOM      5  C   UNL     1       3.532   6.057  17.880  0.00  0.00    +0.000 A 
ATOM      6  N   UNL     1       3.167   5.262  18.909  0.00  0.00    +0.000 NA
ATOM      7  N   UNL     1       2.452   5.761  19.940  0.00  0.00    +0.000 N 
ATOM      8  H   UNL     1       0.653   8.203  20.702  0.00  0.00    +0.000 HD
ATOM      9  H   UNL     1       1.144   7.137  21.818  0.00  0.00    +0.000 HD
ENDROOT
BRANCH   5  10
ATOM     10  C   UNL     1       4.429   5.458  16.866  0.00  0.00    +0.000 A 
ATOM     11  C   UNL     1       4.610   4.058  16.775  0.00  0.00    +0.000 A 
ATOM     12  C   UNL     1       5.457   3.488  15.823  0.00  0.00    +0.000 A 
ATOM     13  C   UNL     1       6.134   4.309  14.931  0.00  0.00    +0.000 A 
ATOM     14  F   UNL     1       6.940   3.767  14.017  0.00  0.00    +0.000 F 
ATOM     15  C   UNL     1       5.968   5.685  14.978  0.00  0.00    +0.000 A 
ATOM     16  C   UNL     1       5.121   6.257  15.934  0.00  0.00    +0.000 A 
ENDBRANCH   5  10
BRANCH   7  17
ATOM     17  C   UNL     1       2.257   4.839  21.078  0.00  0.00    +0.000 C 
BRANCH  17  18
ATOM     18  C   UNL     1       1.193   3.763  20.874  0.00  0.00    +0.000 C 
BRANCH  18  19
ATOM     19  C   UNL     1       1.686   2.371  20.481  0.00  0.00    +0.000 C 
BRANCH  19  20
ATOM     20  C   UNL     1       1.575   2.099  19.006  0.00  0.00    +0.000 C 
ATOM     21  O   UNL     1       0.621   2.423  18.317  0.00  0.00    +0.000 OA
BRANCH  20  22
ATOM     22  O   UNL     1       2.632   1.415  18.520  0.00  0.00    +0.000 OA
ATOM     23  H   UNL     1       3.496   1.733  18.856  0.00  0.00    +0.000 HD
ENDBRANCH  20  22
ENDBRANCH  19  20
ENDBRANCH  18  19
ENDBRANCH  17  18
ENDBRANCH   7  17
TORSDOF 6
ENDMDL
MODEL 4
REMARK VINA RESULT:      -7.1      3.280      4.787
REMARK  Name = 
REMARK  6 active torsions:
REMARK  status: ('A' for Active; 'I' for Inactive)
REMARK    1  A    between atoms: C_5  and  C_6
REMARK    2  A    between atoms: N_14  and  C_15
REMARK    3  A    between atoms: C_15  and  C_16
REMARK    4  A    between atoms: C_16  and  C_17
REMARK    5  A    between atoms: C_17  and  C_18
REMARK    6  A    between atoms: C_18  and  O_20
REMARK                            x       y       z     vdW  Elec       q    Type
REMARK                         _______ _______ _______ _____ _____    ______ ____
ROOT
ATOM      1  N   UNL     1       1.770   1.504  18.613  0.00  0.00    +0.000 N 
ATOM      2  C   UNL     1       2.902   2.345  18.536  0.00  0.00    +0.000 A 
ATOM      3  C   UNL     1       3.320   2.705  17.251  0.00  0.00    +0.000 A 
ATOM      4  C   UNL     1       4.334   3.621  17.078  0.00  0.00    +0.000 A 
ATOM      5  C   UNL     1       4.891   4.192  18.204  0.00  0.00    +0.000 A 
ATOM      6  N   UNL     1       4.520   3.802  19.443  0.00  0.00    +0.000 NA
ATOM      7  N   UNL     1       3.546   2.882  19.609  0.00  0.00    +0.000 N 
ATOM      8  H   UNL     1       2.001   0.660  18.044  0.00  0.00    +0.000 HD
ATOM      9  H   UNL     1       1.529   1.134  19.518  0.00  0.00    +0.000 HD
ENDROOT
BRANCH   5  10
ATOM     10  C   UNL     1       5.868   5.301  18.124  0.00  0.00    +0.000 A 
ATOM     11  C   UNL     1       5.666   6.401  17.257  0.00  0.00    +0.000 A 
ATOM     12  C   UNL     1       6.585   7.449  17.175  0.00  0.00    +0.000 A 
ATOM     13  C   UNL     1       7.724   7.423  17.969  0.00  0.00    +0.000 A 
ATOM     14  F   UNL     1       8.601   8.425  17.896  0.00  0.00    +0.000 F 
ATOM     15  C   UNL     1       7.947   6.370  18.843  0.00  0.00    +0.000 A 
ATOM     16  C   UNL     1       7.028   5.319  18.925  0.00  0.00    +0.000 A 
ENDBRANCH   5  10
BRANCH   7  17
ATOM     17  C   UNL     1       3.116   2.662  21.006  0.00  0.00    +0.000 C 
BRANCH  17  18
ATOM     18  C   UNL     1       2.148   3.703  21.565  0.00  0.00    +0.000 C 
BRANCH  18  19
ATOM     19  C   UNL     1       1.401   4.566  20.548  0.00  0.00    +0.000 C 
BRANCH  19  20
ATOM     20  C   UNL     1       1.802   6.015  20.596  0.00  0.00    +0.000 C 
ATOM     21  O   UNL     1       1.088   6.912  21.019  0.00  0.00    +0.000 OA
BRANCH  20  22
ATOM     22  O   UNL     1       3.029   6.236  20.081  0.00  0.00    +0.000 OA
ATOM     23  H   UNL     1       3.674   5.526  20.282  0.00  0.00    +0.000 HD
ENDBRANCH  20  22
ENDBRANCH  19  20
ENDBRANCH  18  19
ENDBRANCH  17  18
ENDBRANCH   7  17
TORSDOF 6
ENDMDL
MODEL 5
REMARK VINA RESULT:      -7.0      4.828      6.480
REMARK  Name = 
REMARK  6 active torsions:
REMARK  status: ('A' for Active; 'I' for Inactive)
REMARK    1  A    between atoms: C_5  and  C_6
REMARK    2  A    between atoms: N_14  and  C_15
REMARK    3  A    between atoms: C_15  and  C_16
REMARK    4  A    between atoms: C_16  and  C_17
REMARK    5  A    between atoms: C_17  and  C_18
REMARK    6  A    between atoms: C_18  and  O_20
REMARK                            x       y       z     vdW  Elec       q    Type
REMARK                         _______ _______ _______ _____ _____    ______ ____
ROOT
ATOM      1  N   UNL     1       8.039   6.937  16.508  0.00  0.00    +0.000 N 
ATOM      2  C   UNL     1       7.018   6.044  16.903  0.00  0.00    +0.000 A 
ATOM      3  C   UNL     1       6.570   6.159  18.223  0.00  0.00    +0.000 A 
ATOM      4  C   UNL     1       5.493   5.421  18.662  0.00  0.00    +0.000 A 
ATOM      5  C   UNL     1       4.858   4.600  17.753  0.00  0.00    +0.000 A 
ATOM      6  N   UNL     1       5.326   4.452  16.495  0.00  0.00    +0.000 NA
ATOM      7  N   UNL     1       6.400   5.156  16.077  0.00  0.00    +0.000 N 
ATOM      8  H   UNL     1       8.822   6.794  17.184  0.00  0.00    +0.000 HD
ATOM      9  H   UNL     1       8.460   6.788  15.606  0.00  0.00    +0.000 HD
ENDROOT
BRANCH   5  10
ATOM     10  C   UNL     1       3.598   3.892  18.078  0.00  0.00    +0.000 A 
ATOM     11  C   UNL     1       2.339   4.417  17.704  0.00  0.00    +0.000 A 
ATOM     12  C   UNL     1       1.148   3.756  18.010  0.00  0.00    +0.000 A 
ATOM     13  C   UNL     1       1.193   2.546  18.691  0.00  0.00    +0.000 A 
ATOM     14  F   UNL     1       0.057   1.910  18.981  0.00  0.00    +0.000 F 
ATOM     15  C   UNL     1       2.410   1.993  19.060  0.00  0.00    +0.000 A 
ATOM     16  C   UNL     1       3.604   2.656  18.755  0.00  0.00    +0.000 A 
ENDBRANCH   5  10
BRANCH   7  17
ATOM     17  C   UNL     1       6.714   5.032  14.638  0.00  0.00    +0.000 C 
BRANCH  17  18
ATOM     18  C   UNL     1       6.179   3.774  13.957  0.00  0.00    +0.000 C 
BRANCH  18  19
ATOM     19  C   UNL     1       6.432   3.641  12.456  0.00  0.00    +0.000 C 
BRANCH  19  20
ATOM     20  C   UNL     1       5.426   2.764  11.762  0.00  0.00    +0.000 C 
ATOM     21  O   UNL     1       4.291   3.114  11.478  0.00  0.00    +0.000 OA
BRANCH  20  22
ATOM     22  O   UNL     1       5.894   1.523  11.518  0.00  0.00    +0.000 OA
ATOM     23  H   UNL     1       6.166   1.381  10.587  0.00  0.00    +0.000 HD
ENDBRANCH  20  22
ENDBRANCH  19  20
ENDBRANCH  18  19
ENDBRANCH  17  18
ENDBRANCH   7  17
TORSDOF 6
ENDMDL
MODEL 6
REMARK VINA RESULT:      -7.0      2.424      3.731
REMARK  Name = 
REMARK  6 active torsions:
REMARK  status: ('A' for Active; 'I' for Inactive)
REMARK    1  A    between atoms: C_5  and  C_6
REMARK    2  A    between atoms: N_14  and  C_15
REMARK    3  A    between atoms: C_15  and  C_16
REMARK    4  A    between atoms: C_16  and  C_17
REMARK    5  A    between atoms: C_17  and  C_18
REMARK    6  A    between atoms: C_18  and  O_20
REMARK                            x       y       z     vdW  Elec       q    Type
REMARK                         _______ _______ _______ _____ _____    ______ ____
ROOT
ATOM      1  N   UNL     1       4.970   3.453  17.338  0.00  0.00    +0.000 N 
ATOM      2  C   UNL     1       4.170   4.591  17.584  0.00  0.00    +0.000 A 
ATOM      3  C   UNL     1       3.005   4.380  18.328  0.00  0.00    +0.000 A 
ATOM      4  C   UNL     1       2.229   5.446  18.727  0.00  0.00    +0.000 A 
ATOM      5  C   UNL     1       2.656   6.717  18.400  0.00  0.00    +0.000 A 
ATOM      6  N   UNL     1       3.753   6.912  17.637  0.00  0.00    +0.000 NA
ATOM      7  N   UNL     1       4.496   5.863  17.224  0.00  0.00    +0.000 N 
ATOM      8  H   UNL     1       4.346   2.760  16.869  0.00  0.00    +0.000 HD
ATOM      9  H   UNL     1       5.743   3.560  16.702  0.00  0.00    +0.000 HD
ENDROOT
BRANCH   5  10
ATOM     10  C   UNL     1       1.985   7.930  18.918  0.00  0.00    +0.000 A 
ATOM     11  C   UNL     1       1.625   8.050  20.281  0.00  0.00    +0.000 A 
ATOM     12  C   UNL     1       0.989   9.191  20.774  0.00  0.00    +0.000 A 
ATOM     13  C   UNL     1       0.709  10.244  19.914  0.00  0.00    +0.000 A 
ATOM     14  F   UNL     1       0.107  11.337  20.384  0.00  0.00    +0.000 F 
ATOM     15  C   UNL     1       1.062  10.170  18.575  0.00  0.00    +0.000 A 
ATOM     16  C   UNL     1       1.698   9.026  18.079  0.00  0.00    +0.000 A 
ENDBRANCH   5  10
BRANCH   7  17
ATOM     17  C   UNL     1       5.757   6.214  16.538  0.00  0.00    +0.000 C 
BRANCH  17  18
ATOM     18  C   UNL     1       6.623   7.251  17.251  0.00  0.00    +0.000 C 
BRANCH  18  19
ATOM     19  C   UNL     1       7.820   6.724  18.042  0.00  0.00    +0.000 C 
BRANCH  19  20
ATOM     20  C   UNL     1       7.520   5.454  18.791  0.00  0.00    +0.000 C 
ATOM     21  O   UNL     1       7.011   5.415  19.900  0.00  0.00    +0.000 OA
BRANCH  20  22
ATOM     22  O   UNL     1       7.913   4.348  18.125  0.00  0.00    +0.000 OA
ATOM     23  H   UNL     1       7.835   3.524  18.650  0.00  0.00    +0.000 HD
ENDBRANCH  20  22
ENDBRANCH  19  20
ENDBRANCH  18  19
ENDBRANCH  17  18
ENDBRANCH   7  17
TORSDOF 6
ENDMDL
MODEL 7
REMARK VINA RESULT:      -6.9      1.435      1.637
REMARK  Name = 
REMARK  6 active torsions:
REMARK  status: ('A' for Active; 'I' for Inactive)
REMARK    1  A    between atoms: C_5  and  C_6
REMARK    2  A    between atoms: N_14  and  C_15
REMARK    3  A    between atoms: C_15  and  C_16
REMARK    4  A    between atoms: C_16  and  C_17
REMARK    5  A    between atoms: C_17  and  C_18
REMARK    6  A    between atoms: C_18  and  O_20
REMARK                            x       y       z     vdW  Elec       q    Type
REMARK                         _______ _______ _______ _____ _____    ______ ____
ROOT
ATOM      1  N   UNL     1       5.941   3.567  16.543  0.00  0.00    +0.000 N 
ATOM      2  C   UNL     1       5.230   4.624  17.153  0.00  0.00    +0.000 A 
ATOM      3  C   UNL     1       4.995   5.752  16.360  0.00  0.00    +0.000 A 
ATOM      4  C   UNL     1       4.202   6.778  16.824  0.00  0.00    +0.000 A 
ATOM      5  C   UNL     1       3.625   6.639  18.070  0.00  0.00    +0.000 A 
ATOM      6  N   UNL     1       3.897   5.572  18.852  0.00  0.00    +0.000 NA
ATOM      7  N   UNL     1       4.698   4.581  18.406  0.00  0.00    +0.000 N 
ATOM      8  H   UNL     1       6.838   3.982  16.207  0.00  0.00    +0.000 HD
ATOM      9  H   UNL     1       6.228   2.802  17.131  0.00  0.00    +0.000 HD
ENDROOT
BRANCH   5  10
ATOM     10  C   UNL     1       2.631   7.605  18.589  0.00  0.00    +0.000 A 
ATOM     11  C   UNL     1       2.157   7.534  19.920  0.00  0.00    +0.000 A 
ATOM     12  C   UNL     1       1.217   8.440  20.414  0.00  0.00    +0.000 A 
ATOM     13  C   UNL     1       0.737   9.447  19.587  0.00  0.00    +0.000 A 
ATOM     14  F   UNL     1      -0.156  10.317  20.057  0.00  0.00    +0.000 F 
ATOM     15  C   UNL     1       1.192   9.559  18.281  0.00  0.00    +0.000 A 
ATOM     16  C   UNL     1       2.132   8.650  17.785  0.00  0.00    +0.000 A 
ENDBRANCH   5  10
BRANCH   7  17
ATOM     17  C   UNL     1       4.786   3.396  19.284  0.00  0.00    +0.000 C 
BRANCH  17  18
ATOM     18  C   UNL     1       3.453   2.725  19.613  0.00  0.00    +0.000 C 
BRANCH  18  19
ATOM     19  C   UNL     1       2.644   2.185  18.435  0.00  0.00    +0.000 C 
BRANCH  19  20
ATOM     20  C   UNL     1       1.283   2.815  18.314  0.00  0.00    +0.000 C 
ATOM     21  O   UNL     1       0.253   2.314  18.738  0.00  0.00    +0.000 OA
BRANCH  20  22
ATOM     22  O   UNL     1       1.307   3.986  17.645  0.00  0.00    +0.000 OA
ATOM     23  H   UNL     1       0.589   4.602  17.903  0.00  0.00    +0.000 HD
ENDBRANCH  20  22
ENDBRANCH  19  20
ENDBRANCH  18  19
ENDBRANCH  17  18
ENDBRANCH   7  17
TORSDOF 6
ENDMDL
MODEL 8
REMARK VINA RESULT:      -6.9      4.636      6.140
REMARK  Name = 
REMARK  6 active torsions:
REMARK  status: ('A' for Active; 'I' for Inactive)
REMARK    1  A    between atoms: C_5  and  C_6
REMARK    2  A    between atoms: N_14  and  C_15
REMARK    3  A    between atoms: C_15  and  C_16
REMARK    4  A    between atoms: C_16  and  C_17
REMARK    5  A    between atoms: C_17  and  C_18
REMARK    6  A    between atoms: C_18  and  O_20
REMARK                            x       y       z     vdW  Elec       q    Type
REMARK                         _______ _______ _______ _____ _____    ______ ____
ROOT
ATOM      1  N   UNL     1       7.761   6.952  16.583  0.00  0.00    +0.000 N 
ATOM      2  C   UNL     1       6.840   6.147  17.290  0.00  0.00    +0.000 A 
ATOM      3  C   UNL     1       7.119   5.927  18.642  0.00  0.00    +0.000 A 
ATOM      4  C   UNL     1       6.216   5.263  19.442  0.00  0.00    +0.000 A 
ATOM      5  C   UNL     1       5.024   4.858  18.876  0.00  0.00    +0.000 A 
ATOM      6  N   UNL     1       4.781   5.027  17.558  0.00  0.00    +0.000 NA
ATOM      7  N   UNL     1       5.682   5.653  16.771  0.00  0.00    +0.000 N 
ATOM      8  H   UNL     1       8.692   6.496  16.704  0.00  0.00    +0.000 HD
ATOM      9  H   UNL     1       7.646   7.020  15.585  0.00  0.00    +0.000 HD
ENDROOT
BRANCH   5  10
ATOM     10  C   UNL     1       3.924   4.285  19.684  0.00  0.00    +0.000 A 
ATOM     11  C   UNL     1       3.959   2.945  20.135  0.00  0.00    +0.000 A 
ATOM     12  C   UNL     1       2.923   2.398  20.894  0.00  0.00    +0.000 A 
ATOM     13  C   UNL     1       1.830   3.188  21.229  0.00  0.00    +0.000 A 
ATOM     14  F   UNL     1       0.842   2.670  21.959  0.00  0.00    +0.000 F 
ATOM     15  C   UNL     1       1.768   4.511  20.819  0.00  0.00    +0.000 A 
ATOM     16  C   UNL     1       2.806   5.059  20.057  0.00  0.00    +0.000 A 
ENDBRANCH   5  10
BRANCH   7  17
ATOM     17  C   UNL     1       5.233   5.922  15.389  0.00  0.00    +0.000 C 
BRANCH  17  18
ATOM     18  C   UNL     1       5.299   4.730  14.436  0.00  0.00    +0.000 C 
BRANCH  18  19
ATOM     19  C   UNL     1       6.676   4.109  14.203  0.00  0.00    +0.000 C 
BRANCH  19  20
ATOM     20  C   UNL     1       7.486   4.838  13.165  0.00  0.00    +0.000 C 
ATOM     21  O   UNL     1       7.430   4.612  11.967  0.00  0.00    +0.000 OA
BRANCH  20  22
ATOM     22  O   UNL     1       8.321   5.752  13.701  0.00  0.00    +0.000 OA
ATOM     23  H   UNL     1       9.263   5.482  13.685  0.00  0.00    +0.000 HD
ENDBRANCH  20  22
ENDBRANCH  19  20
ENDBRANCH  18  19
ENDBRANCH  17  18
ENDBRANCH   7  17
TORSDOF 6
ENDMDL
MODEL 9
REMARK VINA RESULT:      -6.9      0.590      1.416
REMARK  Name = 
REMARK  6 active torsions:
REMARK  status: ('A' for Active; 'I' for Inactive)
REMARK    1  A    between atoms: C_5  and  C_6
REMARK    2  A    between atoms: N_14  and  C_15
REMARK    3  A    between atoms: C_15  and  C_16
REMARK    4  A    between atoms: C_16  and  C_17
REMARK    5  A    between atoms: C_17  and  C_18
REMARK    6  A    between atoms: C_18  and  O_20
REMARK                            x       y       z     vdW  Elec       q    Type
REMARK                         _______ _______ _______ _____ _____    ______ ____
ROOT
ATOM      1  N   UNL     1       5.638   3.459  16.153  0.00  0.00    +0.000 N 
ATOM      2  C   UNL     1       4.977   4.485  16.866  0.00  0.00    +0.000 A 
ATOM      3  C   UNL     1       5.246   5.795  16.459  0.00  0.00    +0.000 A 
ATOM      4  C   UNL     1       4.555   6.852  17.007  0.00  0.00    +0.000 A 
ATOM      5  C   UNL     1       3.573   6.572  17.936  0.00  0.00    +0.000 A 
ATOM      6  N   UNL     1       3.353   5.310  18.364  0.00  0.00    +0.000 NA
ATOM      7  N   UNL     1       4.053   4.279  17.845  0.00  0.00    +0.000 N 
ATOM      8  H   UNL     1       6.657   3.672  16.224  0.00  0.00    +0.000 HD
ATOM      9  H   UNL     1       5.555   2.521  16.508  0.00  0.00    +0.000 HD
ENDROOT
BRANCH   5  10
ATOM     10  C   UNL     1       2.666   7.617  18.461  0.00  0.00    +0.000 A 
ATOM     11  C   UNL     1       2.320   8.751  17.690  0.00  0.00    +0.000 A 
ATOM     12  C   UNL     1       1.467   9.741  18.181  0.00  0.00    +0.000 A 
ATOM     13  C   UNL     1       0.933   9.612  19.457  0.00  0.00    +0.000 A 
ATOM     14  F   UNL     1       0.114  10.554  19.927  0.00  0.00    +0.000 F 
ATOM     15  C   UNL     1       1.236   8.506  20.236  0.00  0.00    +0.000 A 
ATOM     16  C   UNL     1       2.092   7.514  19.745  0.00  0.00    +0.000 A 
ENDBRANCH   5  10
BRANCH   7  17
ATOM     17  C   UNL     1       3.609   2.936  18.272  0.00  0.00    +0.000 C 
BRANCH  17  18
ATOM     18  C   UNL     1       2.150   2.601  17.964  0.00  0.00    +0.000 C 
BRANCH  18  19
ATOM     19  C   UNL     1       1.307   2.066  19.120  0.00  0.00    +0.000 C 
BRANCH  19  20
ATOM     20  C   UNL     1       1.258   3.000  20.298  0.00  0.00    +0.000 C 
ATOM     21  O   UNL     1       0.815   4.138  20.254  0.00  0.00    +0.000 OA
BRANCH  20  22
ATOM     22  O   UNL     1       1.796   2.465  21.413  0.00  0.00    +0.000 OA
ATOM     23  H   UNL     1       2.224   3.124  21.999  0.00  0.00    +0.000 HD
ENDBRANCH  20  22
ENDBRANCH  19  20
ENDBRANCH  18  19
ENDBRANCH  17  18
ENDBRANCH   7  17
TORSDOF 6
ENDMDL
