MODEL 1
REMARK VINA RESULT:      -7.4      0.000      0.000
REMARK  Name = 
REMARK  6 active torsions:
REMARK  status: ('A' for Active; 'I' for Inactive)
REMARK    1  A    between atoms: C_2  and  O_3
REMARK    2  A    between atoms: C_2  and  C_4
REMARK    3  A    between atoms: C_5  and  C_6
REMARK    4  A    between atoms: C_7  and  C_8
REMARK    5  A    between atoms: C_8  and  N_9
REMARK    6  A    between atoms: N_12  and  C_13
REMARK                            x       y       z     vdW  Elec       q    Type
REMARK                         _______ _______ _______ _____ _____    ______ ____
ROOT
ATOM      1  C   UNL     1       0.986   8.982  19.934  0.00  0.00    +0.000 A 
ATOM      2  C   UNL     1       1.260   9.850  18.879  0.00  0.00    +0.000 A 
ATOM      3  N   UNL     1       2.118   9.253  17.976  0.00  0.00    +0.000 NA
ATOM      4  C   UNL     1       2.351   8.045  18.436  0.00  0.00    +0.000 A 
ATOM      5  C   UNL     1       3.112   6.973  17.887  0.00  0.00    +0.000 A 
ATOM      6  C   UNL     1       3.246   5.830  18.579  0.00  0.00    +0.000 A 
ATOM      7 CL   UNL     1       4.137   4.505  17.921  0.00  0.00    +0.000 Cl
ATOM      8  C   UNL     1       2.640   5.659  19.886  0.00  0.00    +0.000 A 
ATOM      9  C   UNL     1       1.892   6.653  20.395  0.00  0.00    +0.000 A 
ATOM     10  N   UNL     1       1.733   7.839  19.669  0.00  0.00    +0.000 N 
ENDROOT
BRANCH   1  12
ATOM     11  C   UNL     1       0.383   9.965  22.030  0.00  0.00    +0.000 C 
ATOM     12  C   UNL     1       0.160   9.041  21.091  0.00  0.00    +0.000 C 
BRANCH  11  14
ATOM     13  O   UNL     1      -1.477  10.680  23.326  0.00  0.00    +0.000 OA
ATOM     14  C   UNL     1      -0.436  10.055  23.245  0.00  0.00    +0.000 C 
BRANCH  14  15
ATOM     15  O   UNL     1       0.125   9.378  24.267  0.00  0.00    +0.000 OA
ATOM     16  H   UNL     1       1.051   9.086  24.114  0.00  0.00    +0.000 HD
ENDBRANCH  14  15
ENDBRANCH  11  14
ENDBRANCH   1  12
BRANCH   2  17
ATOM     17  C   UNL     1       0.796  11.257  18.618  0.00  0.00    +0.000 C 
BRANCH  17  18
ATOM     18  N   UNL     1      -0.637  11.382  18.770  0.00  0.00    +0.000 N 
ATOM     19  C   UNL     1      -1.604  10.728  17.978  0.00  0.00    +0.000 A 
ATOM     20  O   UNL     1      -1.394   9.957  17.051  0.00  0.00    +0.000 OA
ATOM     21  N   UNL     1      -2.872  11.212  18.403  0.00  0.00    +0.000 N 
ATOM     22  C   UNL     1      -2.670  12.114  19.462  0.00  0.00    +0.000 A 
ATOM     23  C   UNL     1      -3.569  12.848  20.201  0.00  0.00    +0.000 A 
ATOM     24  C   UNL     1      -3.019  13.670  21.175  0.00  0.00    +0.000 A 
ATOM     25  N   UNL     1      -1.689  13.761  21.450  0.00  0.00    +0.000 NA
ATOM     26  C   UNL     1      -0.839  13.017  20.701  0.00  0.00    +0.000 A 
ATOM     27  C   UNL     1      -1.300  12.205  19.696  0.00  0.00    +0.000 A 
BRANCH  21  28
ATOM     28  C   UNL     1      -4.119  10.720  17.919  0.00  0.00    +0.000 C 
ATOM     29  C   UNL     1      -5.394  11.518  17.835  0.00  0.00    +0.000 C 
ATOM     30  C   UNL     1      -4.653  11.174  16.580  0.00  0.00    +0.000 C 
ENDBRANCH  21  28
ENDBRANCH  17  18
ENDBRANCH   2  17
TORSDOF 6
ENDMDL
MODEL 2
REMARK VINA RESULT:      -7.3      0.942      1.148
REMARK  Name = 
REMARK  6 active torsions:
REMARK  status: ('A' for Active; 'I' for Inactive)
REMARK    1  A    between atoms: C_2  and  O_3
REMARK    2  A    between atoms: C_2  and  C_4
REMARK    3  A    between atoms: C_5  and  C_6
REMARK    4  A    between atoms: C_7  and  C_8
REMARK    5  A    between atoms: C_8  and  N_9
REMARK    6  A    between atoms: N_12  and  C_13
REMARK                            x       y       z     vdW  Elec       q    Type
REMARK                         _______ _______ _______ _____ _____    ______ ____
ROOT
ATOM      1  C   UNL     1       1.622   8.477  20.086  0.00  0.00    +0.000 A 
ATOM      2  C   UNL     1       1.593   9.043  18.813  0.00  0.00    +0.000 A 
ATOM      3  N   UNL     1       1.892   8.093  17.857  0.00  0.00    +0.000 NA
ATOM      4  C   UNL     1       2.075   6.966  18.506  0.00  0.00    +0.000 A 
ATOM      5  C   UNL     1       2.348   5.652  18.028  0.00  0.00    +0.000 A 
ATOM      6  C   UNL     1       2.549   4.654  18.904  0.00  0.00    +0.000 A 
ATOM      7 CL   UNL     1       2.849   3.046  18.349  0.00  0.00    +0.000 Cl
ATOM      8  C   UNL     1       2.505   4.880  20.336  0.00  0.00    +0.000 A 
ATOM      9  C   UNL     1       2.215   6.110  20.795  0.00  0.00    +0.000 A 
ATOM     10  N   UNL     1       1.985   7.149  19.886  0.00  0.00    +0.000 N 
ENDROOT
BRANCH   1  12
ATOM     11  C   UNL     1       0.109   9.221  21.783  0.00  0.00    +0.000 C 
ATOM     12  C   UNL     1       1.361   8.955  21.400  0.00  0.00    +0.000 C 
BRANCH  11  14
ATOM     13  O   UNL     1       0.412   9.432  24.131  0.00  0.00    +0.000 OA
ATOM     14  C   UNL     1      -0.205   9.726  23.125  0.00  0.00    +0.000 C 
BRANCH  14  15
ATOM     15  O   UNL     1      -1.283  10.538  23.105  0.00  0.00    +0.000 OA
ATOM     16  H   UNL     1      -2.084  10.176  23.542  0.00  0.00    +0.000 HD
ENDBRANCH  14  15
ENDBRANCH  11  14
ENDBRANCH   1  12
BRANCH   2  17
ATOM     17  C   UNL     1       1.317  10.455  18.371  0.00  0.00    +0.000 C 
BRANCH  17  18
ATOM     18  N   UNL     1      -0.052  10.838  18.637  0.00  0.00    +0.000 N 
ATOM     19  C   UNL     1      -1.183  10.381  17.928  0.00  0.00    +0.000 A 
ATOM     20  O   UNL     1      -1.192   9.594  16.990  0.00  0.00    +0.000 OA
ATOM     21  N   UNL     1      -2.303  11.084  18.452  0.00  0.00    +0.000 N 
ATOM     22  C   UNL     1      -1.855  11.922  19.487  0.00  0.00    +0.000 A 
ATOM     23  C   UNL     1      -2.543  12.801  20.292  0.00  0.00    +0.000 A 
ATOM     24  C   UNL     1      -1.775  13.497  21.216  0.00  0.00    +0.000 A 
ATOM     25  N   UNL     1      -0.433  13.341  21.383  0.00  0.00    +0.000 NA
ATOM     26  C   UNL     1       0.203  12.462  20.571  0.00  0.00    +0.000 A 
ATOM     27  C   UNL     1      -0.477  11.758  19.610  0.00  0.00    +0.000 A 
BRANCH  21  28
ATOM     28  C   UNL     1      -3.653  10.834  18.071  0.00  0.00    +0.000 C 
ATOM     29  C   UNL     1      -4.767  11.847  18.106  0.00  0.00    +0.000 C 
ATOM     30  C   UNL     1      -4.206  11.411  16.788  0.00  0.00    +0.000 C 
ENDBRANCH  21  28
ENDBRANCH  17  18
ENDBRANCH   2  17
TORSDOF 6
ENDMDL
MODEL 3
REMARK VINA RESULT:      -7.2      1.643      3.090
REMARK  Name = 
REMARK  6 active torsions:
REMARK  status: ('A' for Active; 'I' for Inactive)
REMARK    1  A    between atoms: C_2  and  O_3
REMARK    2  A    between atoms: C_2  and  C_4
REMARK    3  A    between atoms: C_5  and  C_6
REMARK    4  A    between atoms: C_7  and  C_8
REMARK    5  A    between atoms: C_8  and  N_9
REMARK    6  A    between atoms: N_12  and  C_13
REMARK                            x       y       z     vdW  Elec       q    Type
REMARK                         _______ _______ _______ _____ _____    ______ ____
ROOT
ATOM      1  C   UNL     1       1.738   8.264  20.042  0.00  0.00    +0.000 A 
ATOM      2  C   UNL     1       1.866   8.839  18.780  0.00  0.00    +0.000 A 
ATOM      3  N   UNL     1       2.057   7.862  17.823  0.00  0.00    +0.000 NA
ATOM      4  C   UNL     1       2.022   6.715  18.460  0.00  0.00    +0.000 A 
ATOM      5  C   UNL     1       2.102   5.378  17.972  0.00  0.00    +0.000 A 
ATOM      6  C   UNL     1       2.094   4.352  18.839  0.00  0.00    +0.000 A 
ATOM      7 CL   UNL     1       2.158   2.722  18.270  0.00  0.00    +0.000 Cl
ATOM      8  C   UNL     1       2.013   4.569  20.271  0.00  0.00    +0.000 A 
ATOM      9  C   UNL     1       1.903   5.825  20.737  0.00  0.00    +0.000 A 
ATOM     10  N   UNL     1       1.891   6.897  19.836  0.00  0.00    +0.000 N 
ENDROOT
BRANCH   1  12
ATOM     11  C   UNL     1       0.236   8.954  21.772  0.00  0.00    +0.000 C 
ATOM     12  C   UNL     1       1.490   8.764  21.350  0.00  0.00    +0.000 C 
BRANCH  11  14
ATOM     13  O   UNL     1       0.749   9.579  24.007  0.00  0.00    +0.000 OA
ATOM     14  C   UNL     1      -0.065   9.480  23.109  0.00  0.00    +0.000 C 
BRANCH  14  15
ATOM     15  O   UNL     1      -1.367   9.815  23.223  0.00  0.00    +0.000 OA
ATOM     16  H   UNL     1      -1.931   9.145  23.669  0.00  0.00    +0.000 HD
ENDBRANCH  14  15
ENDBRANCH  11  14
ENDBRANCH   1  12
BRANCH   2  17
ATOM     17  C   UNL     1       1.846  10.281  18.350  0.00  0.00    +0.000 C 
BRANCH  17  18
ATOM     18  N   UNL     1       0.673  10.968  18.845  0.00  0.00    +0.000 N 
ATOM     19  C   UNL     1       0.660  11.915  19.892  0.00  0.00    +0.000 A 
ATOM     20  O   UNL     1       1.624  12.308  20.537  0.00  0.00    +0.000 OA
ATOM     21  N   UNL     1      -0.702  12.255  20.115  0.00  0.00    +0.000 N 
ATOM     22  C   UNL     1      -1.492  11.551  19.190  0.00  0.00    +0.000 A 
ATOM     23  C   UNL     1      -2.856  11.531  19.005  0.00  0.00    +0.000 A 
ATOM     24  C   UNL     1      -3.314  10.696  17.995  0.00  0.00    +0.000 A 
ATOM     25  N   UNL     1      -2.514   9.946  17.188  0.00  0.00    +0.000 NA
ATOM     26  C   UNL     1      -1.177   9.999  17.403  0.00  0.00    +0.000 A 
ATOM     27  C   UNL     1      -0.646  10.775  18.402  0.00  0.00    +0.000 A 
BRANCH  21  28
ATOM     28  C   UNL     1      -1.136  13.262  21.027  0.00  0.00    +0.000 C 
ATOM     29  C   UNL     1      -2.301  13.134  21.972  0.00  0.00    +0.000 C 
ATOM     30  C   UNL     1      -0.904  13.102  22.511  0.00  0.00    +0.000 C 
ENDBRANCH  21  28
ENDBRANCH  17  18
ENDBRANCH   2  17
TORSDOF 6
ENDMDL
MODEL 4
REMARK VINA RESULT:      -7.2      1.349      2.684
REMARK  Name = 
REMARK  6 active torsions:
REMARK  status: ('A' for Active; 'I' for Inactive)
REMARK    1  A    between atoms: C_2  and  O_3
REMARK    2  A    between atoms: C_2  and  C_4
REMARK    3  A    between atoms: C_5  and  C_6
REMARK    4  A    between atoms: C_7  and  C_8
REMARK    5  A    between atoms: C_8  and  N_9
REMARK    6  A    between atoms: N_12  and  C_13
REMARK                            x       y       z     vdW  Elec       q    Type
REMARK                         _______ _______ _______ _____ _____    ______ ____
ROOT
ATOM      1  C   UNL     1       0.762   9.763  19.682  0.00  0.00    +0.000 A 
ATOM      2  C   UNL     1       1.025  10.690  18.675  0.00  0.00    +0.000 A 
ATOM      3  N   UNL     1       1.920  10.167  17.762  0.00  0.00    +0.000 NA
ATOM      4  C   UNL     1       2.187   8.948  18.169  0.00  0.00    +0.000 A 
ATOM      5  C   UNL     1       2.996   7.930  17.586  0.00  0.00    +0.000 A 
ATOM      6  C   UNL     1       3.159   6.761  18.227  0.00  0.00    +0.000 A 
ATOM      7 CL   UNL     1       4.109   5.500  17.525  0.00  0.00    +0.000 Cl
ATOM      8  C   UNL     1       2.535   6.506  19.511  0.00  0.00    +0.000 A 
ATOM      9  C   UNL     1       1.743   7.448  20.052  0.00  0.00    +0.000 A 
ATOM     10  N   UNL     1       1.555   8.661  19.378  0.00  0.00    +0.000 N 
ENDROOT
BRANCH   1  12
ATOM     11  C   UNL     1       0.357  10.186  22.002  0.00  0.00    +0.000 C 
ATOM     12  C   UNL     1      -0.087   9.739  20.823  0.00  0.00    +0.000 C 
BRANCH  11  14
ATOM     13  O   UNL     1      -1.516  10.795  23.333  0.00  0.00    +0.000 OA
ATOM     14  C   UNL     1      -0.481  10.168  23.207  0.00  0.00    +0.000 C 
BRANCH  14  15
ATOM     15  O   UNL     1       0.057   9.388  24.168  0.00  0.00    +0.000 OA
ATOM     16  H   UNL     1       0.649   8.675  23.840  0.00  0.00    +0.000 HD
ENDBRANCH  14  15
ENDBRANCH  11  14
ENDBRANCH   1  12
BRANCH   2  17
ATOM     17  C   UNL     1       0.515  12.091  18.470  0.00  0.00    +0.000 C 
BRANCH  17  18
ATOM     18  N   UNL     1      -0.894  12.196  18.780  0.00  0.00    +0.000 N 
ATOM     19  C   UNL     1      -1.438  12.851  19.906  0.00  0.00    +0.000 A 
ATOM     20  O   UNL     1      -0.817  13.432  20.787  0.00  0.00    +0.000 OA
ATOM     21  N   UNL     1      -2.841  12.624  19.869  0.00  0.00    +0.000 N 
ATOM     22  C   UNL     1      -3.139  11.876  18.717  0.00  0.00    +0.000 A 
ATOM     23  C   UNL     1      -4.339  11.401  18.241  0.00  0.00    +0.000 A 
ATOM     24  C   UNL     1      -4.271  10.669  17.063  0.00  0.00    +0.000 A 
ATOM     25  N   UNL     1      -3.128  10.432  16.363  0.00  0.00    +0.000 NA
ATOM     26  C   UNL     1      -1.970  10.924  16.866  0.00  0.00    +0.000 A 
ATOM     27  C   UNL     1      -1.946  11.628  18.043  0.00  0.00    +0.000 A 
BRANCH  21  28
ATOM     28  C   UNL     1      -3.769  13.208  20.780  0.00  0.00    +0.000 C 
ATOM     29  C   UNL     1      -5.067  12.581  21.218  0.00  0.00    +0.000 C 
ATOM     30  C   UNL     1      -3.921  12.655  22.178  0.00  0.00    +0.000 C 
ENDBRANCH  21  28
ENDBRANCH  17  18
ENDBRANCH   2  17
TORSDOF 6
ENDMDL
MODEL 5
REMARK VINA RESULT:      -7.0      4.280      8.344
REMARK  Name = 
REMARK  6 active torsions:
REMARK  status: ('A' for Active; 'I' for Inactive)
REMARK    1  A    between atoms: C_2  and  O_3
REMARK    2  A    between atoms: C_2  and  C_4
REMARK    3  A    between atoms: C_5  and  C_6
REMARK    4  A    between atoms: C_7  and  C_8
REMARK    5  A    between atoms: C_8  and  N_9
REMARK    6  A    between atoms: N_12  and  C_13
REMARK                            x       y       z     vdW  Elec       q    Type
REMARK                         _______ _______ _______ _____ _____    ______ ____
ROOT
ATOM      1  C   UNL     1       1.807   7.477  19.936  0.00  0.00    +0.000 A 
ATOM      2  C   UNL     1       1.960   8.016  18.660  0.00  0.00    +0.000 A 
ATOM      3  N   UNL     1       1.483   9.311  18.625  0.00  0.00    +0.000 NA
ATOM      4  C   UNL     1       1.072   9.583  19.842  0.00  0.00    +0.000 A 
ATOM      5  C   UNL     1       0.544  10.784  20.398  0.00  0.00    +0.000 A 
ATOM      6  C   UNL     1       0.140  10.802  21.679  0.00  0.00    +0.000 A 
ATOM      7 CL   UNL     1      -0.473  12.255  22.385  0.00  0.00    +0.000 Cl
ATOM      8  C   UNL     1       0.217   9.621  22.516  0.00  0.00    +0.000 A 
ATOM      9  C   UNL     1       0.745   8.493  22.009  0.00  0.00    +0.000 A 
ATOM     10  N   UNL     1       1.186   8.475  20.681  0.00  0.00    +0.000 N 
ENDROOT
BRANCH   1  12
ATOM     11  C   UNL     1       1.263   5.239  20.584  0.00  0.00    +0.000 C 
ATOM     12  C   UNL     1       2.149   6.239  20.547  0.00  0.00    +0.000 C 
BRANCH  11  14
ATOM     13  O   UNL     1       2.438   3.783  22.050  0.00  0.00    +0.000 OA
ATOM     14  C   UNL     1       1.569   3.949  21.215  0.00  0.00    +0.000 C 
BRANCH  14  15
ATOM     15  O   UNL     1       0.781   2.966  20.732  0.00  0.00    +0.000 OA
ATOM     16  H   UNL     1       0.665   2.969  19.756  0.00  0.00    +0.000 HD
ENDBRANCH  14  15
ENDBRANCH  11  14
ENDBRANCH   1  12
BRANCH   2  17
ATOM     17  C   UNL     1       2.517   7.414  17.399  0.00  0.00    +0.000 C 
BRANCH  17  18
ATOM     18  N   UNL     1       3.363   6.274  17.681  0.00  0.00    +0.000 N 
ATOM     19  C   UNL     1       4.753   6.326  17.917  0.00  0.00    +0.000 A 
ATOM     20  O   UNL     1       5.459   7.327  17.927  0.00  0.00    +0.000 OA
ATOM     21  N   UNL     1       5.193   4.980  18.048  0.00  0.00    +0.000 N 
ATOM     22  C   UNL     1       4.076   4.135  17.931  0.00  0.00    +0.000 A 
ATOM     23  C   UNL     1       3.978   2.763  17.978  0.00  0.00    +0.000 A 
ATOM     24  C   UNL     1       2.702   2.245  17.803  0.00  0.00    +0.000 A 
ATOM     25  N   UNL     1       1.580   2.994  17.626  0.00  0.00    +0.000 NA
ATOM     26  C   UNL     1       1.721   4.341  17.591  0.00  0.00    +0.000 A 
ATOM     27  C   UNL     1       2.953   4.932  17.722  0.00  0.00    +0.000 A 
BRANCH  21  28
ATOM     28  C   UNL     1       6.523   4.604  18.396  0.00  0.00    +0.000 C 
ATOM     29  C   UNL     1       7.684   4.534  17.440  0.00  0.00    +0.000 C 
ATOM     30  C   UNL     1       7.623   5.638  18.448  0.00  0.00    +0.000 C 
ENDBRANCH  21  28
ENDBRANCH  17  18
ENDBRANCH   2  17
TORSDOF 6
ENDMDL
MODEL 6
REMARK VINA RESULT:      -7.0      1.411      2.747
REMARK  Name = 
REMARK  6 active torsions:
REMARK  status: ('A' for Active; 'I' for Inactive)
REMARK    1  A    between atoms: C_2  and  O_3
REMARK    2  A    between atoms: C_2  and  C_4
REMARK    3  A    between atoms: C_5  and  C_6
REMARK    4  A    between atoms: C_7  and  C_8
REMARK    5  A    between atoms: C_8  and  N_9
REMARK    6  A    between atoms: N_12  and  C_13
REMARK                            x       y       z     vdW  Elec       q    Type
REMARK                         _______ _______ _______ _____ _____    ______ ____
ROOT
ATOM      1  C   UNL     1       1.499   8.981  20.095  0.00  0.00    +0.000 A 
ATOM      2  C   UNL     1       1.618   9.624  18.865  0.00  0.00    +0.000 A 
ATOM      3  N   UNL     1       1.959   8.718  17.879  0.00  0.00    +0.000 NA
ATOM      4  C   UNL     1       2.024   7.546  18.468  0.00  0.00    +0.000 A 
ATOM      5  C   UNL     1       2.274   6.250  17.931  0.00  0.00    +0.000 A 
ATOM      6  C   UNL     1       2.342   5.190  18.754  0.00  0.00    +0.000 A 
ATOM      7 CL   UNL     1       2.612   3.605  18.124  0.00  0.00    +0.000 Cl
ATOM      8  C   UNL     1       2.174   5.332  20.188  0.00  0.00    +0.000 A 
ATOM      9  C   UNL     1       1.903   6.545  20.698  0.00  0.00    +0.000 A 
ATOM     10  N   UNL     1       1.813   7.649  19.842  0.00  0.00    +0.000 N 
ENDROOT
BRANCH   1  12
ATOM     11  C   UNL     1      -0.146   9.558  21.733  0.00  0.00    +0.000 C 
ATOM     12  C   UNL     1       1.139   9.391  21.409  0.00  0.00    +0.000 C 
BRANCH  11  14
ATOM     13  O   UNL     1      -1.570  10.632  23.305  0.00  0.00    +0.000 OA
ATOM     14  C   UNL     1      -0.562   9.992  23.072  0.00  0.00    +0.000 C 
BRANCH  14  15
ATOM     15  O   UNL     1       0.329   9.611  24.011  0.00  0.00    +0.000 OA
ATOM     16  H   UNL     1       0.710   8.714  23.882  0.00  0.00    +0.000 HD
ENDBRANCH  14  15
ENDBRANCH  11  14
ENDBRANCH   1  12
BRANCH   2  17
ATOM     17  C   UNL     1       1.456  11.073  18.493  0.00  0.00    +0.000 C 
BRANCH  17  18
ATOM     18  N   UNL     1       0.131  11.559  18.809  0.00  0.00    +0.000 N 
ATOM     19  C   UNL     1      -0.166  12.580  19.737  0.00  0.00    +0.000 A 
ATOM     20  O   UNL     1       0.635  13.215  20.410  0.00  0.00    +0.000 OA
ATOM     21  N   UNL     1      -1.584  12.665  19.808  0.00  0.00    +0.000 N 
ATOM     22  C   UNL     1      -2.129  11.734  18.906  0.00  0.00    +0.000 A 
ATOM     23  C   UNL     1      -3.438  11.428  18.614  0.00  0.00    +0.000 A 
ATOM     24  C   UNL     1      -3.625  10.425  17.672  0.00  0.00    +0.000 A 
ATOM     25  N   UNL     1      -2.621   9.774  17.023  0.00  0.00    +0.000 NA
ATOM     26  C   UNL     1      -1.347  10.111  17.339  0.00  0.00    +0.000 A 
ATOM     27  C   UNL     1      -1.076  11.068  18.284  0.00  0.00    +0.000 A 
BRANCH  21  28
ATOM     28  C   UNL     1      -2.290  13.649  20.560  0.00  0.00    +0.000 C 
ATOM     29  C   UNL     1      -3.557  13.404  21.336  0.00  0.00    +0.000 C 
ATOM     30  C   UNL     1      -2.270  13.617  22.070  0.00  0.00    +0.000 C 
ENDBRANCH  21  28
ENDBRANCH  17  18
ENDBRANCH   2  17
TORSDOF 6
ENDMDL
MODEL 7
REMARK VINA RESULT:      -6.9      3.500      7.385
REMARK  Name = 
REMARK  6 active torsions:
REMARK  status: ('A' for Active; 'I' for Inactive)
REMARK    1  A    between atoms: C_2  and  O_3
REMARK    2  A    between atoms: C_2  and  C_4
REMARK    3  A    between atoms: C_5  and  C_6
REMARK    4  A    between atoms: C_7  and  C_8
REMARK    5  A    between atoms: C_8  and  N_9
REMARK    6  A    between atoms: N_12  and  C_13
REMARK                            x       y       z     vdW  Elec       q    Type
REMARK                         _______ _______ _______ _____ _____    ______ ____
ROOT
ATOM      1  C   UNL     1      -2.862  11.196  17.912  0.00  0.00    +0.000 A 
ATOM      2  C   UNL     1      -1.878  11.798  18.693  0.00  0.00    +0.000 A 
ATOM      3  N   UNL     1      -2.448  12.436  19.777  0.00  0.00    +0.000 NA
ATOM      4  C   UNL     1      -3.740  12.218  19.692  0.00  0.00    +0.000 A 
ATOM      5  C   UNL     1      -4.804  12.586  20.566  0.00  0.00    +0.000 A 
ATOM      6  C   UNL     1      -6.071  12.288  20.233  0.00  0.00    +0.000 A 
ATOM      7 CL   UNL     1      -7.374  12.695  21.291  0.00  0.00    +0.000 Cl
ATOM      8  C   UNL     1      -6.389  11.604  18.995  0.00  0.00    +0.000 A 
ATOM      9  C   UNL     1      -5.389  11.223  18.182  0.00  0.00    +0.000 A 
ATOM     10  N   UNL     1      -4.066  11.514  18.533  0.00  0.00    +0.000 N 
ENDROOT
BRANCH   1  12
ATOM     11  C   UNL     1      -3.265  10.902  15.572  0.00  0.00    +0.000 C 
ATOM     12  C   UNL     1      -2.857  10.393  16.738  0.00  0.00    +0.000 C 
BRANCH  11  14
ATOM     13  O   UNL     1      -2.296   9.791  13.707  0.00  0.00    +0.000 OA
ATOM     14  C   UNL     1      -3.287  10.105  14.339  0.00  0.00    +0.000 C 
BRANCH  14  15
ATOM     15  O   UNL     1      -4.548   9.786  13.982  0.00  0.00    +0.000 OA
ATOM     16  H   UNL     1      -4.684   9.646  13.019  0.00  0.00    +0.000 HD
ENDBRANCH  14  15
ENDBRANCH  11  14
ENDBRANCH   1  12
BRANCH   2  17
ATOM     17  C   UNL     1      -0.385  11.860  18.518  0.00  0.00    +0.000 C 
BRANCH  17  18
ATOM     18  N   UNL     1       0.276  10.769  19.201  0.00  0.00    +0.000 N 
ATOM     19  C   UNL     1       1.053   9.767  18.582  0.00  0.00    +0.000 A 
ATOM     20  O   UNL     1       1.294   9.660  17.386  0.00  0.00    +0.000 OA
ATOM     21  N   UNL     1       1.423   8.850  19.604  0.00  0.00    +0.000 N 
ATOM     22  C   UNL     1       0.908   9.317  20.826  0.00  0.00    +0.000 A 
ATOM     23  C   UNL     1       0.985   8.788  22.093  0.00  0.00    +0.000 A 
ATOM     24  C   UNL     1       0.336   9.509  23.087  0.00  0.00    +0.000 A 
ATOM     25  N   UNL     1      -0.321  10.684  22.886  0.00  0.00    +0.000 NA
ATOM     26  C   UNL     1      -0.368  11.171  21.623  0.00  0.00    +0.000 A 
ATOM     27  C   UNL     1       0.220  10.502  20.579  0.00  0.00    +0.000 A 
BRANCH  21  28
ATOM     28  C   UNL     1       2.300   7.744  19.406  0.00  0.00    +0.000 C 
ATOM     29  C   UNL     1       2.076   6.352  19.937  0.00  0.00    +0.000 C 
ATOM     30  C   UNL     1       1.917   6.620  18.473  0.00  0.00    +0.000 C 
ENDBRANCH  21  28
ENDBRANCH  17  18
ENDBRANCH   2  17
TORSDOF 6
ENDMDL
MODEL 8
REMARK VINA RESULT:      -6.7      2.208      3.813
REMARK  Name = 
REMARK  6 active torsions:
REMARK  status: ('A' for Active; 'I' for Inactive)
REMARK    1  A    between atoms: C_2  and  O_3
REMARK    2  A    between atoms: C_2  and  C_4
REMARK    3  A    between atoms: C_5  and  C_6
REMARK    4  A    between atoms: C_7  and  C_8
REMARK    5  A    between atoms: C_8  and  N_9
REMARK    6  A    between atoms: N_12  and  C_13
REMARK                            x       y       z     vdW  Elec       q    Type
REMARK                         _______ _______ _______ _____ _____    ______ ____
ROOT
ATOM      1  C   UNL     1       1.054   8.943  19.656  0.00  0.00    +0.000 A 
ATOM      2  C   UNL     1       1.017   9.793  18.552  0.00  0.00    +0.000 A 
ATOM      3  N   UNL     1       1.864   9.333  17.562  0.00  0.00    +0.000 NA
ATOM      4  C   UNL     1       2.392   8.222  18.020  0.00  0.00    +0.000 A 
ATOM      5  C   UNL     1       3.285   7.296  17.407  0.00  0.00    +0.000 A 
ATOM      6  C   UNL     1       3.732   6.240  18.107  0.00  0.00    +0.000 A 
ATOM      7 CL   UNL     1       4.790   5.087  17.375  0.00  0.00    +0.000 Cl
ATOM      8  C   UNL     1       3.335   6.020  19.484  0.00  0.00    +0.000 A 
ATOM      9  C   UNL     1       2.467   6.869  20.059  0.00  0.00    +0.000 A 
ATOM     10  N   UNL     1       1.982   7.960  19.327  0.00  0.00    +0.000 N 
ENDROOT
BRANCH   1  12
ATOM     11  C   UNL     1       0.856   9.575  21.955  0.00  0.00    +0.000 C 
ATOM     12  C   UNL     1       0.379   8.897  20.907  0.00  0.00    +0.000 C 
BRANCH  11  14
ATOM     13  O   UNL     1       0.782   9.414  24.325  0.00  0.00    +0.000 OA
ATOM     14  C   UNL     1       0.198   9.546  23.267  0.00  0.00    +0.000 C 
BRANCH  14  15
ATOM     15  O   UNL     1      -1.141   9.659  23.147  0.00  0.00    +0.000 OA
ATOM     16  H   UNL     1      -1.495   9.474  22.250  0.00  0.00    +0.000 HD
ENDBRANCH  14  15
ENDBRANCH  11  14
ENDBRANCH   1  12
BRANCH   2  17
ATOM     17  C   UNL     1       0.247  11.063  18.315  0.00  0.00    +0.000 C 
BRANCH  17  18
ATOM     18  N   UNL     1       0.609  12.091  19.266  0.00  0.00    +0.000 N 
ATOM     19  C   UNL     1       1.817  12.820  19.263  0.00  0.00    +0.000 A 
ATOM     20  O   UNL     1       2.739  12.709  18.464  0.00  0.00    +0.000 OA
ATOM     21  N   UNL     1       1.798  13.644  20.422  0.00  0.00    +0.000 N 
ATOM     22  C   UNL     1       0.578  13.440  21.090  0.00  0.00    +0.000 A 
ATOM     23  C   UNL     1       0.088  13.990  22.252  0.00  0.00    +0.000 A 
ATOM     24  C   UNL     1      -1.166  13.544  22.646  0.00  0.00    +0.000 A 
ATOM     25  N   UNL     1      -1.923  12.649  21.954  0.00  0.00    +0.000 NA
ATOM     26  C   UNL     1      -1.403  12.136  20.813  0.00  0.00    +0.000 A 
ATOM     27  C   UNL     1      -0.155  12.499  20.372  0.00  0.00    +0.000 A 
BRANCH  21  28
ATOM     28  C   UNL     1       2.796  14.614  20.731  0.00  0.00    +0.000 C 
ATOM     29  C   UNL     1       3.039  15.206  22.094  0.00  0.00    +0.000 C 
ATOM     30  C   UNL     1       4.019  14.226  21.528  0.00  0.00    +0.000 C 
ENDBRANCH  21  28
ENDBRANCH  17  18
ENDBRANCH   2  17
TORSDOF 6
ENDMDL
MODEL 9
REMARK VINA RESULT:      -6.7      4.848      8.946
REMARK  Name = 
REMARK  6 active torsions:
REMARK  status: ('A' for Active; 'I' for Inactive)
REMARK    1  A    between atoms: C_2  and  O_3
REMARK    2  A    between atoms: C_2  and  C_4
REMARK    3  A    between atoms: C_5  and  C_6
REMARK    4  A    between atoms: C_7  and  C_8
REMARK    5  A    between atoms: C_8  and  N_9
REMARK    6  A    between atoms: N_12  and  C_13
REMARK                            x       y       z     vdW  Elec       q    Type
REMARK                         _______ _______ _______ _____ _____    ______ ____
ROOT
ATOM      1  C   UNL     1       2.269   5.766  19.637  0.00  0.00    +0.000 A 
ATOM      2  C   UNL     1       2.615   5.596  18.297  0.00  0.00    +0.000 A 
ATOM      3  N   UNL     1       2.475   6.786  17.610  0.00  0.00    +0.000 NA
ATOM      4  C   UNL     1       2.082   7.674  18.493  0.00  0.00    +0.000 A 
ATOM      5  C   UNL     1       1.840   9.072  18.361  0.00  0.00    +0.000 A 
ATOM      6  C   UNL     1       1.388   9.772  19.414  0.00  0.00    +0.000 A 
ATOM      7 CL   UNL     1       1.118  11.473  19.287  0.00  0.00    +0.000 Cl
ATOM      8  C   UNL     1       1.129   9.137  20.692  0.00  0.00    +0.000 A 
ATOM      9  C   UNL     1       1.388   7.826  20.836  0.00  0.00    +0.000 A 
ATOM     10  N   UNL     1       1.877   7.096  19.746  0.00  0.00    +0.000 N 
ENDROOT
BRANCH   1  12
ATOM     11  C   UNL     1       1.940   3.633  20.669  0.00  0.00    +0.000 C 
ATOM     12  C   UNL     1       2.264   4.925  20.783  0.00  0.00    +0.000 C 
BRANCH  11  14
ATOM     13  O   UNL     1       0.924   2.524  22.511  0.00  0.00    +0.000 OA
ATOM     14  C   UNL     1       1.910   2.732  21.828  0.00  0.00    +0.000 C 
BRANCH  14  15
ATOM     15  O   UNL     1       3.121   2.182  22.054  0.00  0.00    +0.000 OA
ATOM     16  H   UNL     1       3.655   2.007  21.248  0.00  0.00    +0.000 HD
ENDBRANCH  14  15
ENDBRANCH  11  14
ENDBRANCH   1  12
BRANCH   2  17
ATOM     17  C   UNL     1       3.069   4.374  17.547  0.00  0.00    +0.000 C 
BRANCH  17  18
ATOM     18  N   UNL     1       4.452   4.486  17.135  0.00  0.00    +0.000 N 
ATOM     19  C   UNL     1       4.940   4.236  15.834  0.00  0.00    +0.000 A 
ATOM     20  O   UNL     1       4.286   3.895  14.857  0.00  0.00    +0.000 OA
ATOM     21  N   UNL     1       6.355   4.366  15.900  0.00  0.00    +0.000 N 
ATOM     22  C   UNL     1       6.706   4.726  17.213  0.00  0.00    +0.000 A 
ATOM     23  C   UNL     1       7.937   4.959  17.781  0.00  0.00    +0.000 A 
ATOM     24  C   UNL     1       7.925   5.281  19.132  0.00  0.00    +0.000 A 
ATOM     25  N   UNL     1       6.800   5.404  19.889  0.00  0.00    +0.000 NA
ATOM     26  C   UNL     1       5.609   5.170  19.287  0.00  0.00    +0.000 A 
ATOM     27  C   UNL     1       5.537   4.814  17.964  0.00  0.00    +0.000 A 
BRANCH  21  28
ATOM     28  C   UNL     1       7.219   4.290  14.769  0.00  0.00    +0.000 C 
ATOM     29  C   UNL     1       6.769   4.283  13.332  0.00  0.00    +0.000 C 
ATOM     30  C   UNL     1       7.438   5.500  13.891  0.00  0.00    +0.000 C 
ENDBRANCH  21  28
ENDBRANCH  17  18
ENDBRANCH   2  17
TORSDOF 6
ENDMDL
