MODEL 1
REMARK VINA RESULT:      -5.5      0.000      0.000
REMARK  Name = 
REMARK  12 active torsions:
REMARK  status: ('A' for Active; 'I' for Inactive)
REMARK    1  A    between atoms: C_1  and  C_2
REMARK    2  A    between atoms: C_2  and  O_3
REMARK    3  A    between atoms: O_3  and  C_4
REMARK    4  A    between atoms: C_4  and  C_6
REMARK    5  A    between atoms: C_7  and  C_8
REMARK    6  A    between atoms: N_9  and  C_10
REMARK    7  A    between atoms: C_11  and  C_12
REMARK    8  A    between atoms: C_13  and  C_14
REMARK    9  A    between atoms: C_14  and  O_16
REMARK   10  A    between atoms: O_16  and  C_17
REMARK   11  A    between atoms: C_17  and  C_18
REMARK   12  A    between atoms: C_19  and  C_20
REMARK                            x       y       z     vdW  Elec       q    Type
REMARK                         _______ _______ _______ _____ _____    ______ ____
ROOT
ATOM      1  C   UNL     1      -1.134  12.950  20.286  0.00  0.00    +0.000 C 
ATOM      2  C   UNL     1      -2.270  13.510  20.777  0.00  0.00    +0.000 C 
ATOM      3  C   UNL     1      -2.278  14.432  21.989  0.00  0.00    +0.000 C 
ATOM      4  N   UNL     1      -3.530  13.241  20.171  0.00  0.00    +0.000 N 
ATOM      5  C   UNL     1      -4.734  14.014  20.550  0.00  0.00    +0.000 C 
ATOM      6  C   UNL     1      -3.656  12.182  19.228  0.00  0.00    +0.000 C 
ATOM      7  C   UNL     1      -5.060  11.709  18.866  0.00  0.00    +0.000 C 
ATOM      8  C   UNL     1      -2.562  11.597  18.669  0.00  0.00    +0.000 C 
ATOM      9  C   UNL     1      -1.153  12.034  19.056  0.00  0.00    +0.000 C 
ENDROOT
BRANCH   9  10
ATOM     10  C   UNL     1      -0.192  10.846  19.221  0.00  0.00    +0.000 A 
ATOM     11  C   UNL     1      -0.338   9.986  20.328  0.00  0.00    +0.000 A 
ATOM     12  C   UNL     1       0.475   8.860  20.468  0.00  0.00    +0.000 A 
ATOM     13  C   UNL     1       1.446   8.596  19.507  0.00  0.00    +0.000 A 
ATOM     14 CL   UNL     1       2.442   7.202  19.665  0.00  0.00    +0.000 Cl
ATOM     15  C   UNL     1       1.618   9.446  18.416  0.00  0.00    +0.000 A 
ATOM     16  C   UNL     1       0.800  10.570  18.269  0.00  0.00    +0.000 A 
ENDBRANCH   9  10
BRANCH   1  17
ATOM     17  C   UNL     1       0.183  13.158  20.952  0.00  0.00    +0.000 C 
ATOM     18  O   UNL     1       0.511  12.662  22.018  0.00  0.00    +0.000 OA
BRANCH  17  19
ATOM     19  O   UNL     1       0.972  13.950  20.181  0.00  0.00    +0.000 OA
BRANCH  19  21
ATOM     20  C   UNL     1       2.721  13.597  18.600  0.00  0.00    +0.000 C 
ATOM     21  C   UNL     1       2.340  13.530  20.062  0.00  0.00    +0.000 C 
ENDBRANCH  19  21
ENDBRANCH  17  19
ENDBRANCH   1  17
BRANCH   8  22
ATOM     22  C   UNL     1      -2.730  10.497  17.670  0.00  0.00    +0.000 C 
ATOM     23  O   UNL     1      -3.115   9.368  17.944  0.00  0.00    +0.000 OA
BRANCH  22  24
ATOM     24  O   UNL     1      -2.402  10.897  16.415  0.00  0.00    +0.000 OA
BRANCH  24  25
ATOM     25  C   UNL     1      -3.469  10.807  15.454  0.00  0.00    +0.000 C 
ATOM     26  C   UNL     1      -3.067  10.024  14.212  0.00  0.00    +0.000 C 
ENDBRANCH  24  25
ENDBRANCH  22  24
ENDBRANCH   8  22
TORSDOF 7
ENDMDL
MODEL 2
REMARK VINA RESULT:      -5.3      0.432      1.043
REMARK  Name = 
REMARK  12 active torsions:
REMARK  status: ('A' for Active; 'I' for Inactive)
REMARK    1  A    between atoms: C_1  and  C_2
REMARK    2  A    between atoms: C_2  and  O_3
REMARK    3  A    between atoms: O_3  and  C_4
REMARK    4  A    between atoms: C_4  and  C_6
REMARK    5  A    between atoms: C_7  and  C_8
REMARK    6  A    between atoms: N_9  and  C_10
REMARK    7  A    between atoms: C_11  and  C_12
REMARK    8  A    between atoms: C_13  and  C_14
REMARK    9  A    between atoms: C_14  and  O_16
REMARK   10  A    between atoms: O_16  and  C_17
REMARK   11  A    between atoms: C_17  and  C_18
REMARK   12  A    between atoms: C_19  and  C_20
REMARK                            x       y       z     vdW  Elec       q    Type
REMARK                         _______ _______ _______ _____ _____    ______ ____
ROOT
ATOM      1  C   UNL     1      -1.467  12.905  20.439  0.00  0.00    +0.000 C 
ATOM      2  C   UNL     1      -2.605  13.465  20.925  0.00  0.00    +0.000 C 
ATOM      3  C   UNL     1      -2.628  14.340  22.170  0.00  0.00    +0.000 C 
ATOM      4  N   UNL     1      -3.855  13.238  20.281  0.00  0.00    +0.000 N 
ATOM      5  C   UNL     1      -5.056  14.016  20.662  0.00  0.00    +0.000 C 
ATOM      6  C   UNL     1      -3.976  12.218  19.296  0.00  0.00    +0.000 C 
ATOM      7  C   UNL     1      -5.377  11.782  18.885  0.00  0.00    +0.000 C 
ATOM      8  C   UNL     1      -2.878  11.637  18.740  0.00  0.00    +0.000 C 
ATOM      9  C   UNL     1      -1.472  12.036  19.175  0.00  0.00    +0.000 C 
ENDROOT
BRANCH   9  10
ATOM     10  C   UNL     1      -0.533  10.828  19.316  0.00  0.00    +0.000 A 
ATOM     11  C   UNL     1       0.443  10.591  18.327  0.00  0.00    +0.000 A 
ATOM     12  C   UNL     1       1.355   9.543  18.462  0.00  0.00    +0.000 A 
ATOM     13  C   UNL     1       1.287   8.720  19.582  0.00  0.00    +0.000 A 
ATOM     14 CL   UNL     1       2.418   7.436  19.763  0.00  0.00    +0.000 Cl
ATOM     15  C   UNL     1       0.317   8.928  20.561  0.00  0.00    +0.000 A 
ATOM     16  C   UNL     1      -0.592   9.981  20.432  0.00  0.00    +0.000 A 
ENDBRANCH   9  10
BRANCH   1  17
ATOM     17  C   UNL     1      -0.163  13.067  21.142  0.00  0.00    +0.000 C 
ATOM     18  O   UNL     1       0.139  12.513  22.188  0.00  0.00    +0.000 OA
BRANCH  17  19
ATOM     19  O   UNL     1       0.647  13.891  20.430  0.00  0.00    +0.000 OA
BRANCH  19  21
ATOM     20  C   UNL     1       2.555  13.328  19.114  0.00  0.00    +0.000 C 
ATOM     21  C   UNL     1       2.051  13.600  20.514  0.00  0.00    +0.000 C 
ENDBRANCH  19  21
ENDBRANCH  17  19
ENDBRANCH   1  17
BRANCH   8  22
ATOM     22  C   UNL     1      -3.039  10.578  17.697  0.00  0.00    +0.000 C 
ATOM     23  O   UNL     1      -3.278   9.401  17.937  0.00  0.00    +0.000 OA
BRANCH  22  24
ATOM     24  O   UNL     1      -2.889  11.075  16.442  0.00  0.00    +0.000 OA
BRANCH  24  25
ATOM     25  C   UNL     1      -2.644  10.086  15.426  0.00  0.00    +0.000 C 
ATOM     26  C   UNL     1      -3.677  10.135  14.308  0.00  0.00    +0.000 C 
ENDBRANCH  24  25
ENDBRANCH  22  24
ENDBRANCH   8  22
TORSDOF 7
ENDMDL
MODEL 3
REMARK VINA RESULT:      -5.3      3.612      6.026
REMARK  Name = 
REMARK  12 active torsions:
REMARK  status: ('A' for Active; 'I' for Inactive)
REMARK    1  A    between atoms: C_1  and  C_2
REMARK    2  A    between atoms: C_2  and  O_3
REMARK    3  A    between atoms: O_3  and  C_4
REMARK    4  A    between atoms: C_4  and  C_6
REMARK    5  A    between atoms: C_7  and  C_8
REMARK    6  A    between atoms: N_9  and  C_10
REMARK    7  A    between atoms: C_11  and  C_12
REMARK    8  A    between atoms: C_13  and  C_14
REMARK    9  A    between atoms: C_14  and  O_16
REMARK   10  A    between atoms: O_16  and  C_17
REMARK   11  A    between atoms: C_17  and  C_18
REMARK   12  A    between atoms: C_19  and  C_20
REMARK                            x       y       z     vdW  Elec       q    Type
REMARK                         _______ _______ _______ _____ _____    ______ ____
ROOT
ATOM      1  C   UNL     1      -1.733  12.155  21.253  0.00  0.00    +0.000 C 
ATOM      2  C   UNL     1      -1.659  11.771  19.953  0.00  0.00    +0.000 C 
ATOM      3  C   UNL     1      -0.345  11.419  19.270  0.00  0.00    +0.000 C 
ATOM      4  N   UNL     1      -2.835  11.693  19.154  0.00  0.00    +0.000 N 
ATOM      5  C   UNL     1      -2.800  11.065  17.813  0.00  0.00    +0.000 C 
ATOM      6  C   UNL     1      -4.052  12.269  19.615  0.00  0.00    +0.000 C 
ATOM      7  C   UNL     1      -5.179  12.467  18.608  0.00  0.00    +0.000 C 
ATOM      8  C   UNL     1      -4.208  12.647  20.914  0.00  0.00    +0.000 C 
ATOM      9  C   UNL     1      -3.073  12.493  21.920  0.00  0.00    +0.000 C 
ENDROOT
BRANCH   9  10
ATOM     10  C   UNL     1      -2.948  13.704  22.858  0.00  0.00    +0.000 A 
ATOM     11  C   UNL     1      -2.592  14.959  22.324  0.00  0.00    +0.000 A 
ATOM     12  C   UNL     1      -2.538  16.091  23.139  0.00  0.00    +0.000 A 
ATOM     13  C   UNL     1      -2.828  15.969  24.495  0.00  0.00    +0.000 A 
ATOM     14 CL   UNL     1      -2.779  17.363  25.502  0.00  0.00    +0.000 Cl
ATOM     15  C   UNL     1      -3.163  14.733  25.043  0.00  0.00    +0.000 A 
ATOM     16  C   UNL     1      -3.226  13.599  24.228  0.00  0.00    +0.000 A 
ENDBRANCH   9  10
BRANCH   1  17
ATOM     17  C   UNL     1      -0.506  12.317  22.084  0.00  0.00    +0.000 C 
ATOM     18  O   UNL     1       0.390  13.114  21.856  0.00  0.00    +0.000 OA
BRANCH  17  19
ATOM     19  O   UNL     1      -0.552  11.474  23.147  0.00  0.00    +0.000 OA
BRANCH  19  21
ATOM     20  C   UNL     1       0.648   9.551  22.407  0.00  0.00    +0.000 C 
ATOM     21  C   UNL     1      -0.705  10.083  22.825  0.00  0.00    +0.000 C 
ENDBRANCH  19  21
ENDBRANCH  17  19
ENDBRANCH   1  17
BRANCH   8  22
ATOM     22  C   UNL     1      -5.505  13.237  21.370  0.00  0.00    +0.000 C 
ATOM     23  O   UNL     1      -5.851  14.391  21.159  0.00  0.00    +0.000 OA
BRANCH  22  24
ATOM     24  O   UNL     1      -6.259  12.337  22.052  0.00  0.00    +0.000 OA
BRANCH  24  25
ATOM     25  C   UNL     1      -7.556  12.082  21.484  0.00  0.00    +0.000 C 
ATOM     26  C   UNL     1      -7.610  10.757  20.735  0.00  0.00    +0.000 C 
ENDBRANCH  24  25
ENDBRANCH  22  24
ENDBRANCH   8  22
TORSDOF 7
ENDMDL
MODEL 4
REMARK VINA RESULT:      -5.2      2.918      5.206
REMARK  Name = 
REMARK  12 active torsions:
REMARK  status: ('A' for Active; 'I' for Inactive)
REMARK    1  A    between atoms: C_1  and  C_2
REMARK    2  A    between atoms: C_2  and  O_3
REMARK    3  A    between atoms: O_3  and  C_4
REMARK    4  A    between atoms: C_4  and  C_6
REMARK    5  A    between atoms: C_7  and  C_8
REMARK    6  A    between atoms: N_9  and  C_10
REMARK    7  A    between atoms: C_11  and  C_12
REMARK    8  A    between atoms: C_13  and  C_14
REMARK    9  A    between atoms: C_14  and  O_16
REMARK   10  A    between atoms: O_16  and  C_17
REMARK   11  A    between atoms: C_17  and  C_18
REMARK   12  A    between atoms: C_19  and  C_20
REMARK                            x       y       z     vdW  Elec       q    Type
REMARK                         _______ _______ _______ _____ _____    ______ ____
ROOT
ATOM      1  C   UNL     1      -0.874  13.419  22.600  0.00  0.00    +0.000 C 
ATOM      2  C   UNL     1      -1.050  14.543  23.342  0.00  0.00    +0.000 C 
ATOM      3  C   UNL     1      -1.774  14.543  24.681  0.00  0.00    +0.000 C 
ATOM      4  N   UNL     1      -0.563  15.799  22.879  0.00  0.00    +0.000 N 
ATOM      5  C   UNL     1      -0.548  16.981  23.771  0.00  0.00    +0.000 C 
ATOM      6  C   UNL     1      -0.135  15.945  21.530  0.00  0.00    +0.000 C 
ATOM      7  C   UNL     1       0.050  17.357  20.986  0.00  0.00    +0.000 C 
ATOM      8  C   UNL     1       0.094  14.862  20.738  0.00  0.00    +0.000 C 
ATOM      9  C   UNL     1      -0.129  13.446  21.259  0.00  0.00    +0.000 C 
ENDROOT
BRANCH   9  10
ATOM     10  C   UNL     1      -0.802  12.535  20.221  0.00  0.00    +0.000 A 
ATOM     11  C   UNL     1      -0.083  11.445  19.688  0.00  0.00    +0.000 A 
ATOM     12  C   UNL     1      -0.690  10.560  18.796  0.00  0.00    +0.000 A 
ATOM     13  C   UNL     1      -2.014  10.767  18.423  0.00  0.00    +0.000 A 
ATOM     14 CL   UNL     1      -2.773   9.670  17.336  0.00  0.00    +0.000 Cl
ATOM     15  C   UNL     1      -2.734  11.850  18.925  0.00  0.00    +0.000 A 
ATOM     16  C   UNL     1      -2.132  12.733  19.825  0.00  0.00    +0.000 A 
ENDBRANCH   9  10
BRANCH   1  17
ATOM     17  C   UNL     1      -1.442  12.110  23.030  0.00  0.00    +0.000 C 
ATOM     18  O   UNL     1      -2.633  11.847  23.070  0.00  0.00    +0.000 OA
BRANCH  17  19
ATOM     19  O   UNL     1      -0.439  11.248  23.335  0.00  0.00    +0.000 OA
BRANCH  19  21
ATOM     20  C   UNL     1       0.622   9.256  22.565  0.00  0.00    +0.000 C 
ATOM     21  C   UNL     1      -0.686   9.872  23.007  0.00  0.00    +0.000 C 
ENDBRANCH  19  21
ENDBRANCH  17  19
ENDBRANCH   1  17
BRANCH   8  22
ATOM     22  C   UNL     1       0.557  15.050  19.329  0.00  0.00    +0.000 C 
ATOM     23  O   UNL     1      -0.183  15.283  18.383  0.00  0.00    +0.000 OA
BRANCH  22  24
ATOM     24  O   UNL     1       1.906  14.930  19.218  0.00  0.00    +0.000 OA
BRANCH  24  25
ATOM     25  C   UNL     1       2.557  16.028  18.555  0.00  0.00    +0.000 C 
ATOM     26  C   UNL     1       3.505  15.563  17.458  0.00  0.00    +0.000 C 
ENDBRANCH  24  25
ENDBRANCH  22  24
ENDBRANCH   8  22
TORSDOF 7
ENDMDL
MODEL 5
REMARK VINA RESULT:      -5.2      2.869      5.096
REMARK  Name = 
REMARK  12 active torsions:
REMARK  status: ('A' for Active; 'I' for Inactive)
REMARK    1  A    between atoms: C_1  and  C_2
REMARK    2  A    between atoms: C_2  and  O_3
REMARK    3  A    between atoms: O_3  and  C_4
REMARK    4  A    between atoms: C_4  and  C_6
REMARK    5  A    between atoms: C_7  and  C_8
REMARK    6  A    between atoms: N_9  and  C_10
REMARK    7  A    between atoms: C_11  and  C_12
REMARK    8  A    between atoms: C_13  and  C_14
REMARK    9  A    between atoms: C_14  and  O_16
REMARK   10  A    between atoms: O_16  and  C_17
REMARK   11  A    between atoms: C_17  and  C_18
REMARK   12  A    between atoms: C_19  and  C_20
REMARK                            x       y       z     vdW  Elec       q    Type
REMARK                         _______ _______ _______ _____ _____    ______ ____
ROOT
ATOM      1  C   UNL     1      -0.825  13.305  22.476  0.00  0.00    +0.000 C 
ATOM      2  C   UNL     1      -0.952  14.467  23.168  0.00  0.00    +0.000 C 
ATOM      3  C   UNL     1      -1.634  14.548  24.527  0.00  0.00    +0.000 C 
ATOM      4  N   UNL     1      -0.452  15.687  22.631  0.00  0.00    +0.000 N 
ATOM      5  C   UNL     1      -0.382  16.909  23.463  0.00  0.00    +0.000 C 
ATOM      6  C   UNL     1      -0.062  15.758  21.264  0.00  0.00    +0.000 C 
ATOM      7  C   UNL     1       0.138  17.138  20.647  0.00  0.00    +0.000 C 
ATOM      8  C   UNL     1       0.117  14.633  20.519  0.00  0.00    +0.000 C 
ATOM      9  C   UNL     1      -0.122  13.250  21.114  0.00  0.00    +0.000 C 
ENDROOT
BRANCH   9  10
ATOM     10  C   UNL     1      -0.847  12.306  20.142  0.00  0.00    +0.000 A 
ATOM     11  C   UNL     1      -2.174  12.592  19.761  0.00  0.00    +0.000 A 
ATOM     12  C   UNL     1      -2.834  11.793  18.826  0.00  0.00    +0.000 A 
ATOM     13  C   UNL     1      -2.175  10.697  18.278  0.00  0.00    +0.000 A 
ATOM     14 CL   UNL     1      -2.978   9.717  17.114  0.00  0.00    +0.000 Cl
ATOM     15  C   UNL     1      -0.870  10.389  18.657  0.00  0.00    +0.000 A 
ATOM     16  C   UNL     1      -0.203  11.192  19.586  0.00  0.00    +0.000 A 
ENDBRANCH   9  10
BRANCH   1  17
ATOM     17  C   UNL     1      -1.409  12.031  22.987  0.00  0.00    +0.000 C 
ATOM     18  O   UNL     1      -2.602  11.777  23.020  0.00  0.00    +0.000 OA
BRANCH  17  19
ATOM     19  O   UNL     1      -0.417  11.189  23.373  0.00  0.00    +0.000 OA
BRANCH  19  21
ATOM     20  C   UNL     1       0.658   9.259  22.477  0.00  0.00    +0.000 C 
ATOM     21  C   UNL     1      -0.627   9.804  23.059  0.00  0.00    +0.000 C 
ENDBRANCH  19  21
ENDBRANCH  17  19
ENDBRANCH   1  17
BRANCH   8  22
ATOM     22  C   UNL     1       0.541  14.742  19.089  0.00  0.00    +0.000 C 
ATOM     23  O   UNL     1      -0.190  15.105  18.177  0.00  0.00    +0.000 OA
BRANCH  22  24
ATOM     24  O   UNL     1       1.841  14.389  18.917  0.00  0.00    +0.000 OA
BRANCH  24  25
ATOM     25  C   UNL     1       2.659  15.389  18.283  0.00  0.00    +0.000 C 
ATOM     26  C   UNL     1       4.083  14.905  18.041  0.00  0.00    +0.000 C 
ENDBRANCH  24  25
ENDBRANCH  22  24
ENDBRANCH   8  22
TORSDOF 7
ENDMDL
MODEL 6
REMARK VINA RESULT:      -5.2      3.117      6.096
REMARK  Name = 
REMARK  12 active torsions:
REMARK  status: ('A' for Active; 'I' for Inactive)
REMARK    1  A    between atoms: C_1  and  C_2
REMARK    2  A    between atoms: C_2  and  O_3
REMARK    3  A    between atoms: O_3  and  C_4
REMARK    4  A    between atoms: C_4  and  C_6
REMARK    5  A    between atoms: C_7  and  C_8
REMARK    6  A    between atoms: N_9  and  C_10
REMARK    7  A    between atoms: C_11  and  C_12
REMARK    8  A    between atoms: C_13  and  C_14
REMARK    9  A    between atoms: C_14  and  O_16
REMARK   10  A    between atoms: O_16  and  C_17
REMARK   11  A    between atoms: C_17  and  C_18
REMARK   12  A    between atoms: C_19  and  C_20
REMARK                            x       y       z     vdW  Elec       q    Type
REMARK                         _______ _______ _______ _____ _____    ______ ____
ROOT
ATOM      1  C   UNL     1      -0.283  11.875  19.256  0.00  0.00    +0.000 C 
ATOM      2  C   UNL     1       0.998  11.948  18.811  0.00  0.00    +0.000 C 
ATOM      3  C   UNL     1       1.788  10.726  18.367  0.00  0.00    +0.000 C 
ATOM      4  N   UNL     1       1.673  13.201  18.753  0.00  0.00    +0.000 N 
ATOM      5  C   UNL     1       2.978  13.327  18.065  0.00  0.00    +0.000 C 
ATOM      6  C   UNL     1       1.123  14.339  19.406  0.00  0.00    +0.000 C 
ATOM      7  C   UNL     1       2.023  15.552  19.612  0.00  0.00    +0.000 C 
ATOM      8  C   UNL     1      -0.164  14.349  19.848  0.00  0.00    +0.000 C 
ATOM      9  C   UNL     1      -1.061  13.126  19.686  0.00  0.00    +0.000 C 
ENDROOT
BRANCH   9  10
ATOM     10  C   UNL     1      -1.921  12.856  20.930  0.00  0.00    +0.000 A 
ATOM     11  C   UNL     1      -1.293  12.534  22.150  0.00  0.00    +0.000 A 
ATOM     12  C   UNL     1      -2.044  12.351  23.313  0.00  0.00    +0.000 A 
ATOM     13  C   UNL     1      -3.428  12.479  23.257  0.00  0.00    +0.000 A 
ATOM     14 CL   UNL     1      -4.358  12.271  24.690  0.00  0.00    +0.000 Cl
ATOM     15  C   UNL     1      -4.068  12.778  22.056  0.00  0.00    +0.000 A 
ATOM     16  C   UNL     1      -3.318  12.970  20.892  0.00  0.00    +0.000 A 
ENDBRANCH   9  10
BRANCH   1  17
ATOM     17  C   UNL     1      -0.981  10.565  19.397  0.00  0.00    +0.000 C 
ATOM     18  O   UNL     1      -0.696   9.708  20.219  0.00  0.00    +0.000 OA
BRANCH  17  19
ATOM     19  O   UNL     1      -1.998  10.484  18.502  0.00  0.00    +0.000 OA
BRANCH  19  21
ATOM     20  C   UNL     1      -2.805  10.138  16.285  0.00  0.00    +0.000 C 
ATOM     21  C   UNL     1      -1.669   9.870  17.246  0.00  0.00    +0.000 C 
ENDBRANCH  19  21
ENDBRANCH  17  19
ENDBRANCH   1  17
BRANCH   8  22
ATOM     22  C   UNL     1      -0.716  15.566  20.519  0.00  0.00    +0.000 C 
ATOM     23  O   UNL     1      -0.422  15.925  21.651  0.00  0.00    +0.000 OA
BRANCH  22  24
ATOM     24  O   UNL     1      -1.589  16.233  19.720  0.00  0.00    +0.000 OA
BRANCH  24  25
ATOM     25  C   UNL     1      -1.134  17.522  19.272  0.00  0.00    +0.000 C 
ATOM     26  C   UNL     1      -0.642  17.494  17.831  0.00  0.00    +0.000 C 
ENDBRANCH  24  25
ENDBRANCH  22  24
ENDBRANCH   8  22
TORSDOF 7
ENDMDL
MODEL 7
REMARK VINA RESULT:      -5.2      1.178      1.425
REMARK  Name = 
REMARK  12 active torsions:
REMARK  status: ('A' for Active; 'I' for Inactive)
REMARK    1  A    between atoms: C_1  and  C_2
REMARK    2  A    between atoms: C_2  and  O_3
REMARK    3  A    between atoms: O_3  and  C_4
REMARK    4  A    between atoms: C_4  and  C_6
REMARK    5  A    between atoms: C_7  and  C_8
REMARK    6  A    between atoms: N_9  and  C_10
REMARK    7  A    between atoms: C_11  and  C_12
REMARK    8  A    between atoms: C_13  and  C_14
REMARK    9  A    between atoms: C_14  and  O_16
REMARK   10  A    between atoms: O_16  and  C_17
REMARK   11  A    between atoms: C_17  and  C_18
REMARK   12  A    between atoms: C_19  and  C_20
REMARK                            x       y       z     vdW  Elec       q    Type
REMARK                         _______ _______ _______ _____ _____    ______ ____
ROOT
ATOM      1  C   UNL     1       0.416  13.045  19.954  0.00  0.00    +0.000 C 
ATOM      2  C   UNL     1      -0.444  13.851  20.628  0.00  0.00    +0.000 C 
ATOM      3  C   UNL     1       0.014  14.852  21.679  0.00  0.00    +0.000 C 
ATOM      4  N   UNL     1      -1.845  13.780  20.381  0.00  0.00    +0.000 N 
ATOM      5  C   UNL     1      -2.765  14.798  20.938  0.00  0.00    +0.000 C 
ATOM      6  C   UNL     1      -2.385  12.693  19.638  0.00  0.00    +0.000 C 
ATOM      7  C   UNL     1      -3.892  12.469  19.688  0.00  0.00    +0.000 C 
ATOM      8  C   UNL     1      -1.585  11.865  18.912  0.00  0.00    +0.000 C 
ATOM      9  C   UNL     1      -0.072  12.053  18.891  0.00  0.00    +0.000 C 
ENDROOT
BRANCH   9  10
ATOM     10  C   UNL     1       0.690  10.720  18.969  0.00  0.00    +0.000 A 
ATOM     11  C   UNL     1       0.604   9.943  20.141  0.00  0.00    +0.000 A 
ATOM     12  C   UNL     1       1.228   8.696  20.217  0.00  0.00    +0.000 A 
ATOM     13  C   UNL     1       1.950   8.228  19.124  0.00  0.00    +0.000 A 
ATOM     14 CL   UNL     1       2.709   6.685  19.204  0.00  0.00    +0.000 Cl
ATOM     15  C   UNL     1       2.060   8.991  17.963  0.00  0.00    +0.000 A 
ATOM     16  C   UNL     1       1.430  10.236  17.882  0.00  0.00    +0.000 A 
ENDBRANCH   9  10
BRANCH   1  17
ATOM     17  C   UNL     1       1.877  13.050  20.252  0.00  0.00    +0.000 C 
ATOM     18  O   UNL     1       2.371  12.732  21.322  0.00  0.00    +0.000 OA
BRANCH  17  19
ATOM     19  O   UNL     1       2.573  13.425  19.148  0.00  0.00    +0.000 OA
BRANCH  19  21
ATOM     20  C   UNL     1       3.413  15.173  17.761  0.00  0.00    +0.000 C 
ATOM     21  C   UNL     1       3.116  14.755  19.183  0.00  0.00    +0.000 C 
ENDBRANCH  19  21
ENDBRANCH  17  19
ENDBRANCH   1  17
BRANCH   8  22
ATOM     22  C   UNL     1      -2.185  10.740  18.131  0.00  0.00    +0.000 C 
ATOM     23  O   UNL     1      -2.409   9.625  18.584  0.00  0.00    +0.000 OA
BRANCH  22  24
ATOM     24  O   UNL     1      -2.456  11.100  16.850  0.00  0.00    +0.000 OA
BRANCH  24  25
ATOM     25  C   UNL     1      -2.472  10.013  15.907  0.00  0.00    +0.000 C 
ATOM     26  C   UNL     1      -3.332  10.315  14.688  0.00  0.00    +0.000 C 
ENDBRANCH  24  25
ENDBRANCH  22  24
ENDBRANCH   8  22
TORSDOF 7
ENDMDL
MODEL 8
REMARK VINA RESULT:      -5.1      3.277      5.611
REMARK  Name = 
REMARK  12 active torsions:
REMARK  status: ('A' for Active; 'I' for Inactive)
REMARK    1  A    between atoms: C_1  and  C_2
REMARK    2  A    between atoms: C_2  and  O_3
REMARK    3  A    between atoms: O_3  and  C_4
REMARK    4  A    between atoms: C_4  and  C_6
REMARK    5  A    between atoms: C_7  and  C_8
REMARK    6  A    between atoms: N_9  and  C_10
REMARK    7  A    between atoms: C_11  and  C_12
REMARK    8  A    between atoms: C_13  and  C_14
REMARK    9  A    between atoms: C_14  and  O_16
REMARK   10  A    between atoms: O_16  and  C_17
REMARK   11  A    between atoms: C_17  and  C_18
REMARK   12  A    between atoms: C_19  and  C_20
REMARK                            x       y       z     vdW  Elec       q    Type
REMARK                         _______ _______ _______ _____ _____    ______ ____
ROOT
ATOM      1  C   UNL     1      -1.570  11.515  22.053  0.00  0.00    +0.000 C 
ATOM      2  C   UNL     1      -0.707  10.467  22.107  0.00  0.00    +0.000 C 
ATOM      3  C   UNL     1      -0.187   9.892  23.417  0.00  0.00    +0.000 C 
ATOM      4  N   UNL     1      -0.233   9.859  20.909  0.00  0.00    +0.000 N 
ATOM      5  C   UNL     1       0.523   8.586  20.954  0.00  0.00    +0.000 C 
ATOM      6  C   UNL     1      -0.434  10.500  19.655  0.00  0.00    +0.000 C 
ATOM      7  C   UNL     1       0.371  10.003  18.459  0.00  0.00    +0.000 C 
ATOM      8  C   UNL     1      -1.309  11.534  19.520  0.00  0.00    +0.000 C 
ATOM      9  C   UNL     1      -2.087  12.066  20.719  0.00  0.00    +0.000 C 
ENDROOT
BRANCH   9  10
ATOM     10  C   UNL     1      -2.168  13.601  20.735  0.00  0.00    +0.000 A 
ATOM     11  C   UNL     1      -3.429  14.226  20.806  0.00  0.00    +0.000 A 
ATOM     12  C   UNL     1      -3.532  15.616  20.893  0.00  0.00    +0.000 A 
ATOM     13  C   UNL     1      -2.373  16.386  20.896  0.00  0.00    +0.000 A 
ATOM     14 CL   UNL     1      -2.492  18.099  21.018  0.00  0.00    +0.000 Cl
ATOM     15  C   UNL     1      -1.118  15.786  20.807  0.00  0.00    +0.000 A 
ATOM     16  C   UNL     1      -1.012  14.395  20.729  0.00  0.00    +0.000 A 
ENDBRANCH   9  10
BRANCH   1  17
ATOM     17  C   UNL     1      -2.017  12.213  23.292  0.00  0.00    +0.000 C 
ATOM     18  O   UNL     1      -1.382  13.080  23.871  0.00  0.00    +0.000 OA
BRANCH  17  19
ATOM     19  O   UNL     1      -3.247  11.768  23.655  0.00  0.00    +0.000 OA
BRANCH  19  21
ATOM     20  C   UNL     1      -5.322  12.938  23.771  0.00  0.00    +0.000 C 
ATOM     21  C   UNL     1      -4.011  12.666  24.475  0.00  0.00    +0.000 C 
ENDBRANCH  19  21
ENDBRANCH  17  19
ENDBRANCH   1  17
BRANCH   8  22
ATOM     22  C   UNL     1      -1.508  12.177  18.185  0.00  0.00    +0.000 C 
ATOM     23  O   UNL     1      -0.713  12.947  17.663  0.00  0.00    +0.000 OA
BRANCH  22  24
ATOM     24  O   UNL     1      -2.682  11.805  17.613  0.00  0.00    +0.000 OA
BRANCH  24  25
ATOM     25  C   UNL     1      -2.553  11.150  16.339  0.00  0.00    +0.000 C 
ATOM     26  C   UNL     1      -2.900   9.669  16.410  0.00  0.00    +0.000 C 
ENDBRANCH  24  25
ENDBRANCH  22  24
ENDBRANCH   8  22
TORSDOF 7
ENDMDL
MODEL 9
REMARK VINA RESULT:      -5.1      3.725      6.329
REMARK  Name = 
REMARK  12 active torsions:
REMARK  status: ('A' for Active; 'I' for Inactive)
REMARK    1  A    between atoms: C_1  and  C_2
REMARK    2  A    between atoms: C_2  and  O_3
REMARK    3  A    between atoms: O_3  and  C_4
REMARK    4  A    between atoms: C_4  and  C_6
REMARK    5  A    between atoms: C_7  and  C_8
REMARK    6  A    between atoms: N_9  and  C_10
REMARK    7  A    between atoms: C_11  and  C_12
REMARK    8  A    between atoms: C_13  and  C_14
REMARK    9  A    between atoms: C_14  and  O_16
REMARK   10  A    between atoms: O_16  and  C_17
REMARK   11  A    between atoms: C_17  and  C_18
REMARK   12  A    between atoms: C_19  and  C_20
REMARK                            x       y       z     vdW  Elec       q    Type
REMARK                         _______ _______ _______ _____ _____    ______ ____
ROOT
ATOM      1  C   UNL     1      -2.346  12.544  20.754  0.00  0.00    +0.000 C 
ATOM      2  C   UNL     1      -2.334  12.160  19.451  0.00  0.00    +0.000 C 
ATOM      3  C   UNL     1      -1.053  12.027  18.640  0.00  0.00    +0.000 C 
ATOM      4  N   UNL     1      -3.553  11.874  18.771  0.00  0.00    +0.000 N 
ATOM      5  C   UNL     1      -3.543  11.243  17.431  0.00  0.00    +0.000 C 
ATOM      6  C   UNL     1      -4.798  12.243  19.352  0.00  0.00    +0.000 C 
ATOM      7  C   UNL     1      -6.035  12.234  18.461  0.00  0.00    +0.000 C 
ATOM      8  C   UNL     1      -4.889  12.605  20.661  0.00  0.00    +0.000 C 
ATOM      9  C   UNL     1      -3.652  12.659  21.550  0.00  0.00    +0.000 C 
ENDROOT
BRANCH   9  10
ATOM     10  C   UNL     1      -3.643  13.886  22.476  0.00  0.00    +0.000 A 
ATOM     11  C   UNL     1      -3.627  13.698  23.873  0.00  0.00    +0.000 A 
ATOM     12  C   UNL     1      -3.548  14.791  24.738  0.00  0.00    +0.000 A 
ATOM     13  C   UNL     1      -3.498  16.076  24.209  0.00  0.00    +0.000 A 
ATOM     14 CL   UNL     1      -3.386  17.427  25.269  0.00  0.00    +0.000 Cl
ATOM     15  C   UNL     1      -3.532  16.282  22.831  0.00  0.00    +0.000 A 
ATOM     16  C   UNL     1      -3.602  15.189  21.962  0.00  0.00    +0.000 A 
ENDBRANCH   9  10
BRANCH   1  17
ATOM     17  C   UNL     1      -1.088  12.922  21.460  0.00  0.00    +0.000 C 
ATOM     18  O   UNL     1      -0.409  13.902  21.198  0.00  0.00    +0.000 OA
BRANCH  17  19
ATOM     19  O   UNL     1      -0.834  12.037  22.458  0.00  0.00    +0.000 OA
BRANCH  19  21
ATOM     20  C   UNL     1      -0.418   9.788  23.132  0.00  0.00    +0.000 C 
ATOM     21  C   UNL     1      -0.183  10.822  22.054  0.00  0.00    +0.000 C 
ENDBRANCH  19  21
ENDBRANCH  17  19
ENDBRANCH   1  17
BRANCH   8  22
ATOM     22  C   UNL     1      -6.216  12.973  21.245  0.00  0.00    +0.000 C 
ATOM     23  O   UNL     1      -6.805  14.021  21.016  0.00  0.00    +0.000 OA
BRANCH  22  24
ATOM     24  O   UNL     1      -6.696  12.004  22.065  0.00  0.00    +0.000 OA
BRANCH  24  25
ATOM     25  C   UNL     1      -7.769  12.419  22.929  0.00  0.00    +0.000 C 
ATOM     26  C   UNL     1      -7.265  13.083  24.203  0.00  0.00    +0.000 C 
ENDBRANCH  24  25
ENDBRANCH  22  24
ENDBRANCH   8  22
TORSDOF 7
ENDMDL
