MODEL 1
REMARK VINA RESULT:      -8.6      0.000      0.000
REMARK  Name = 
REMARK  7 active torsions:
REMARK  status: ('A' for Active; 'I' for Inactive)
REMARK    1  A    between atoms: C_2  and  C_3
REMARK    2  A    between atoms: C_3  and  O_4
REMARK    3  A    between atoms: O_4  and  N_5
REMARK    4  A    between atoms: C_6  and  C_7
REMARK    5  A    between atoms: C_13  and  O_14
REMARK    6  A    between atoms: O_14  and  C_15
REMARK    7  A    between atoms: C_20  and  C_21
REMARK                            x       y       z     vdW  Elec       q    Type
REMARK                         _______ _______ _______ _____ _____    ______ ____
ROOT
ATOM      1  C   UNL     1       3.507   3.623  18.963  0.00  0.00    +0.000 A 
ATOM      2  C   UNL     1       2.923   2.390  18.687  0.00  0.00    +0.000 A 
ATOM      3  N   UNL     1       3.626   1.344  18.094  0.00  0.00    +0.000 N 
ATOM      4  N   UNL     1       1.683   2.067  19.086  0.00  0.00    +0.000 NA
ATOM      5  C   UNL     1       1.006   3.012  19.742  0.00  0.00    +0.000 A 
ATOM      6  N   UNL     1       1.458   4.226  20.056  0.00  0.00    +0.000 NA
ATOM      7  C   UNL     1       2.730   4.504  19.694  0.00  0.00    +0.000 A 
ATOM      8  H   UNL     1       4.192   1.664  17.305  0.00  0.00    +0.000 HD
ATOM      9  H   UNL     1       2.988   0.584  17.871  0.00  0.00    +0.000 HD
ENDROOT
BRANCH   1  11
ATOM     10  N   UNL     1       5.827   4.142  19.294  0.00  0.00    +0.000 NA
ATOM     11  C   UNL     1       4.844   3.967  18.466  0.00  0.00    +0.000 C 
BRANCH  10  12
ATOM     12  O   UNL     1       6.998   4.460  18.592  0.00  0.00    +0.000 OA
BRANCH  12  13
ATOM     13  C   UNL     1       7.373   5.796  18.940  0.00  0.00    +0.000 C 
BRANCH  13  15
ATOM     14  C   UNL     1       7.780   7.905  17.645  0.00  0.00    +0.000 C 
ATOM     15  C   UNL     1       7.326   6.646  17.710  0.00  0.00    +0.000 C 
ENDBRANCH  13  15
ENDBRANCH  12  13
ENDBRANCH  10  12
ENDBRANCH   1  11
BRANCH   7  16
ATOM     16  O   UNL     1       3.253   5.742  20.064  0.00  0.00    +0.000 OA
BRANCH  16  17
ATOM     17  C   UNL     1       2.736   6.863  19.430  0.00  0.00    +0.000 A 
ATOM     18  C   UNL     1       3.034   7.169  18.095  0.00  0.00    +0.000 A 
ATOM     19  C   UNL     1       2.541   8.323  17.482  0.00  0.00    +0.000 A 
ATOM     20  C   UNL     1       1.654   9.114  18.215  0.00  0.00    +0.000 A 
ATOM     21  N   UNL     1       0.993  10.262  17.846  0.00  0.00    +0.000 N 
ATOM     22  C   UNL     1       0.078  10.612  18.807  0.00  0.00    +0.000 A 
ATOM     23  C   UNL     1      -0.924  11.682  18.571  0.00  0.00    +0.000 C 
ATOM     24  C   UNL     1       0.290   9.781  19.891  0.00  0.00    +0.000 A 
ATOM     25  C   UNL     1       1.265   8.807  19.520  0.00  0.00    +0.000 A 
ATOM     26  C   UNL     1       1.835   7.672  20.140  0.00  0.00    +0.000 A 
ATOM     27  F   UNL     1       1.497   7.352  21.400  0.00  0.00    +0.000 F 
ATOM     28  H   UNL     1       1.104  10.721  16.952  0.00  0.00    +0.000 HD
ENDBRANCH  16  17
ENDBRANCH   7  16
TORSDOF 6
ENDMDL
MODEL 2
REMARK VINA RESULT:      -8.4      2.065      4.258
REMARK  Name = 
REMARK  7 active torsions:
REMARK  status: ('A' for Active; 'I' for Inactive)
REMARK    1  A    between atoms: C_2  and  C_3
REMARK    2  A    between atoms: C_3  and  O_4
REMARK    3  A    between atoms: O_4  and  N_5
REMARK    4  A    between atoms: C_6  and  C_7
REMARK    5  A    between atoms: C_13  and  O_14
REMARK    6  A    between atoms: O_14  and  C_15
REMARK    7  A    between atoms: C_20  and  C_21
REMARK                            x       y       z     vdW  Elec       q    Type
REMARK                         _______ _______ _______ _____ _____    ______ ____
ROOT
ATOM      1  C   UNL     1       5.549   5.103  17.992  0.00  0.00    +0.000 A 
ATOM      2  C   UNL     1       6.928   5.252  17.881  0.00  0.00    +0.000 A 
ATOM      3  N   UNL     1       7.816   4.205  18.115  0.00  0.00    +0.000 N 
ATOM      4  N   UNL     1       7.504   6.371  17.415  0.00  0.00    +0.000 NA
ATOM      5  C   UNL     1       6.682   7.371  17.090  0.00  0.00    +0.000 A 
ATOM      6  N   UNL     1       5.351   7.346  17.161  0.00  0.00    +0.000 NA
ATOM      7  C   UNL     1       4.795   6.186  17.577  0.00  0.00    +0.000 A 
ATOM      8  H   UNL     1       7.573   3.680  18.958  0.00  0.00    +0.000 HD
ATOM      9  H   UNL     1       8.772   4.554  18.100  0.00  0.00    +0.000 HD
ENDROOT
BRANCH   1  11
ATOM     10  N   UNL     1       5.348   3.432  19.704  0.00  0.00    +0.000 NA
ATOM     11  C   UNL     1       4.951   3.888  18.556  0.00  0.00    +0.000 C 
BRANCH  10  12
ATOM     12  O   UNL     1       4.638   2.270  20.033  0.00  0.00    +0.000 OA
BRANCH  12  13
ATOM     13  C   UNL     1       3.256   2.497  19.739  0.00  0.00    +0.000 C 
BRANCH  13  15
ATOM     14  C   UNL     1       1.275   3.111  21.150  0.00  0.00    +0.000 C 
ATOM     15  C   UNL     1       2.495   2.571  21.025  0.00  0.00    +0.000 C 
ENDBRANCH  13  15
ENDBRANCH  12  13
ENDBRANCH  10  12
ENDBRANCH   1  11
BRANCH   7  16
ATOM     16  O   UNL     1       3.403   6.108  17.601  0.00  0.00    +0.000 OA
BRANCH  16  17
ATOM     17  C   UNL     1       2.722   7.129  18.249  0.00  0.00    +0.000 A 
ATOM     18  C   UNL     1       2.266   8.268  17.573  0.00  0.00    +0.000 A 
ATOM     19  C   UNL     1       1.620   9.308  18.245  0.00  0.00    +0.000 A 
ATOM     20  C   UNL     1       1.350   9.128  19.603  0.00  0.00    +0.000 A 
ATOM     21  N   UNL     1       0.697   9.957  20.485  0.00  0.00    +0.000 N 
ATOM     22  C   UNL     1       0.491   9.312  21.678  0.00  0.00    +0.000 A 
ATOM     23  C   UNL     1      -0.380   9.891  22.732  0.00  0.00    +0.000 C 
ATOM     24  C   UNL     1       1.190   8.120  21.621  0.00  0.00    +0.000 A 
ATOM     25  C   UNL     1       1.714   7.976  20.303  0.00  0.00    +0.000 A 
ATOM     26  C   UNL     1       2.431   6.971  19.613  0.00  0.00    +0.000 A 
ATOM     27  F   UNL     1       2.811   5.855  20.255  0.00  0.00    +0.000 F 
ATOM     28  H   UNL     1       0.339  10.872  20.247  0.00  0.00    +0.000 HD
ENDBRANCH  16  17
ENDBRANCH   7  16
TORSDOF 6
ENDMDL
MODEL 3
REMARK VINA RESULT:      -8.4      1.496      1.879
REMARK  Name = 
REMARK  7 active torsions:
REMARK  status: ('A' for Active; 'I' for Inactive)
REMARK    1  A    between atoms: C_2  and  C_3
REMARK    2  A    between atoms: C_3  and  O_4
REMARK    3  A    between atoms: O_4  and  N_5
REMARK    4  A    between atoms: C_6  and  C_7
REMARK    5  A    between atoms: C_13  and  O_14
REMARK    6  A    between atoms: O_14  and  C_15
REMARK    7  A    between atoms: C_20  and  C_21
REMARK                            x       y       z     vdW  Elec       q    Type
REMARK                         _______ _______ _______ _____ _____    ______ ____
ROOT
ATOM      1  C   UNL     1       3.893   4.082  18.009  0.00  0.00    +0.000 A 
ATOM      2  C   UNL     1       3.395   2.797  18.204  0.00  0.00    +0.000 A 
ATOM      3  N   UNL     1       4.214   1.717  18.527  0.00  0.00    +0.000 N 
ATOM      4  N   UNL     1       2.082   2.520  18.225  0.00  0.00    +0.000 NA
ATOM      5  C   UNL     1       1.256   3.547  18.011  0.00  0.00    +0.000 A 
ATOM      6  N   UNL     1       1.616   4.814  17.808  0.00  0.00    +0.000 NA
ATOM      7  C   UNL     1       2.942   5.074  17.850  0.00  0.00    +0.000 A 
ATOM      8  H   UNL     1       5.062   1.697  17.956  0.00  0.00    +0.000 HD
ATOM      9  H   UNL     1       3.673   0.856  18.503  0.00  0.00    +0.000 HD
ENDROOT
BRANCH   1  11
ATOM     10  N   UNL     1       6.059   4.329  19.013  0.00  0.00    +0.000 NA
ATOM     11  C   UNL     1       5.334   4.343  17.937  0.00  0.00    +0.000 C 
BRANCH  10  12
ATOM     12  O   UNL     1       7.396   4.604  18.697  0.00  0.00    +0.000 OA
BRANCH  12  13
ATOM     13  C   UNL     1       7.413   5.604  17.674  0.00  0.00    +0.000 C 
BRANCH  13  15
ATOM     14  C   UNL     1       7.812   8.080  17.639  0.00  0.00    +0.000 C 
ATOM     15  C   UNL     1       7.858   6.901  18.273  0.00  0.00    +0.000 C 
ENDBRANCH  13  15
ENDBRANCH  12  13
ENDBRANCH  10  12
ENDBRANCH   1  11
BRANCH   7  16
ATOM     16  O   UNL     1       3.346   6.400  17.704  0.00  0.00    +0.000 OA
BRANCH  16  17
ATOM     17  C   UNL     1       2.588   7.368  18.348  0.00  0.00    +0.000 A 
ATOM     18  C   UNL     1       1.985   8.427  17.654  0.00  0.00    +0.000 A 
ATOM     19  C   UNL     1       1.261   9.418  18.320  0.00  0.00    +0.000 A 
ATOM     20  C   UNL     1       1.068   9.263  19.694  0.00  0.00    +0.000 A 
ATOM     21  N   UNL     1       0.368  10.053  20.576  0.00  0.00    +0.000 N 
ATOM     22  C   UNL     1       0.282   9.437  21.799  0.00  0.00    +0.000 A 
ATOM     23  C   UNL     1      -0.601   9.961  22.871  0.00  0.00    +0.000 C 
ATOM     24  C   UNL     1       1.101   8.324  21.751  0.00  0.00    +0.000 A 
ATOM     25  C   UNL     1       1.582   8.184  20.415  0.00  0.00    +0.000 A 
ATOM     26  C   UNL     1       2.372   7.234  19.728  0.00  0.00    +0.000 A 
ATOM     27  F   UNL     1       2.896   6.190  20.390  0.00  0.00    +0.000 F 
ATOM     28  H   UNL     1      -0.095  10.916  20.323  0.00  0.00    +0.000 HD
ENDBRANCH  16  17
ENDBRANCH   7  16
TORSDOF 6
ENDMDL
MODEL 4
REMARK VINA RESULT:      -8.4      1.088      1.200
REMARK  Name = 
REMARK  7 active torsions:
REMARK  status: ('A' for Active; 'I' for Inactive)
REMARK    1  A    between atoms: C_2  and  C_3
REMARK    2  A    between atoms: C_3  and  O_4
REMARK    3  A    between atoms: O_4  and  N_5
REMARK    4  A    between atoms: C_6  and  C_7
REMARK    5  A    between atoms: C_13  and  O_14
REMARK    6  A    between atoms: O_14  and  C_15
REMARK    7  A    between atoms: C_20  and  C_21
REMARK                            x       y       z     vdW  Elec       q    Type
REMARK                         _______ _______ _______ _____ _____    ______ ____
ROOT
ATOM      1  C   UNL     1       3.494   3.586  19.280  0.00  0.00    +0.000 A 
ATOM      2  C   UNL     1       3.087   2.362  18.757  0.00  0.00    +0.000 A 
ATOM      3  N   UNL     1       3.990   1.368  18.387  0.00  0.00    +0.000 N 
ATOM      4  N   UNL     1       1.799   1.992  18.688  0.00  0.00    +0.000 NA
ATOM      5  C   UNL     1       0.903   2.881  19.120  0.00  0.00    +0.000 A 
ATOM      6  N   UNL     1       1.172   4.082  19.632  0.00  0.00    +0.000 NA
ATOM      7  C   UNL     1       2.480   4.405  19.744  0.00  0.00    +0.000 A 
ATOM      8  H   UNL     1       4.779   1.746  17.859  0.00  0.00    +0.000 HD
ATOM      9  H   UNL     1       3.497   0.611  17.920  0.00  0.00    +0.000 HD
ENDROOT
BRANCH   1  11
ATOM     10  N   UNL     1       5.541   4.181  18.177  0.00  0.00    +0.000 NA
ATOM     11  C   UNL     1       4.905   3.985  19.291  0.00  0.00    +0.000 C 
BRANCH  10  12
ATOM     12  O   UNL     1       6.867   4.552  18.438  0.00  0.00    +0.000 OA
BRANCH  12  13
ATOM     13  C   UNL     1       7.590   4.510  17.204  0.00  0.00    +0.000 C 
BRANCH  13  15
ATOM     14  C   UNL     1       6.837   4.865  14.838  0.00  0.00    +0.000 C 
ATOM     15  C   UNL     1       6.613   4.404  16.075  0.00  0.00    +0.000 C 
ENDBRANCH  13  15
ENDBRANCH  12  13
ENDBRANCH  10  12
ENDBRANCH   1  11
BRANCH   7  16
ATOM     16  O   UNL     1       2.796   5.627  20.334  0.00  0.00    +0.000 OA
BRANCH  16  17
ATOM     17  C   UNL     1       2.445   6.776  19.640  0.00  0.00    +0.000 A 
ATOM     18  C   UNL     1       2.740   6.945  18.280  0.00  0.00    +0.000 A 
ATOM     19  C   UNL     1       2.419   8.124  17.604  0.00  0.00    +0.000 A 
ATOM     20  C   UNL     1       1.699   9.094  18.303  0.00  0.00    +0.000 A 
ATOM     21  N   UNL     1       1.220  10.310  17.875  0.00  0.00    +0.000 N 
ATOM     22  C   UNL     1       0.409  10.864  18.833  0.00  0.00    +0.000 A 
ATOM     23  C   UNL     1      -0.414  12.068  18.551  0.00  0.00    +0.000 C 
ATOM     24  C   UNL     1       0.524  10.079  19.966  0.00  0.00    +0.000 A 
ATOM     25  C   UNL     1       1.313   8.937  19.636  0.00  0.00    +0.000 A 
ATOM     26  C   UNL     1       1.714   7.765  20.317  0.00  0.00    +0.000 A 
ATOM     27  F   UNL     1       1.375   7.584  21.603  0.00  0.00    +0.000 F 
ATOM     28  H   UNL     1       1.371  10.687  16.949  0.00  0.00    +0.000 HD
ENDBRANCH  16  17
ENDBRANCH   7  16
TORSDOF 6
ENDMDL
MODEL 5
REMARK VINA RESULT:      -8.2      1.656      1.965
REMARK  Name = 
REMARK  7 active torsions:
REMARK  status: ('A' for Active; 'I' for Inactive)
REMARK    1  A    between atoms: C_2  and  C_3
REMARK    2  A    between atoms: C_3  and  O_4
REMARK    3  A    between atoms: O_4  and  N_5
REMARK    4  A    between atoms: C_6  and  C_7
REMARK    5  A    between atoms: C_13  and  O_14
REMARK    6  A    between atoms: O_14  and  C_15
REMARK    7  A    between atoms: C_20  and  C_21
REMARK                            x       y       z     vdW  Elec       q    Type
REMARK                         _______ _______ _______ _____ _____    ______ ____
ROOT
ATOM      1  C   UNL     1       4.197   3.961  18.679  0.00  0.00    +0.000 A 
ATOM      2  C   UNL     1       3.936   2.621  18.950  0.00  0.00    +0.000 A 
ATOM      3  N   UNL     1       4.864   1.785  19.566  0.00  0.00    +0.000 N 
ATOM      4  N   UNL     1       2.730   2.063  18.760  0.00  0.00    +0.000 NA
ATOM      5  C   UNL     1       1.782   2.855  18.256  0.00  0.00    +0.000 A 
ATOM      6  N   UNL     1       1.918   4.146  17.953  0.00  0.00    +0.000 NA
ATOM      7  C   UNL     1       3.125   4.698  18.209  0.00  0.00    +0.000 A 
ATOM      8  H   UNL     1       5.801   1.902  19.174  0.00  0.00    +0.000 HD
ATOM      9  H   UNL     1       4.523   0.827  19.559  0.00  0.00    +0.000 HD
ENDROOT
BRANCH   1  11
ATOM     10  N   UNL     1       5.961   4.887  20.019  0.00  0.00    +0.000 NA
ATOM     11  C   UNL     1       5.540   4.529  18.846  0.00  0.00    +0.000 C 
BRANCH  10  12
ATOM     12  O   UNL     1       7.262   5.397  19.930  0.00  0.00    +0.000 OA
BRANCH  12  13
ATOM     13  C   UNL     1       7.555   5.622  18.548  0.00  0.00    +0.000 C 
BRANCH  13  15
ATOM     14  C   UNL     1       7.464   7.914  17.532  0.00  0.00    +0.000 C 
ATOM     15  C   UNL     1       8.020   7.034  18.376  0.00  0.00    +0.000 C 
ENDBRANCH  13  15
ENDBRANCH  12  13
ENDBRANCH  10  12
ENDBRANCH   1  11
BRANCH   7  16
ATOM     16  O   UNL     1       3.279   6.061  17.963  0.00  0.00    +0.000 OA
BRANCH  16  17
ATOM     17  C   UNL     1       2.574   6.936  18.777  0.00  0.00    +0.000 A 
ATOM     18  C   UNL     1       2.276   6.635  20.113  0.00  0.00    +0.000 A 
ATOM     19  C   UNL     1       1.528   7.505  20.909  0.00  0.00    +0.000 A 
ATOM     20  C   UNL     1       1.173   8.738  20.359  0.00  0.00    +0.000 A 
ATOM     21  N   UNL     1       0.488   9.787  20.926  0.00  0.00    +0.000 N 
ATOM     22  C   UNL     1       0.517  10.878  20.095  0.00  0.00    +0.000 A 
ATOM     23  C   UNL     1       0.046  12.211  20.547  0.00  0.00    +0.000 C 
ATOM     24  C   UNL     1       1.068  10.460  18.897  0.00  0.00    +0.000 A 
ATOM     25  C   UNL     1       1.516   9.116  19.060  0.00  0.00    +0.000 A 
ATOM     26  C   UNL     1       2.210   8.186  18.252  0.00  0.00    +0.000 A 
ATOM     27  F   UNL     1       2.545   8.506  16.992  0.00  0.00    +0.000 F 
ATOM     28  H   UNL     1       0.104   9.777  21.862  0.00  0.00    +0.000 HD
ENDBRANCH  16  17
ENDBRANCH   7  16
TORSDOF 6
ENDMDL
MODEL 6
REMARK VINA RESULT:      -8.0      3.094      4.214
REMARK  Name = 
REMARK  7 active torsions:
REMARK  status: ('A' for Active; 'I' for Inactive)
REMARK    1  A    between atoms: C_2  and  C_3
REMARK    2  A    between atoms: C_3  and  O_4
REMARK    3  A    between atoms: O_4  and  N_5
REMARK    4  A    between atoms: C_6  and  C_7
REMARK    5  A    between atoms: C_13  and  O_14
REMARK    6  A    between atoms: O_14  and  C_15
REMARK    7  A    between atoms: C_20  and  C_21
REMARK                            x       y       z     vdW  Elec       q    Type
REMARK                         _______ _______ _______ _____ _____    ______ ____
ROOT
ATOM      1  C   UNL     1       5.663   4.704  17.246  0.00  0.00    +0.000 A 
ATOM      2  C   UNL     1       7.033   4.677  17.489  0.00  0.00    +0.000 A 
ATOM      3  N   UNL     1       7.967   4.419  16.488  0.00  0.00    +0.000 N 
ATOM      4  N   UNL     1       7.570   5.024  18.669  0.00  0.00    +0.000 NA
ATOM      5  C   UNL     1       6.713   5.369  19.632  0.00  0.00    +0.000 A 
ATOM      6  N   UNL     1       5.386   5.425  19.518  0.00  0.00    +0.000 NA
ATOM      7  C   UNL     1       4.876   5.128  18.302  0.00  0.00    +0.000 A 
ATOM      8  H   UNL     1       7.685   3.633  15.898  0.00  0.00    +0.000 HD
ATOM      9  H   UNL     1       8.893   4.326  16.897  0.00  0.00    +0.000 HD
ENDROOT
BRANCH   1  11
ATOM     10  N   UNL     1       5.676   4.601  14.848  0.00  0.00    +0.000 NA
ATOM     11  C   UNL     1       5.103   4.267  15.963  0.00  0.00    +0.000 C 
BRANCH  10  12
ATOM     12  O   UNL     1       4.965   4.071  13.763  0.00  0.00    +0.000 OA
BRANCH  12  13
ATOM     13  C   UNL     1       5.912   3.607  12.796  0.00  0.00    +0.000 C 
BRANCH  13  15
ATOM     14  C   UNL     1       4.032   3.216  11.183  0.00  0.00    +0.000 C 
ATOM     15  C   UNL     1       5.186   2.830  11.744  0.00  0.00    +0.000 C 
ENDBRANCH  13  15
ENDBRANCH  12  13
ENDBRANCH  10  12
ENDBRANCH   1  11
BRANCH   7  16
ATOM     16  O   UNL     1       3.497   5.239  18.134  0.00  0.00    +0.000 OA
BRANCH  16  17
ATOM     17  C   UNL     1       2.910   6.445  18.489  0.00  0.00    +0.000 A 
ATOM     18  C   UNL     1       2.812   7.519  17.593  0.00  0.00    +0.000 A 
ATOM     19  C   UNL     1       2.258   8.742  17.976  0.00  0.00    +0.000 A 
ATOM     20  C   UNL     1       1.709   8.829  19.256  0.00  0.00    +0.000 A 
ATOM     21  N   UNL     1       1.069   9.882  19.867  0.00  0.00    +0.000 N 
ATOM     22  C   UNL     1       0.526   9.479  21.061  0.00  0.00    +0.000 A 
ATOM     23  C   UNL     1      -0.403  10.351  21.823  0.00  0.00    +0.000 C 
ATOM     24  C   UNL     1       0.986   8.198  21.304  0.00  0.00    +0.000 A 
ATOM     25  C   UNL     1       1.712   7.762  20.156  0.00  0.00    +0.000 A 
ATOM     26  C   UNL     1       2.343   6.558  19.767  0.00  0.00    +0.000 A 
ATOM     27  F   UNL     1       2.379   5.514  20.611  0.00  0.00    +0.000 F 
ATOM     28  H   UNL     1       0.942  10.792  19.446  0.00  0.00    +0.000 HD
ENDBRANCH  16  17
ENDBRANCH   7  16
TORSDOF 6
ENDMDL
MODEL 7
REMARK VINA RESULT:      -7.9      2.172      4.336
REMARK  Name = 
REMARK  7 active torsions:
REMARK  status: ('A' for Active; 'I' for Inactive)
REMARK    1  A    between atoms: C_2  and  C_3
REMARK    2  A    between atoms: C_3  and  O_4
REMARK    3  A    between atoms: O_4  and  N_5
REMARK    4  A    between atoms: C_6  and  C_7
REMARK    5  A    between atoms: C_13  and  O_14
REMARK    6  A    between atoms: O_14  and  C_15
REMARK    7  A    between atoms: C_20  and  C_21
REMARK                            x       y       z     vdW  Elec       q    Type
REMARK                         _______ _______ _______ _____ _____    ______ ____
ROOT
ATOM      1  C   UNL     1       5.530   5.101  17.927  0.00  0.00    +0.000 A 
ATOM      2  C   UNL     1       6.917   5.212  17.894  0.00  0.00    +0.000 A 
ATOM      3  N   UNL     1       7.761   4.132  18.139  0.00  0.00    +0.000 N 
ATOM      4  N   UNL     1       7.549   6.328  17.498  0.00  0.00    +0.000 NA
ATOM      5  C   UNL     1       6.774   7.362  17.164  0.00  0.00    +0.000 A 
ATOM      6  N   UNL     1       5.440   7.374  17.162  0.00  0.00    +0.000 NA
ATOM      7  C   UNL     1       4.830   6.219  17.509  0.00  0.00    +0.000 A 
ATOM      8  H   UNL     1       7.458   3.587  18.950  0.00  0.00    +0.000 HD
ATOM      9  H   UNL     1       8.726   4.452  18.187  0.00  0.00    +0.000 HD
ENDROOT
BRANCH   1  11
ATOM     10  N   UNL     1       5.149   3.415  19.591  0.00  0.00    +0.000 NA
ATOM     11  C   UNL     1       4.869   3.887  18.416  0.00  0.00    +0.000 C 
BRANCH  10  12
ATOM     12  O   UNL     1       4.399   2.257  19.837  0.00  0.00    +0.000 OA
BRANCH  12  13
ATOM     13  C   UNL     1       3.147   2.388  19.156  0.00  0.00    +0.000 C 
BRANCH  13  15
ATOM     14  C   UNL     1       2.229   2.744  21.464  0.00  0.00    +0.000 C 
ATOM     15  C   UNL     1       2.049   2.438  20.172  0.00  0.00    +0.000 C 
ENDBRANCH  13  15
ENDBRANCH  12  13
ENDBRANCH  10  12
ENDBRANCH   1  11
BRANCH   7  16
ATOM     16  O   UNL     1       3.438   6.182  17.456  0.00  0.00    +0.000 OA
BRANCH  16  17
ATOM     17  C   UNL     1       2.747   6.803  18.487  0.00  0.00    +0.000 A 
ATOM     18  C   UNL     1       2.600   6.211  19.749  0.00  0.00    +0.000 A 
ATOM     19  C   UNL     1       1.866   6.828  20.764  0.00  0.00    +0.000 A 
ATOM     20  C   UNL     1       1.369   8.108  20.514  0.00  0.00    +0.000 A 
ATOM     21  N   UNL     1       0.662   8.951  21.339  0.00  0.00    +0.000 N 
ATOM     22  C   UNL     1       0.530  10.185  20.756  0.00  0.00    +0.000 A 
ATOM     23  C   UNL     1       0.003  11.349  21.513  0.00  0.00    +0.000 C 
ATOM     24  C   UNL     1       0.996  10.073  19.459  0.00  0.00    +0.000 A 
ATOM     25  C   UNL     1       1.558   8.771  19.301  0.00  0.00    +0.000 A 
ATOM     26  C   UNL     1       2.243   8.094  18.265  0.00  0.00    +0.000 A 
ATOM     27  F   UNL     1       2.432   8.693  17.079  0.00  0.00    +0.000 F 
ATOM     28  H   UNL     1       0.369   8.715  22.278  0.00  0.00    +0.000 HD
ENDBRANCH  16  17
ENDBRANCH   7  16
TORSDOF 6
ENDMDL
MODEL 8
REMARK VINA RESULT:      -7.8      1.927      2.046
REMARK  Name = 
REMARK  7 active torsions:
REMARK  status: ('A' for Active; 'I' for Inactive)
REMARK    1  A    between atoms: C_2  and  C_3
REMARK    2  A    between atoms: C_3  and  O_4
REMARK    3  A    between atoms: O_4  and  N_5
REMARK    4  A    between atoms: C_6  and  C_7
REMARK    5  A    between atoms: C_13  and  O_14
REMARK    6  A    between atoms: O_14  and  C_15
REMARK    7  A    between atoms: C_20  and  C_21
REMARK                            x       y       z     vdW  Elec       q    Type
REMARK                         _______ _______ _______ _____ _____    ______ ____
ROOT
ATOM      1  C   UNL     1       2.612   4.336  18.584  0.00  0.00    +0.000 A 
ATOM      2  C   UNL     1       1.968   3.102  18.562  0.00  0.00    +0.000 A 
ATOM      3  N   UNL     1       2.261   2.120  17.619  0.00  0.00    +0.000 N 
ATOM      4  N   UNL     1       1.113   2.711  19.520  0.00  0.00    +0.000 NA
ATOM      5  C   UNL     1       0.873   3.589  20.496  0.00  0.00    +0.000 A 
ATOM      6  N   UNL     1       1.424   4.797  20.617  0.00  0.00    +0.000 NA
ATOM      7  C   UNL     1       2.326   5.141  19.671  0.00  0.00    +0.000 A 
ATOM      8  H   UNL     1       2.338   2.508  16.676  0.00  0.00    +0.000 HD
ATOM      9  H   UNL     1       1.599   1.352  17.704  0.00  0.00    +0.000 HD
ENDROOT
BRANCH   1  11
ATOM     10  N   UNL     1       4.620   4.136  17.283  0.00  0.00    +0.000 NA
ATOM     11  C   UNL     1       3.500   4.756  17.495  0.00  0.00    +0.000 C 
BRANCH  10  12
ATOM     12  O   UNL     1       5.292   4.712  16.198  0.00  0.00    +0.000 OA
BRANCH  12  13
ATOM     13  C   UNL     1       6.085   3.696  15.577  0.00  0.00    +0.000 C 
BRANCH  13  15
ATOM     14  C   UNL     1       7.141   4.732  13.551  0.00  0.00    +0.000 C 
ATOM     15  C   UNL     1       6.180   3.986  14.112  0.00  0.00    +0.000 C 
ENDBRANCH  13  15
ENDBRANCH  12  13
ENDBRANCH  10  12
ENDBRANCH   1  11
BRANCH   7  16
ATOM     16  O   UNL     1       2.967   6.372  19.806  0.00  0.00    +0.000 OA
BRANCH  16  17
ATOM     17  C   UNL     1       2.271   7.498  19.386  0.00  0.00    +0.000 A 
ATOM     18  C   UNL     1       2.249   7.903  18.044  0.00  0.00    +0.000 A 
ATOM     19  C   UNL     1       1.581   9.062  17.642  0.00  0.00    +0.000 A 
ATOM     20  C   UNL     1       0.845   9.750  18.608  0.00  0.00    +0.000 A 
ATOM     21  N   UNL     1       0.067  10.877  18.480  0.00  0.00    +0.000 N 
ATOM     22  C   UNL     1      -0.624  11.111  19.641  0.00  0.00    +0.000 A 
ATOM     23  C   UNL     1      -1.701  12.131  19.711  0.00  0.00    +0.000 C 
ATOM     24  C   UNL     1      -0.138  10.228  20.588  0.00  0.00    +0.000 A 
ATOM     25  C   UNL     1       0.772   9.340  19.940  0.00  0.00    +0.000 A 
ATOM     26  C   UNL     1       1.517   8.205  20.334  0.00  0.00    +0.000 A 
ATOM     27  F   UNL     1       1.483   7.788  21.610  0.00  0.00    +0.000 F 
ATOM     28  H   UNL     1      -0.045  11.397  17.619  0.00  0.00    +0.000 HD
ENDBRANCH  16  17
ENDBRANCH   7  16
TORSDOF 6
ENDMDL
MODEL 9
REMARK VINA RESULT:      -7.8      1.128      1.236
REMARK  Name = 
REMARK  7 active torsions:
REMARK  status: ('A' for Active; 'I' for Inactive)
REMARK    1  A    between atoms: C_2  and  C_3
REMARK    2  A    between atoms: C_3  and  O_4
REMARK    3  A    between atoms: O_4  and  N_5
REMARK    4  A    between atoms: C_6  and  C_7
REMARK    5  A    between atoms: C_13  and  O_14
REMARK    6  A    between atoms: O_14  and  C_15
REMARK    7  A    between atoms: C_20  and  C_21
REMARK                            x       y       z     vdW  Elec       q    Type
REMARK                         _______ _______ _______ _____ _____    ______ ____
ROOT
ATOM      1  C   UNL     1       4.101   4.571  18.119  0.00  0.00    +0.000 A 
ATOM      2  C   UNL     1       3.802   3.379  17.466  0.00  0.00    +0.000 A 
ATOM      3  N   UNL     1       4.764   2.633  16.789  0.00  0.00    +0.000 N 
ATOM      4  N   UNL     1       2.600   2.787  17.547  0.00  0.00    +0.000 NA
ATOM      5  C   UNL     1       1.673   3.423  18.265  0.00  0.00    +0.000 A 
ATOM      6  N   UNL     1       1.841   4.569  18.926  0.00  0.00    +0.000 NA
ATOM      7  C   UNL     1       3.078   5.112  18.876  0.00  0.00    +0.000 A 
ATOM      8  H   UNL     1       5.367   3.224  16.212  0.00  0.00    +0.000 HD
ATOM      9  H   UNL     1       4.317   1.871  16.285  0.00  0.00    +0.000 HD
ENDROOT
BRANCH   1  11
ATOM     10  N   UNL     1       6.499   4.566  18.216  0.00  0.00    +0.000 NA
ATOM     11  C   UNL     1       5.407   5.222  17.968  0.00  0.00    +0.000 C 
BRANCH  10  12
ATOM     12  O   UNL     1       7.613   5.389  18.003  0.00  0.00    +0.000 OA
BRANCH  12  13
ATOM     13  C   UNL     1       7.148   6.732  17.839  0.00  0.00    +0.000 C 
BRANCH  13  15
ATOM     14  C   UNL     1       8.306   8.949  18.031  0.00  0.00    +0.000 C 
ATOM     15  C   UNL     1       8.168   7.669  18.405  0.00  0.00    +0.000 C 
ENDBRANCH  13  15
ENDBRANCH  12  13
ENDBRANCH  10  12
ENDBRANCH   1  11
BRANCH   7  16
ATOM     16  O   UNL     1       3.303   6.277  19.609  0.00  0.00    +0.000 OA
BRANCH  16  17
ATOM     17  C   UNL     1       2.592   7.408  19.235  0.00  0.00    +0.000 A 
ATOM     18  C   UNL     1       2.721   7.983  17.963  0.00  0.00    +0.000 A 
ATOM     19  C   UNL     1       2.033   9.147  17.614  0.00  0.00    +0.000 A 
ATOM     20  C   UNL     1       1.127   9.664  18.542  0.00  0.00    +0.000 A 
ATOM     21  N   UNL     1       0.296  10.755  18.443  0.00  0.00    +0.000 N 
ATOM     22  C   UNL     1      -0.560  10.798  19.514  0.00  0.00    +0.000 A 
ATOM     23  C   UNL     1      -1.706  11.742  19.554  0.00  0.00    +0.000 C 
ATOM     24  C   UNL     1      -0.144   9.827  20.406  0.00  0.00    +0.000 A 
ATOM     25  C   UNL     1       0.905   9.080  19.791  0.00  0.00    +0.000 A 
ATOM     26  C   UNL     1       1.669   7.945  20.146  0.00  0.00    +0.000 A 
ATOM     27  F   UNL     1       1.495   7.364  21.344  0.00  0.00    +0.000 F 
ATOM     28  H   UNL     1       0.263  11.375  17.645  0.00  0.00    +0.000 HD
ENDBRANCH  16  17
ENDBRANCH   7  16
TORSDOF 6
ENDMDL
