MODEL 1
REMARK VINA RESULT:      -6.8      0.000      0.000
REMARK  Name = 
REMARK  5 active torsions:
REMARK  status: ('A' for Active; 'I' for Inactive)
REMARK    1  A    between atoms: C_1  and  O_2
REMARK    2  A    between atoms: O_2  and  C_3
REMARK    3  A    between atoms: C_3  and  C_5
REMARK    4  A    between atoms: C_5  and  C_6
REMARK    5  A    between atoms: C_5  and  C_12
REMARK                            x       y       z     vdW  Elec       q    Type
REMARK                         _______ _______ _______ _____ _____    ______ ____
ROOT
ATOM      1  C   UNL     1       6.135   4.738  16.298  0.00  0.00    +0.000 C 
ENDROOT
BRANCH   1   2
ATOM      2  C   UNL     1       6.197   4.881  14.739  0.00  0.00    +0.000 C 
ATOM      3  C   UNL     1       5.577   3.675  14.000  0.00  0.00    +0.000 C 
ATOM      4  C   UNL     1       5.743   3.762  12.488  0.00  0.00    +0.000 C 
ATOM      5  C   UNL     1       7.205   3.981  12.138  0.00  0.00    +0.000 C 
ATOM      6  C   UNL     1       7.728   5.229  12.837  0.00  0.00    +0.000 C 
ATOM      7  N   UNL     1       7.585   5.139  14.287  0.00  0.00    +0.000 NA
ATOM      8  H   UNL     1       7.936   5.996  14.713  0.00  0.00    +0.000 HD
ENDBRANCH   1   2
BRANCH   1   9
ATOM      9  C   UNL     1       4.744   4.907  16.918  0.00  0.00    +0.000 A 
ATOM     10  C   UNL     1       4.260   6.141  17.378  0.00  0.00    +0.000 A 
ATOM     11  C   UNL     1       2.987   6.250  17.946  0.00  0.00    +0.000 A 
ATOM     12  C   UNL     1       2.168   5.131  18.052  0.00  0.00    +0.000 A 
ATOM     13  C   UNL     1       2.618   3.901  17.583  0.00  0.00    +0.000 A 
ATOM     14  C   UNL     1       3.894   3.790  17.024  0.00  0.00    +0.000 A 
ENDBRANCH   1   9
BRANCH   1  15
ATOM     15  C   UNL     1       7.207   5.626  16.934  0.00  0.00    +0.000 C 
ATOM     16  O   UNL     1       7.527   6.746  16.555  0.00  0.00    +0.000 OA
BRANCH  15  18
ATOM     17  C   UNL     1       7.765   5.759  19.198  0.00  0.00    +0.000 C 
ATOM     18  O   UNL     1       7.805   4.997  17.989  0.00  0.00    +0.000 OA
ENDBRANCH  15  18
ENDBRANCH   1  15
TORSDOF 4
ENDMDL
MODEL 2
REMARK VINA RESULT:      -6.8      1.632      4.877
REMARK  Name = 
REMARK  5 active torsions:
REMARK  status: ('A' for Active; 'I' for Inactive)
REMARK    1  A    between atoms: C_1  and  O_2
REMARK    2  A    between atoms: O_2  and  C_3
REMARK    3  A    between atoms: C_3  and  C_5
REMARK    4  A    between atoms: C_5  and  C_6
REMARK    5  A    between atoms: C_5  and  C_12
REMARK                            x       y       z     vdW  Elec       q    Type
REMARK                         _______ _______ _______ _____ _____    ______ ____
ROOT
ATOM      1  C   UNL     1       6.197   5.160  16.490  0.00  0.00    +0.000 C 
ENDROOT
BRANCH   1   2
ATOM      2  C   UNL     1       5.018   4.402  17.191  0.00  0.00    +0.000 C 
ATOM      3  C   UNL     1       3.777   5.295  17.412  0.00  0.00    +0.000 C 
ATOM      4  C   UNL     1       2.678   4.590  18.198  0.00  0.00    +0.000 C 
ATOM      5  C   UNL     1       3.242   4.031  19.492  0.00  0.00    +0.000 C 
ATOM      6  C   UNL     1       4.410   3.100  19.195  0.00  0.00    +0.000 C 
ATOM      7  N   UNL     1       5.471   3.779  18.457  0.00  0.00    +0.000 NA
ATOM      8  H   UNL     1       6.225   3.119  18.270  0.00  0.00    +0.000 HD
ENDBRANCH   1   2
BRANCH   1   9
ATOM      9  C   UNL     1       6.429   4.796  15.019  0.00  0.00    +0.000 A 
ATOM     10  C   UNL     1       7.472   5.341  14.255  0.00  0.00    +0.000 A 
ATOM     11  C   UNL     1       7.642   4.989  12.913  0.00  0.00    +0.000 A 
ATOM     12  C   UNL     1       6.784   4.074  12.313  0.00  0.00    +0.000 A 
ATOM     13  C   UNL     1       5.756   3.504  13.056  0.00  0.00    +0.000 A 
ATOM     14  C   UNL     1       5.579   3.863  14.396  0.00  0.00    +0.000 A 
ENDBRANCH   1   9
BRANCH   1  15
ATOM     15  C   UNL     1       7.454   5.059  17.356  0.00  0.00    +0.000 C 
ATOM     16  O   UNL     1       8.260   4.137  17.345  0.00  0.00    +0.000 OA
BRANCH  15  18
ATOM     17  C   UNL     1       7.485   7.390  17.507  0.00  0.00    +0.000 C 
ATOM     18  O   UNL     1       7.565   6.136  18.189  0.00  0.00    +0.000 OA
ENDBRANCH  15  18
ENDBRANCH   1  15
TORSDOF 4
ENDMDL
MODEL 3
REMARK VINA RESULT:      -6.7      1.360      4.965
REMARK  Name = 
REMARK  5 active torsions:
REMARK  status: ('A' for Active; 'I' for Inactive)
REMARK    1  A    between atoms: C_1  and  O_2
REMARK    2  A    between atoms: O_2  and  C_3
REMARK    3  A    between atoms: C_3  and  C_5
REMARK    4  A    between atoms: C_5  and  C_6
REMARK    5  A    between atoms: C_5  and  C_12
REMARK                            x       y       z     vdW  Elec       q    Type
REMARK                         _______ _______ _______ _____ _____    ______ ____
ROOT
ATOM      1  C   UNL     1       6.118   5.301  16.095  0.00  0.00    +0.000 C 
ENDROOT
BRANCH   1   2
ATOM      2  C   UNL     1       4.829   4.697  16.750  0.00  0.00    +0.000 C 
ATOM      3  C   UNL     1       3.891   5.776  17.335  0.00  0.00    +0.000 C 
ATOM      4  C   UNL     1       2.699   5.180  18.074  0.00  0.00    +0.000 C 
ATOM      5  C   UNL     1       3.178   4.186  19.117  0.00  0.00    +0.000 C 
ATOM      6  C   UNL     1       4.031   3.109  18.460  0.00  0.00    +0.000 C 
ATOM      7  N   UNL     1       5.183   3.677  17.766  0.00  0.00    +0.000 NA
ATOM      8  H   UNL     1       5.719   2.926  17.333  0.00  0.00    +0.000 HD
ENDBRANCH   1   2
BRANCH   1   9
ATOM      9  C   UNL     1       6.404   4.838  14.662  0.00  0.00    +0.000 A 
ATOM     10  C   UNL     1       5.629   3.870  14.005  0.00  0.00    +0.000 A 
ATOM     11  C   UNL     1       5.930   3.469  12.700  0.00  0.00    +0.000 A 
ATOM     12  C   UNL     1       7.002   4.038  12.021  0.00  0.00    +0.000 A 
ATOM     13  C   UNL     1       7.772   5.015  12.644  0.00  0.00    +0.000 A 
ATOM     14  C   UNL     1       7.477   5.409  13.953  0.00  0.00    +0.000 A 
ENDBRANCH   1   9
BRANCH   1  15
ATOM     15  C   UNL     1       7.303   5.129  17.047  0.00  0.00    +0.000 C 
ATOM     16  O   UNL     1       8.084   4.186  17.056  0.00  0.00    +0.000 OA
BRANCH  15  18
ATOM     17  C   UNL     1       7.778   5.762  19.245  0.00  0.00    +0.000 C 
ATOM     18  O   UNL     1       7.376   6.166  17.934  0.00  0.00    +0.000 OA
ENDBRANCH  15  18
ENDBRANCH   1  15
TORSDOF 4
ENDMDL
MODEL 4
REMARK VINA RESULT:      -6.7      0.115      1.172
REMARK  Name = 
REMARK  5 active torsions:
REMARK  status: ('A' for Active; 'I' for Inactive)
REMARK    1  A    between atoms: C_1  and  O_2
REMARK    2  A    between atoms: O_2  and  C_3
REMARK    3  A    between atoms: C_3  and  C_5
REMARK    4  A    between atoms: C_5  and  C_6
REMARK    5  A    between atoms: C_5  and  C_12
REMARK                            x       y       z     vdW  Elec       q    Type
REMARK                         _______ _______ _______ _____ _____    ______ ____
ROOT
ATOM      1  C   UNL     1       6.122   4.619  16.316  0.00  0.00    +0.000 C 
ENDROOT
BRANCH   1   2
ATOM      2  C   UNL     1       6.206   4.828  14.765  0.00  0.00    +0.000 C 
ATOM      3  C   UNL     1       5.585   3.660  13.968  0.00  0.00    +0.000 C 
ATOM      4  C   UNL     1       5.773   3.809  12.463  0.00  0.00    +0.000 C 
ATOM      5  C   UNL     1       7.241   4.029  12.143  0.00  0.00    +0.000 C 
ATOM      6  C   UNL     1       7.766   5.241  12.901  0.00  0.00    +0.000 C 
ATOM      7  N   UNL     1       7.602   5.091  14.344  0.00  0.00    +0.000 NA
ATOM      8  H   UNL     1       7.955   5.926  14.810  0.00  0.00    +0.000 HD
ENDBRANCH   1   2
BRANCH   1   9
ATOM      9  C   UNL     1       4.720   4.754  16.921  0.00  0.00    +0.000 A 
ATOM     10  C   UNL     1       3.851   3.664  17.080  0.00  0.00    +0.000 A 
ATOM     11  C   UNL     1       2.576   3.832  17.629  0.00  0.00    +0.000 A 
ATOM     12  C   UNL     1       2.151   5.090  18.044  0.00  0.00    +0.000 A 
ATOM     13  C   UNL     1       3.004   6.181  17.917  0.00  0.00    +0.000 A 
ATOM     14  C   UNL     1       4.275   6.016  17.359  0.00  0.00    +0.000 A 
ENDBRANCH   1   9
BRANCH   1  15
ATOM     15  C   UNL     1       7.177   5.487  17.005  0.00  0.00    +0.000 C 
ATOM     16  O   UNL     1       7.552   6.591  16.631  0.00  0.00    +0.000 OA
BRANCH  15  18
ATOM     17  C   UNL     1       7.786   5.706  19.249  0.00  0.00    +0.000 C 
ATOM     18  O   UNL     1       7.691   4.857  18.103  0.00  0.00    +0.000 OA
ENDBRANCH  15  18
ENDBRANCH   1  15
TORSDOF 4
ENDMDL
MODEL 5
REMARK VINA RESULT:      -6.5      0.731      1.559
REMARK  Name = 
REMARK  5 active torsions:
REMARK  status: ('A' for Active; 'I' for Inactive)
REMARK    1  A    between atoms: C_1  and  O_2
REMARK    2  A    between atoms: O_2  and  C_3
REMARK    3  A    between atoms: C_3  and  C_5
REMARK    4  A    between atoms: C_5  and  C_6
REMARK    5  A    between atoms: C_5  and  C_12
REMARK                            x       y       z     vdW  Elec       q    Type
REMARK                         _______ _______ _______ _____ _____    ______ ____
ROOT
ATOM      1  C   UNL     1       6.018   4.630  16.263  0.00  0.00    +0.000 C 
ENDROOT
BRANCH   1   2
ATOM      2  C   UNL     1       6.106   4.818  14.710  0.00  0.00    +0.000 C 
ATOM      3  C   UNL     1       5.542   3.613  13.926  0.00  0.00    +0.000 C 
ATOM      4  C   UNL     1       5.735   3.748  12.420  0.00  0.00    +0.000 C 
ATOM      5  C   UNL     1       7.195   4.026  12.107  0.00  0.00    +0.000 C 
ATOM      6  C   UNL     1       7.662   5.271  12.850  0.00  0.00    +0.000 C 
ATOM      7  N   UNL     1       7.493   5.135  14.295  0.00  0.00    +0.000 NA
ATOM      8  H   UNL     1       7.806   5.991  14.751  0.00  0.00    +0.000 HD
ENDBRANCH   1   2
BRANCH   1   9
ATOM      9  C   UNL     1       4.807   5.283  16.937  0.00  0.00    +0.000 A 
ATOM     10  C   UNL     1       3.890   4.564  17.719  0.00  0.00    +0.000 A 
ATOM     11  C   UNL     1       2.793   5.198  18.309  0.00  0.00    +0.000 A 
ATOM     12  C   UNL     1       2.598   6.565  18.141  0.00  0.00    +0.000 A 
ATOM     13  C   UNL     1       3.505   7.302  17.388  0.00  0.00    +0.000 A 
ATOM     14  C   UNL     1       4.598   6.667  16.789  0.00  0.00    +0.000 A 
ENDBRANCH   1   9
BRANCH   1  15
ATOM     15  C   UNL     1       7.357   5.010  16.899  0.00  0.00    +0.000 C 
ATOM     16  O   UNL     1       8.152   4.233  17.414  0.00  0.00    +0.000 OA
BRANCH  15  18
ATOM     17  C   UNL     1       7.850   6.934  18.127  0.00  0.00    +0.000 C 
ATOM     18  O   UNL     1       7.559   6.360  16.850  0.00  0.00    +0.000 OA
ENDBRANCH  15  18
ENDBRANCH   1  15
TORSDOF 4
ENDMDL
MODEL 6
REMARK VINA RESULT:      -6.4      3.991      5.886
REMARK  Name = 
REMARK  5 active torsions:
REMARK  status: ('A' for Active; 'I' for Inactive)
REMARK    1  A    between atoms: C_1  and  O_2
REMARK    2  A    between atoms: O_2  and  C_3
REMARK    3  A    between atoms: C_3  and  C_5
REMARK    4  A    between atoms: C_5  and  C_6
REMARK    5  A    between atoms: C_5  and  C_12
REMARK                            x       y       z     vdW  Elec       q    Type
REMARK                         _______ _______ _______ _____ _____    ______ ____
ROOT
ATOM      1  C   UNL     1       3.428   5.843  18.044  0.00  0.00    +0.000 C 
ENDROOT
BRANCH   1   2
ATOM      2  C   UNL     1       2.903   4.479  18.608  0.00  0.00    +0.000 C 
ATOM      3  C   UNL     1       2.801   3.382  17.526  0.00  0.00    +0.000 C 
ATOM      4  C   UNL     1       2.179   2.093  18.052  0.00  0.00    +0.000 C 
ATOM      5  C   UNL     1       0.848   2.393  18.718  0.00  0.00    +0.000 C 
ATOM      6  C   UNL     1       1.036   3.422  19.824  0.00  0.00    +0.000 C 
ATOM      7  N   UNL     1       1.615   4.663  19.318  0.00  0.00    +0.000 NA
ATOM      8  H   UNL     1       1.734   5.318  20.090  0.00  0.00    +0.000 HD
ENDBRANCH   1   2
BRANCH   1   9
ATOM      9  C   UNL     1       4.945   6.048  18.129  0.00  0.00    +0.000 A 
ATOM     10  C   UNL     1       5.651   6.885  17.251  0.00  0.00    +0.000 A 
ATOM     11  C   UNL     1       7.037   7.037  17.358  0.00  0.00    +0.000 A 
ATOM     12  C   UNL     1       7.741   6.369  18.353  0.00  0.00    +0.000 A 
ATOM     13  C   UNL     1       7.060   5.551  19.249  0.00  0.00    +0.000 A 
ATOM     14  C   UNL     1       5.675   5.391  19.137  0.00  0.00    +0.000 A 
ENDBRANCH   1   9
BRANCH   1  15
ATOM     15  C   UNL     1       2.616   6.991  18.647  0.00  0.00    +0.000 C 
ATOM     16  O   UNL     1       2.532   7.261  19.839  0.00  0.00    +0.000 OA
BRANCH  15  18
ATOM     17  C   UNL     1       2.005   9.103  17.857  0.00  0.00    +0.000 C 
ATOM     18  O   UNL     1       1.950   7.685  17.677  0.00  0.00    +0.000 OA
ENDBRANCH  15  18
ENDBRANCH   1  15
TORSDOF 4
ENDMDL
MODEL 7
REMARK VINA RESULT:      -6.4      4.010      5.956
REMARK  Name = 
REMARK  5 active torsions:
REMARK  status: ('A' for Active; 'I' for Inactive)
REMARK    1  A    between atoms: C_1  and  O_2
REMARK    2  A    between atoms: O_2  and  C_3
REMARK    3  A    between atoms: C_3  and  C_5
REMARK    4  A    between atoms: C_5  and  C_6
REMARK    5  A    between atoms: C_5  and  C_12
REMARK                            x       y       z     vdW  Elec       q    Type
REMARK                         _______ _______ _______ _____ _____    ______ ____
ROOT
ATOM      1  C   UNL     1       3.407   5.806  18.093  0.00  0.00    +0.000 C 
ENDROOT
BRANCH   1   2
ATOM      2  C   UNL     1       2.878   4.436  18.640  0.00  0.00    +0.000 C 
ATOM      3  C   UNL     1       2.762   3.355  17.544  0.00  0.00    +0.000 C 
ATOM      4  C   UNL     1       2.136   2.063  18.055  0.00  0.00    +0.000 C 
ATOM      5  C   UNL     1       0.811   2.361  18.734  0.00  0.00    +0.000 C 
ATOM      6  C   UNL     1       1.012   3.373  19.854  0.00  0.00    +0.000 C 
ATOM      7  N   UNL     1       1.596   4.618  19.361  0.00  0.00    +0.000 NA
ATOM      8  H   UNL     1       1.723   5.261  20.142  0.00  0.00    +0.000 HD
ENDBRANCH   1   2
BRANCH   1   9
ATOM      9  C   UNL     1       4.924   6.008  18.188  0.00  0.00    +0.000 A 
ATOM     10  C   UNL     1       5.721   5.357  19.142  0.00  0.00    +0.000 A 
ATOM     11  C   UNL     1       7.100   5.577  19.200  0.00  0.00    +0.000 A 
ATOM     12  C   UNL     1       7.712   6.441  18.298  0.00  0.00    +0.000 A 
ATOM     13  C   UNL     1       6.945   7.081  17.330  0.00  0.00    +0.000 A 
ATOM     14  C   UNL     1       5.564   6.869  17.277  0.00  0.00    +0.000 A 
ENDBRANCH   1   9
BRANCH   1  15
ATOM     15  C   UNL     1       2.592   6.948  18.702  0.00  0.00    +0.000 C 
ATOM     16  O   UNL     1       2.520   7.220  19.894  0.00  0.00    +0.000 OA
BRANCH  15  18
ATOM     17  C   UNL     1       2.099   9.050  17.810  0.00  0.00    +0.000 C 
ATOM     18  O   UNL     1       1.910   7.635  17.737  0.00  0.00    +0.000 OA
ENDBRANCH  15  18
ENDBRANCH   1  15
TORSDOF 4
ENDMDL
MODEL 8
REMARK VINA RESULT:      -6.3      1.117      1.372
REMARK  Name = 
REMARK  5 active torsions:
REMARK  status: ('A' for Active; 'I' for Inactive)
REMARK    1  A    between atoms: C_1  and  O_2
REMARK    2  A    between atoms: O_2  and  C_3
REMARK    3  A    between atoms: C_3  and  C_5
REMARK    4  A    between atoms: C_5  and  C_6
REMARK    5  A    between atoms: C_5  and  C_12
REMARK                            x       y       z     vdW  Elec       q    Type
REMARK                         _______ _______ _______ _____ _____    ______ ____
ROOT
ATOM      1  C   UNL     1       6.080   4.700  16.738  0.00  0.00    +0.000 C 
ENDROOT
BRANCH   1   2
ATOM      2  C   UNL     1       6.109   4.887  15.183  0.00  0.00    +0.000 C 
ATOM      3  C   UNL     1       5.423   3.729  14.426  0.00  0.00    +0.000 C 
ATOM      4  C   UNL     1       5.556   3.855  12.913  0.00  0.00    +0.000 C 
ATOM      5  C   UNL     1       7.016   4.027  12.532  0.00  0.00    +0.000 C 
ATOM      6  C   UNL     1       7.606   5.231  13.254  0.00  0.00    +0.000 C 
ATOM      7  N   UNL     1       7.495   5.103  14.704  0.00  0.00    +0.000 NA
ATOM      8  H   UNL     1       7.890   5.933  15.146  0.00  0.00    +0.000 HD
ENDBRANCH   1   2
BRANCH   1   9
ATOM      9  C   UNL     1       4.960   5.449  17.469  0.00  0.00    +0.000 A 
ATOM     10  C   UNL     1       4.364   6.613  16.961  0.00  0.00    +0.000 A 
ATOM     11  C   UNL     1       3.350   7.270  17.664  0.00  0.00    +0.000 A 
ATOM     12  C   UNL     1       2.902   6.769  18.881  0.00  0.00    +0.000 A 
ATOM     13  C   UNL     1       3.462   5.604  19.395  0.00  0.00    +0.000 A 
ATOM     14  C   UNL     1       4.483   4.951  18.696  0.00  0.00    +0.000 A 
ENDBRANCH   1   9
BRANCH   1  15
ATOM     15  C   UNL     1       7.474   4.965  17.310  0.00  0.00    +0.000 C 
ATOM     16  O   UNL     1       8.256   4.114  17.715  0.00  0.00    +0.000 OA
BRANCH  15  18
ATOM     17  C   UNL     1       8.040   6.787  18.658  0.00  0.00    +0.000 C 
ATOM     18  O   UNL     1       7.745   6.304  17.345  0.00  0.00    +0.000 OA
ENDBRANCH  15  18
ENDBRANCH   1  15
TORSDOF 4
ENDMDL
MODEL 9
REMARK VINA RESULT:      -6.3      3.964      5.839
REMARK  Name = 
REMARK  5 active torsions:
REMARK  status: ('A' for Active; 'I' for Inactive)
REMARK    1  A    between atoms: C_1  and  O_2
REMARK    2  A    between atoms: O_2  and  C_3
REMARK    3  A    between atoms: C_3  and  C_5
REMARK    4  A    between atoms: C_5  and  C_6
REMARK    5  A    between atoms: C_5  and  C_12
REMARK                            x       y       z     vdW  Elec       q    Type
REMARK                         _______ _______ _______ _____ _____    ______ ____
ROOT
ATOM      1  C   UNL     1       3.499   5.764  17.986  0.00  0.00    +0.000 C 
ENDROOT
BRANCH   1   2
ATOM      2  C   UNL     1       2.967   4.428  18.608  0.00  0.00    +0.000 C 
ATOM      3  C   UNL     1       3.078   3.229  17.641  0.00  0.00    +0.000 C 
ATOM      4  C   UNL     1       2.453   1.958  18.205  0.00  0.00    +0.000 C 
ATOM      5  C   UNL     1       1.026   2.232  18.645  0.00  0.00    +0.000 C 
ATOM      6  C   UNL     1       1.000   3.372  19.655  0.00  0.00    +0.000 C 
ATOM      7  N   UNL     1       1.582   4.594  19.110  0.00  0.00    +0.000 NA
ATOM      8  H   UNL     1       1.555   5.325  19.820  0.00  0.00    +0.000 HD
ENDBRANCH   1   2
BRANCH   1   9
ATOM      9  C   UNL     1       5.006   6.002  18.132  0.00  0.00    +0.000 A 
ATOM     10  C   UNL     1       5.789   5.356  19.100  0.00  0.00    +0.000 A 
ATOM     11  C   UNL     1       7.160   5.609  19.205  0.00  0.00    +0.000 A 
ATOM     12  C   UNL     1       7.777   6.501  18.335  0.00  0.00    +0.000 A 
ATOM     13  C   UNL     1       7.026   7.137  17.353  0.00  0.00    +0.000 A 
ATOM     14  C   UNL     1       5.653   6.892  17.254  0.00  0.00    +0.000 A 
ENDBRANCH   1   9
BRANCH   1  15
ATOM     15  C   UNL     1       2.639   6.932  18.475  0.00  0.00    +0.000 C 
ATOM     16  O   UNL     1       1.990   7.690  17.765  0.00  0.00    +0.000 OA
BRANCH  15  18
ATOM     17  C   UNL     1       1.744   7.972  20.365  0.00  0.00    +0.000 C 
ATOM     18  O   UNL     1       2.703   7.054  19.834  0.00  0.00    +0.000 OA
ENDBRANCH  15  18
ENDBRANCH   1  15
TORSDOF 4
ENDMDL
