MODEL 1
REMARK VINA RESULT:      -8.5      0.000      0.000
REMARK  Name = 
REMARK  5 active torsions:
REMARK  status: ('A' for Active; 'I' for Inactive)
REMARK    1  A    between atoms: C_1  and  C_2
REMARK    2  A    between atoms: C_2  and  C_3
REMARK    3  A    between atoms: C_2  and  C_4
REMARK    4  A    between atoms: C_4  and  C_5
REMARK    5  A    between atoms: C_15  and  N_16
REMARK                            x       y       z     vdW  Elec       q    Type
REMARK                         _______ _______ _______ _____ _____    ______ ____
ROOT
ATOM      1  C   UNL     1       6.600   4.367  14.132  0.00  0.00    +0.000 A 
ATOM      2  N   UNL     1       7.342   5.379  14.652  0.00  0.00    +0.000 NA
ATOM      3  C   UNL     1       7.065   5.766  15.916  0.00  0.00    +0.000 A 
ATOM      4  C   UNL     1       6.075   5.179  16.647  0.00  0.00    +0.000 A 
ATOM      5  C   UNL     1       5.404   4.142  16.042  0.00  0.00    +0.000 A 
ATOM      6  N   UNL     1       5.633   3.702  14.794  0.00  0.00    +0.000 NA
ATOM      7  C   UNL     1       4.339   3.612  16.961  0.00  0.00    +0.000 C 
ATOM      8  N   UNL     1       4.465   4.472  18.153  0.00  0.00    +0.000 N 
ATOM      9  C   UNL     1       3.370   4.715  18.960  0.00  0.00    +0.000 A 
ATOM     10  C   UNL     1       2.422   3.730  19.164  0.00  0.00    +0.000 A 
ATOM     11  C   UNL     1       1.374   4.014  20.009  0.00  0.00    +0.000 A 
ATOM     12  N   UNL     1       1.225   5.198  20.593  0.00  0.00    +0.000 NA
ATOM     13  C   UNL     1       2.177   6.095  20.353  0.00  0.00    +0.000 A 
ATOM     14  N   UNL     1       2.001   7.349  20.920  0.00  0.00    +0.000 N 
ATOM     15  N   UNL     1       3.248   5.905  19.572  0.00  0.00    +0.000 NA
ATOM     16  C   UNL     1       5.539   5.468  18.003  0.00  0.00    +0.000 C 
ATOM     17  H   UNL     1       1.016   7.481  21.122  0.00  0.00    +0.000 HD
ATOM     18  H   UNL     1       2.442   8.046  20.337  0.00  0.00    +0.000 HD
ENDROOT
BRANCH  11  19
ATOM     19  N   UNL     1       0.389   3.054  20.251  0.00  0.00    +0.000 N 
ATOM     20  H   UNL     1      -0.493   3.305  19.819  0.00  0.00    +0.000 HD
ATOM     21  H   UNL     1       0.739   2.165  19.900  0.00  0.00    +0.000 HD
ENDBRANCH  11  19
BRANCH   1  22
ATOM     22  C   UNL     1       6.841   3.998  12.688  0.00  0.00    +0.000 C 
BRANCH  22  24
ATOM     23  C   UNL     1       4.682   3.283  11.535  0.00  0.00    +0.000 C 
ATOM     24  C   UNL     1       5.977   2.817  12.205  0.00  0.00    +0.000 C 
ATOM     25  C   UNL     1       6.775   1.945  11.232  0.00  0.00    +0.000 C 
ENDBRANCH  22  24
ENDBRANCH   1  22
TORSDOF 3
ENDMDL
MODEL 2
REMARK VINA RESULT:      -7.1      4.565      7.457
REMARK  Name = 
REMARK  5 active torsions:
REMARK  status: ('A' for Active; 'I' for Inactive)
REMARK    1  A    between atoms: C_1  and  C_2
REMARK    2  A    between atoms: C_2  and  C_3
REMARK    3  A    between atoms: C_2  and  C_4
REMARK    4  A    between atoms: C_4  and  C_5
REMARK    5  A    between atoms: C_15  and  N_16
REMARK                            x       y       z     vdW  Elec       q    Type
REMARK                         _______ _______ _______ _____ _____    ______ ____
ROOT
ATOM      1  C   UNL     1       2.823   5.345  19.708  0.00  0.00    +0.000 A 
ATOM      2  N   UNL     1       3.282   5.639  18.465  0.00  0.00    +0.000 NA
ATOM      3  C   UNL     1       3.026   6.876  17.985  0.00  0.00    +0.000 A 
ATOM      4  C   UNL     1       2.325   7.796  18.708  0.00  0.00    +0.000 A 
ATOM      5  C   UNL     1       1.932   7.411  19.968  0.00  0.00    +0.000 A 
ATOM      6  N   UNL     1       2.160   6.203  20.509  0.00  0.00    +0.000 NA
ATOM      7  C   UNL     1       1.161   8.519  20.628  0.00  0.00    +0.000 C 
ATOM      8  N   UNL     1       1.144   9.576  19.599  0.00  0.00    +0.000 N 
ATOM      9  C   UNL     1       0.108  10.489  19.551  0.00  0.00    +0.000 A 
ATOM     10  C   UNL     1      -0.488  10.931  20.717  0.00  0.00    +0.000 A 
ATOM     11  C   UNL     1      -1.487  11.870  20.611  0.00  0.00    +0.000 A 
ATOM     12  N   UNL     1      -1.919  12.328  19.441  0.00  0.00    +0.000 NA
ATOM     13  C   UNL     1      -1.298  11.861  18.362  0.00  0.00    +0.000 A 
ATOM     14  N   UNL     1      -1.778  12.297  17.136  0.00  0.00    +0.000 N 
ATOM     15  N   UNL     1      -0.298  10.970  18.363  0.00  0.00    +0.000 NA
ATOM     16  C   UNL     1       1.860   9.170  18.379  0.00  0.00    +0.000 C 
ATOM     17  H   UNL     1      -2.734  12.612  17.253  0.00  0.00    +0.000 HD
ATOM     18  H   UNL     1      -1.618  11.583  16.439  0.00  0.00    +0.000 HD
ENDROOT
BRANCH  11  19
ATOM     19  N   UNL     1      -2.121  12.352  21.759  0.00  0.00    +0.000 N 
ATOM     20  H   UNL     1      -2.622  11.618  22.246  0.00  0.00    +0.000 HD
ATOM     21  H   UNL     1      -1.404  12.771  22.348  0.00  0.00    +0.000 HD
ENDBRANCH  11  19
BRANCH   1  22
ATOM     22  C   UNL     1       3.022   3.934  20.208  0.00  0.00    +0.000 C 
BRANCH  22  24
ATOM     23  C   UNL     1       1.612   2.027  19.270  0.00  0.00    +0.000 C 
ATOM     24  C   UNL     1       1.711   3.133  20.324  0.00  0.00    +0.000 C 
ATOM     25  C   UNL     1       1.589   2.523  21.723  0.00  0.00    +0.000 C 
ENDBRANCH  22  24
ENDBRANCH   1  22
TORSDOF 3
ENDMDL
MODEL 3
REMARK VINA RESULT:      -7.1      3.572      8.564
REMARK  Name = 
REMARK  5 active torsions:
REMARK  status: ('A' for Active; 'I' for Inactive)
REMARK    1  A    between atoms: C_1  and  C_2
REMARK    2  A    between atoms: C_2  and  C_3
REMARK    3  A    between atoms: C_2  and  C_4
REMARK    4  A    between atoms: C_4  and  C_5
REMARK    5  A    between atoms: C_15  and  N_16
REMARK                            x       y       z     vdW  Elec       q    Type
REMARK                         _______ _______ _______ _____ _____    ______ ____
ROOT
ATOM      1  C   UNL     1       0.702  10.438  20.412  0.00  0.00    +0.000 A 
ATOM      2  N   UNL     1       0.803  11.038  19.198  0.00  0.00    +0.000 NA
ATOM      3  C   UNL     1       1.379  10.330  18.201  0.00  0.00    +0.000 A 
ATOM      4  C   UNL     1       1.852   9.066  18.398  0.00  0.00    +0.000 A 
ATOM      5  C   UNL     1       1.673   8.537  19.654  0.00  0.00    +0.000 A 
ATOM      6  N   UNL     1       1.103   9.180  20.686  0.00  0.00    +0.000 NA
ATOM      7  C   UNL     1       2.258   7.154  19.718  0.00  0.00    +0.000 C 
ATOM      8  N   UNL     1       2.806   6.958  18.363  0.00  0.00    +0.000 N 
ATOM      9  C   UNL     1       3.884   6.118  18.159  0.00  0.00    +0.000 A 
ATOM     10  C   UNL     1       4.030   4.971  18.917  0.00  0.00    +0.000 A 
ATOM     11  C   UNL     1       5.100   4.153  18.643  0.00  0.00    +0.000 A 
ATOM     12  N   UNL     1       6.007   4.445  17.717  0.00  0.00    +0.000 NA
ATOM     13  C   UNL     1       5.802   5.561  17.025  0.00  0.00    +0.000 A 
ATOM     14  N   UNL     1       6.771   5.896  16.092  0.00  0.00    +0.000 N 
ATOM     15  N   UNL     1       4.777   6.407  17.197  0.00  0.00    +0.000 NA
ATOM     16  C   UNL     1       2.576   8.128  17.500  0.00  0.00    +0.000 C 
ATOM     17  H   UNL     1       7.638   5.433  16.340  0.00  0.00    +0.000 HD
ATOM     18  H   UNL     1       6.807   6.901  15.990  0.00  0.00    +0.000 HD
ENDROOT
BRANCH  11  19
ATOM     19  N   UNL     1       5.292   2.980  19.378  0.00  0.00    +0.000 N 
ATOM     20  H   UNL     1       6.262   2.861  19.645  0.00  0.00    +0.000 HD
ATOM     21  H   UNL     1       4.682   3.030  20.192  0.00  0.00    +0.000 HD
ENDBRANCH  11  19
BRANCH   1  22
ATOM     22  C   UNL     1       0.149  11.260  21.552  0.00  0.00    +0.000 C 
BRANCH  22  24
ATOM     23  C   UNL     1      -0.152   9.601  23.464  0.00  0.00    +0.000 C 
ATOM     24  C   UNL     1      -0.853  10.490  22.433  0.00  0.00    +0.000 C 
ATOM     25  C   UNL     1      -1.785  11.471  23.150  0.00  0.00    +0.000 C 
ENDBRANCH  22  24
ENDBRANCH   1  22
TORSDOF 3
ENDMDL
MODEL 4
REMARK VINA RESULT:      -7.0      1.770      7.489
REMARK  Name = 
REMARK  5 active torsions:
REMARK  status: ('A' for Active; 'I' for Inactive)
REMARK    1  A    between atoms: C_1  and  C_2
REMARK    2  A    between atoms: C_2  and  C_3
REMARK    3  A    between atoms: C_2  and  C_4
REMARK    4  A    between atoms: C_4  and  C_5
REMARK    5  A    between atoms: C_15  and  N_16
REMARK                            x       y       z     vdW  Elec       q    Type
REMARK                         _______ _______ _______ _____ _____    ______ ____
ROOT
ATOM      1  C   UNL     1       3.625   3.912  19.620  0.00  0.00    +0.000 A 
ATOM      2  N   UNL     1       3.982   5.201  19.852  0.00  0.00    +0.000 NA
ATOM      3  C   UNL     1       4.483   5.904  18.813  0.00  0.00    +0.000 A 
ATOM      4  C   UNL     1       4.639   5.347  17.578  0.00  0.00    +0.000 A 
ATOM      5  C   UNL     1       4.218   4.045  17.438  0.00  0.00    +0.000 A 
ATOM      6  N   UNL     1       3.704   3.294  18.425  0.00  0.00    +0.000 NA
ATOM      7  C   UNL     1       4.469   3.571  16.034  0.00  0.00    +0.000 C 
ATOM      8  N   UNL     1       5.095   4.741  15.391  0.00  0.00    +0.000 N 
ATOM      9  C   UNL     1       5.974   4.574  14.337  0.00  0.00    +0.000 A 
ATOM     10  C   UNL     1       5.780   3.556  13.422  0.00  0.00    +0.000 A 
ATOM     11  C   UNL     1       6.662   3.462  12.371  0.00  0.00    +0.000 A 
ATOM     12  N   UNL     1       7.701   4.278  12.233  0.00  0.00    +0.000 NA
ATOM     13  C   UNL     1       7.823   5.234  13.148  0.00  0.00    +0.000 A 
ATOM     14  N   UNL     1       8.933   6.058  13.037  0.00  0.00    +0.000 N 
ATOM     15  N   UNL     1       7.002   5.426  14.189  0.00  0.00    +0.000 NA
ATOM     16  C   UNL     1       5.223   5.877  16.317  0.00  0.00    +0.000 C 
ATOM     17  H   UNL     1       9.644   5.577  12.498  0.00  0.00    +0.000 HD
ATOM     18  H   UNL     1       9.204   6.384  13.955  0.00  0.00    +0.000 HD
ENDROOT
BRANCH  11  19
ATOM     19  N   UNL     1       6.510   2.453  11.416  0.00  0.00    +0.000 N 
ATOM     20  H   UNL     1       6.050   2.795  10.581  0.00  0.00    +0.000 HD
ATOM     21  H   UNL     1       7.439   2.089  11.211  0.00  0.00    +0.000 HD
ENDBRANCH  11  19
BRANCH   1  22
ATOM     22  C   UNL     1       3.157   3.095  20.801  0.00  0.00    +0.000 C 
BRANCH  22  24
ATOM     23  C   UNL     1       0.766   3.661  20.117  0.00  0.00    +0.000 C 
ATOM     24  C   UNL     1       1.742   3.469  21.282  0.00  0.00    +0.000 C 
ATOM     25  C   UNL     1       1.206   2.393  22.229  0.00  0.00    +0.000 C 
ENDBRANCH  22  24
ENDBRANCH   1  22
TORSDOF 3
ENDMDL
MODEL 5
REMARK VINA RESULT:      -6.9      4.010      8.990
REMARK  Name = 
REMARK  5 active torsions:
REMARK  status: ('A' for Active; 'I' for Inactive)
REMARK    1  A    between atoms: C_1  and  C_2
REMARK    2  A    between atoms: C_2  and  C_3
REMARK    3  A    between atoms: C_2  and  C_4
REMARK    4  A    between atoms: C_4  and  C_5
REMARK    5  A    between atoms: C_15  and  N_16
REMARK                            x       y       z     vdW  Elec       q    Type
REMARK                         _______ _______ _______ _____ _____    ______ ____
ROOT
ATOM      1  C   UNL     1       0.268  10.280  21.122  0.00  0.00    +0.000 A 
ATOM      2  N   UNL     1       0.249  10.979  19.958  0.00  0.00    +0.000 NA
ATOM      3  C   UNL     1       0.818  10.401  18.877  0.00  0.00    +0.000 A 
ATOM      4  C   UNL     1       1.400   9.170  18.944  0.00  0.00    +0.000 A 
ATOM      5  C   UNL     1       1.338   8.531  20.161  0.00  0.00    +0.000 A 
ATOM      6  N   UNL     1       0.782   9.043  21.270  0.00  0.00    +0.000 NA
ATOM      7  C   UNL     1       2.034   7.201  20.080  0.00  0.00    +0.000 C 
ATOM      8  N   UNL     1       2.514   7.157  18.686  0.00  0.00    +0.000 N 
ATOM      9  C   UNL     1       3.642   6.429  18.357  0.00  0.00    +0.000 A 
ATOM     10  C   UNL     1       3.922   5.243  19.009  0.00  0.00    +0.000 A 
ATOM     11  C   UNL     1       5.035   4.540  18.613  0.00  0.00    +0.000 A 
ATOM     12  N   UNL     1       5.860   4.978  17.667  0.00  0.00    +0.000 NA
ATOM     13  C   UNL     1       5.526   6.124  17.081  0.00  0.00    +0.000 A 
ATOM     14  N   UNL     1       6.408   6.610  16.128  0.00  0.00    +0.000 N 
ATOM     15  N   UNL     1       4.450   6.865  17.375  0.00  0.00    +0.000 NA
ATOM     16  C   UNL     1       2.142   8.367  17.936  0.00  0.00    +0.000 C 
ATOM     17  H   UNL     1       7.322   6.203  16.291  0.00  0.00    +0.000 HD
ATOM     18  H   UNL     1       6.359   7.619  16.107  0.00  0.00    +0.000 HD
ENDROOT
BRANCH  11  19
ATOM     19  N   UNL     1       5.363   3.334  19.238  0.00  0.00    +0.000 N 
ATOM     20  H   UNL     1       4.712   2.597  18.993  0.00  0.00    +0.000 HD
ATOM     21  H   UNL     1       6.316   3.101  18.964  0.00  0.00    +0.000 HD
ENDBRANCH  11  19
BRANCH   1  22
ATOM     22  C   UNL     1      -0.280  10.962  22.353  0.00  0.00    +0.000 C 
BRANCH  22  24
ATOM     23  C   UNL     1      -2.500  12.138  22.792  0.00  0.00    +0.000 C 
ATOM     24  C   UNL     1      -1.169  12.180  22.035  0.00  0.00    +0.000 C 
ATOM     25  C   UNL     1      -0.427  13.476  22.372  0.00  0.00    +0.000 C 
ENDBRANCH  22  24
ENDBRANCH   1  22
TORSDOF 3
ENDMDL
MODEL 6
REMARK VINA RESULT:      -6.8      4.235      8.222
REMARK  Name = 
REMARK  5 active torsions:
REMARK  status: ('A' for Active; 'I' for Inactive)
REMARK    1  A    between atoms: C_1  and  C_2
REMARK    2  A    between atoms: C_2  and  C_3
REMARK    3  A    between atoms: C_2  and  C_4
REMARK    4  A    between atoms: C_4  and  C_5
REMARK    5  A    between atoms: C_15  and  N_16
REMARK                            x       y       z     vdW  Elec       q    Type
REMARK                         _______ _______ _______ _____ _____    ______ ____
ROOT
ATOM      1  C   UNL     1      -0.540  11.023  18.933  0.00  0.00    +0.000 A 
ATOM      2  N   UNL     1      -0.871  11.002  20.249  0.00  0.00    +0.000 NA
ATOM      3  C   UNL     1      -0.270  10.074  21.026  0.00  0.00    +0.000 A 
ATOM      4  C   UNL     1       0.627   9.183  20.517  0.00  0.00    +0.000 A 
ATOM      5  C   UNL     1       0.918   9.308  19.179  0.00  0.00    +0.000 A 
ATOM      6  N   UNL     1       0.365  10.210  18.353  0.00  0.00    +0.000 NA
ATOM      7  C   UNL     1       1.904   8.251  18.765  0.00  0.00    +0.000 C 
ATOM      8  N   UNL     1       2.131   7.497  20.013  0.00  0.00    +0.000 N 
ATOM      9  C   UNL     1       2.487   6.163  19.969  0.00  0.00    +0.000 A 
ATOM     10  C   UNL     1       3.299   5.689  18.955  0.00  0.00    +0.000 A 
ATOM     11  C   UNL     1       3.654   4.361  18.984  0.00  0.00    +0.000 A 
ATOM     12  N   UNL     1       3.214   3.523  19.917  0.00  0.00    +0.000 NA
ATOM     13  C   UNL     1       2.440   4.048  20.862  0.00  0.00    +0.000 A 
ATOM     14  N   UNL     1       1.939   3.168  21.809  0.00  0.00    +0.000 N 
ATOM     15  N   UNL     1       2.064   5.332  20.936  0.00  0.00    +0.000 NA
ATOM     16  C   UNL     1       1.354   8.043  21.137  0.00  0.00    +0.000 C 
ATOM     17  H   UNL     1       1.953   2.230  21.424  0.00  0.00    +0.000 HD
ATOM     18  H   UNL     1       1.048   3.507  22.145  0.00  0.00    +0.000 HD
ENDROOT
BRANCH  11  19
ATOM     19  N   UNL     1       4.474   3.832  17.985  0.00  0.00    +0.000 N 
ATOM     20  H   UNL     1       4.365   2.828  17.904  0.00  0.00    +0.000 HD
ATOM     21  H   UNL     1       4.237   4.306  17.116  0.00  0.00    +0.000 HD
ENDBRANCH  11  19
BRANCH   1  22
ATOM     22  C   UNL     1      -1.282  11.993  18.043  0.00  0.00    +0.000 C 
BRANCH  22  24
ATOM     23  C   UNL     1      -2.490   9.923  17.172  0.00  0.00    +0.000 C 
ATOM     24  C   UNL     1      -2.594  11.421  17.473  0.00  0.00    +0.000 C 
ATOM     25  C   UNL     1      -3.745  11.670  18.451  0.00  0.00    +0.000 C 
ENDBRANCH  22  24
ENDBRANCH   1  22
TORSDOF 3
ENDMDL
MODEL 7
REMARK VINA RESULT:      -6.8      4.328      8.096
REMARK  Name = 
REMARK  5 active torsions:
REMARK  status: ('A' for Active; 'I' for Inactive)
REMARK    1  A    between atoms: C_1  and  C_2
REMARK    2  A    between atoms: C_2  and  C_3
REMARK    3  A    between atoms: C_2  and  C_4
REMARK    4  A    between atoms: C_4  and  C_5
REMARK    5  A    between atoms: C_15  and  N_16
REMARK                            x       y       z     vdW  Elec       q    Type
REMARK                         _______ _______ _______ _____ _____    ______ ____
ROOT
ATOM      1  C   UNL     1      -0.585  10.702  18.730  0.00  0.00    +0.000 A 
ATOM      2  N   UNL     1      -0.726  10.548  20.072  0.00  0.00    +0.000 NA
ATOM      3  C   UNL     1       0.069   9.640  20.680  0.00  0.00    +0.000 A 
ATOM      4  C   UNL     1       0.974   8.897  19.982  0.00  0.00    +0.000 A 
ATOM      5  C   UNL     1       1.063   9.151  18.634  0.00  0.00    +0.000 A 
ATOM      6  N   UNL     1       0.311  10.043  17.969  0.00  0.00    +0.000 NA
ATOM      7  C   UNL     1       2.085   8.247  18.006  0.00  0.00    +0.000 C 
ATOM      8  N   UNL     1       2.560   7.435  19.142  0.00  0.00    +0.000 N 
ATOM      9  C   UNL     1       3.042   6.156  18.936  0.00  0.00    +0.000 A 
ATOM     10  C   UNL     1       3.751   5.854  17.788  0.00  0.00    +0.000 A 
ATOM     11  C   UNL     1       4.241   4.576  17.655  0.00  0.00    +0.000 A 
ATOM     12  N   UNL     1       4.024   3.627  18.559  0.00  0.00    +0.000 NA
ATOM     13  C   UNL     1       3.337   3.991  19.639  0.00  0.00    +0.000 A 
ATOM     14  N   UNL     1       3.066   2.993  20.563  0.00  0.00    +0.000 N 
ATOM     15  N   UNL     1       2.845   5.214  19.874  0.00  0.00    +0.000 NA
ATOM     16  C   UNL     1       1.893   7.805  20.401  0.00  0.00    +0.000 C 
ATOM     17  H   UNL     1       3.123   2.093  20.099  0.00  0.00    +0.000 HD
ATOM     18  H   UNL     1       2.200   3.203  21.040  0.00  0.00    +0.000 HD
ENDROOT
BRANCH  11  19
ATOM     19  N   UNL     1       4.965   4.218  16.515  0.00  0.00    +0.000 N 
ATOM     20  H   UNL     1       5.757   3.629  16.745  0.00  0.00    +0.000 HD
ATOM     21  H   UNL     1       4.320   3.750  15.881  0.00  0.00    +0.000 HD
ENDBRANCH  11  19
BRANCH   1  22
ATOM     22  C   UNL     1      -1.538  11.644  18.033  0.00  0.00    +0.000 C 
BRANCH  22  24
ATOM     23  C   UNL     1      -4.085  11.579  17.930  0.00  0.00    +0.000 C 
ATOM     24  C   UNL     1      -2.778  10.939  17.450  0.00  0.00    +0.000 C 
ATOM     25  C   UNL     1      -2.726  10.962  15.920  0.00  0.00    +0.000 C 
ENDBRANCH  22  24
ENDBRANCH   1  22
TORSDOF 3
ENDMDL
MODEL 8
REMARK VINA RESULT:      -6.6      3.449      8.039
REMARK  Name = 
REMARK  5 active torsions:
REMARK  status: ('A' for Active; 'I' for Inactive)
REMARK    1  A    between atoms: C_1  and  C_2
REMARK    2  A    between atoms: C_2  and  C_3
REMARK    3  A    between atoms: C_2  and  C_4
REMARK    4  A    between atoms: C_4  and  C_5
REMARK    5  A    between atoms: C_15  and  N_16
REMARK                            x       y       z     vdW  Elec       q    Type
REMARK                         _______ _______ _______ _____ _____    ______ ____
ROOT
ATOM      1  C   UNL     1       0.268   9.641  19.905  0.00  0.00    +0.000 A 
ATOM      2  N   UNL     1       0.181   8.838  20.996  0.00  0.00    +0.000 NA
ATOM      3  C   UNL     1       1.026   7.786  21.062  0.00  0.00    +0.000 A 
ATOM      4  C   UNL     1       1.928   7.526  20.073  0.00  0.00    +0.000 A 
ATOM      5  C   UNL     1       1.959   8.417  19.027  0.00  0.00    +0.000 A 
ATOM      6  N   UNL     1       1.156   9.486  18.903  0.00  0.00    +0.000 NA
ATOM      7  C   UNL     1       2.986   7.989  18.016  0.00  0.00    +0.000 C 
ATOM      8  N   UNL     1       3.527   6.744  18.593  0.00  0.00    +0.000 N 
ATOM      9  C   UNL     1       4.042   5.758  17.773  0.00  0.00    +0.000 A 
ATOM     10  C   UNL     1       4.717   6.095  16.615  0.00  0.00    +0.000 A 
ATOM     11  C   UNL     1       5.241   5.074  15.858  0.00  0.00    +0.000 A 
ATOM     12  N   UNL     1       5.088   3.793  16.178  0.00  0.00    +0.000 NA
ATOM     13  C   UNL     1       4.431   3.544  17.307  0.00  0.00    +0.000 A 
ATOM     14  N   UNL     1       4.225   2.209  17.620  0.00  0.00    +0.000 N 
ATOM     15  N   UNL     1       3.909   4.468  18.125  0.00  0.00    +0.000 NA
ATOM     16  C   UNL     1       2.896   6.413  19.881  0.00  0.00    +0.000 C 
ATOM     17  H   UNL     1       4.293   1.660  16.770  0.00  0.00    +0.000 HD
ATOM     18  H   UNL     1       3.370   2.116  18.152  0.00  0.00    +0.000 HD
ENDROOT
BRANCH  11  19
ATOM     19  N   UNL     1       5.935   5.359  14.679  0.00  0.00    +0.000 N 
ATOM     20  H   UNL     1       5.345   5.831  14.004  0.00  0.00    +0.000 HD
ATOM     21  H   UNL     1       6.742   5.925  14.932  0.00  0.00    +0.000 HD
ENDBRANCH  11  19
BRANCH   1  22
ATOM     22  C   UNL     1      -0.739  10.760  19.781  0.00  0.00    +0.000 C 
BRANCH  22  24
ATOM     23  C   UNL     1      -2.383  10.538  17.844  0.00  0.00    +0.000 C 
ATOM     24  C   UNL     1      -1.058  11.138  18.322  0.00  0.00    +0.000 C 
ATOM     25  C   UNL     1      -1.100  12.661  18.171  0.00  0.00    +0.000 C 
ENDBRANCH  22  24
ENDBRANCH   1  22
TORSDOF 3
ENDMDL
MODEL 9
REMARK VINA RESULT:      -6.6      3.404      5.688
REMARK  Name = 
REMARK  5 active torsions:
REMARK  status: ('A' for Active; 'I' for Inactive)
REMARK    1  A    between atoms: C_1  and  C_2
REMARK    2  A    between atoms: C_2  and  C_3
REMARK    3  A    between atoms: C_2  and  C_4
REMARK    4  A    between atoms: C_4  and  C_5
REMARK    5  A    between atoms: C_15  and  N_16
REMARK                            x       y       z     vdW  Elec       q    Type
REMARK                         _______ _______ _______ _____ _____    ______ ____
ROOT
ATOM      1  C   UNL     1       5.046   4.969  18.236  0.00  0.00    +0.000 A 
ATOM      2  N   UNL     1       4.587   4.052  19.125  0.00  0.00    +0.000 NA
ATOM      3  C   UNL     1       3.502   4.386  19.857  0.00  0.00    +0.000 A 
ATOM      4  C   UNL     1       2.891   5.598  19.725  0.00  0.00    +0.000 A 
ATOM      5  C   UNL     1       3.414   6.443  18.775  0.00  0.00    +0.000 A 
ATOM      6  N   UNL     1       4.482   6.172  18.008  0.00  0.00    +0.000 NA
ATOM      7  C   UNL     1       2.648   7.737  18.761  0.00  0.00    +0.000 C 
ATOM      8  N   UNL     1       1.640   7.543  19.820  0.00  0.00    +0.000 N 
ATOM      9  C   UNL     1       1.134   8.626  20.512  0.00  0.00    +0.000 A 
ATOM     10  C   UNL     1       0.946   9.837  19.872  0.00  0.00    +0.000 A 
ATOM     11  C   UNL     1       0.402  10.869  20.599  0.00  0.00    +0.000 A 
ATOM     12  N   UNL     1       0.095  10.755  21.887  0.00  0.00    +0.000 NA
ATOM     13  C   UNL     1       0.300   9.561  22.436  0.00  0.00    +0.000 A 
ATOM     14  N   UNL     1       0.027   9.449  23.791  0.00  0.00    +0.000 N 
ATOM     15  N   UNL     1       0.796   8.488  21.805  0.00  0.00    +0.000 NA
ATOM     16  C   UNL     1       1.752   6.218  20.452  0.00  0.00    +0.000 C 
ATOM     17  H   UNL     1       0.060  10.373  24.208  0.00  0.00    +0.000 HD
ATOM     18  H   UNL     1       0.629   8.747  24.198  0.00  0.00    +0.000 HD
ENDROOT
BRANCH  11  19
ATOM     19  N   UNL     1       0.189  12.114  20.000  0.00  0.00    +0.000 N 
ATOM     20  H   UNL     1       0.853  12.289  19.255  0.00  0.00    +0.000 HD
ATOM     21  H   UNL     1      -0.770  12.125  19.659  0.00  0.00    +0.000 HD
ENDBRANCH  11  19
BRANCH   1  22
ATOM     22  C   UNL     1       6.315   4.639  17.486  0.00  0.00    +0.000 C 
BRANCH  22  24
ATOM     23  C   UNL     1       7.458   6.908  17.272  0.00  0.00    +0.000 C 
ATOM     24  C   UNL     1       7.516   5.511  17.898  0.00  0.00    +0.000 C 
ATOM     25  C   UNL     1       7.579   5.634  19.423  0.00  0.00    +0.000 C 
ENDBRANCH  22  24
ENDBRANCH   1  22
TORSDOF 3
ENDMDL
