MODEL 1
REMARK VINA RESULT:      -9.7      0.000      0.000
REMARK  Name = 
REMARK  6 active torsions:
REMARK  status: ('A' for Active; 'I' for Inactive)
REMARK    1  A    between atoms: C_1  and  C_2
REMARK    2  A    between atoms: C_4  and  C_5
REMARK    3  A    between atoms: C_10  and  N_11
REMARK    4  A    between atoms: C_12  and  C_14
REMARK    5  A    between atoms: C_19  and  C_20
REMARK    6  A    between atoms: C_30  and  N_31
REMARK                            x       y       z     vdW  Elec       q    Type
REMARK                         _______ _______ _______ _____ _____    ______ ____
ROOT
ATOM      1  N   UNL     1       2.028   6.008  18.393  0.00  0.00    +0.000 N 
ATOM      2  C   UNL     1       1.961   6.828  19.515  0.00  0.00    +0.000 C 
ATOM      3  O   UNL     1       2.104   6.478  20.678  0.00  0.00    +0.000 OA
ATOM      4  H   UNL     1       1.997   6.499  17.504  0.00  0.00    +0.000 HD
ENDROOT
BRANCH   2   5
ATOM      5  C   UNL     1       1.738   8.281  19.233  0.00  0.00    +0.000 A 
ATOM      6  C   UNL     1       2.388   8.881  18.158  0.00  0.00    +0.000 A 
ATOM      7  C   UNL     1       2.132  10.220  17.901  0.00  0.00    +0.000 A 
ATOM      8  C   UNL     1       1.235  10.906  18.713  0.00  0.00    +0.000 A 
ATOM      9  F   UNL     1       0.951  12.178  18.401  0.00  0.00    +0.000 F 
ATOM     10  C   UNL     1       0.624  10.252  19.790  0.00  0.00    +0.000 A 
ATOM     11  N   UNL     1       0.880   8.936  20.056  0.00  0.00    +0.000 NA
BRANCH  10  12
ATOM     12  C   UNL     1      -0.350  10.882  20.698  0.00  0.00    +0.000 A 
ATOM     13  C   UNL     1      -0.222  10.761  22.093  0.00  0.00    +0.000 A 
ATOM     14  F   UNL     1       0.779  10.044  22.632  0.00  0.00    +0.000 F 
ATOM     15  C   UNL     1      -1.115  11.362  22.981  0.00  0.00    +0.000 A 
ATOM     16  C   UNL     1      -2.185  12.103  22.496  0.00  0.00    +0.000 A 
ATOM     17  C   UNL     1      -2.344  12.247  21.121  0.00  0.00    +0.000 A 
ATOM     18  C   UNL     1      -1.431  11.652  20.244  0.00  0.00    +0.000 A 
ATOM     19  F   UNL     1      -1.608  11.885  18.935  0.00  0.00    +0.000 F 
ENDBRANCH  10  12
ENDBRANCH   2   5
BRANCH   1  25
ATOM     20  C   UNL     1       3.431   3.979  18.150  0.00  0.00    +0.000 A 
ATOM     21  C   UNL     1       3.483   2.569  18.150  0.00  0.00    +0.000 A 
ATOM     22  C   UNL     1       2.344   1.834  18.441  0.00  0.00    +0.000 A 
ATOM     23  N   UNL     1       1.153   2.389  18.697  0.00  0.00    +0.000 NA
ATOM     24  C   UNL     1       1.100   3.743  18.670  0.00  0.00    +0.000 A 
ATOM     25  C   UNL     1       2.185   4.595  18.409  0.00  0.00    +0.000 A 
BRANCH  20  29
ATOM     26  C   UNL     1       7.350   4.969  15.073  0.00  0.00    +0.000 C 
ATOM     27  C   UNL     1       6.633   5.329  16.372  0.00  0.00    +0.000 C 
ATOM     28  C   UNL     1       5.419   4.409  16.609  0.00  0.00    +0.000 C 
ATOM     29  C   UNL     1       4.719   4.766  17.934  0.00  0.00    +0.000 C 
ATOM     30  C   UNL     1       5.724   4.640  19.102  0.00  0.00    +0.000 C 
ATOM     31  C   UNL     1       6.887   5.621  18.890  0.00  0.00    +0.000 C 
ATOM     32  C   UNL     1       7.605   5.297  17.563  0.00  0.00    +0.000 C 
ATOM     33  F   UNL     1       8.138   4.041  17.653  0.00  0.00    +0.000 F 
BRANCH  31  34
ATOM     34  N   UNL     1       7.806   5.581  20.036  0.00  0.00    +0.000 NA
ATOM     35  H   UNL     1       7.365   5.064  20.798  0.00  0.00    +0.000 HD
ATOM     36  H   UNL     1       7.965   6.526  20.386  0.00  0.00    +0.000 HD
ENDBRANCH  31  34
ENDBRANCH  20  29
ENDBRANCH   1  25
TORSDOF 5
ENDMDL
MODEL 2
REMARK VINA RESULT:      -9.6      2.468      4.151
REMARK  Name = 
REMARK  6 active torsions:
REMARK  status: ('A' for Active; 'I' for Inactive)
REMARK    1  A    between atoms: C_1  and  C_2
REMARK    2  A    between atoms: C_4  and  C_5
REMARK    3  A    between atoms: C_10  and  N_11
REMARK    4  A    between atoms: C_12  and  C_14
REMARK    5  A    between atoms: C_19  and  C_20
REMARK    6  A    between atoms: C_30  and  N_31
REMARK                            x       y       z     vdW  Elec       q    Type
REMARK                         _______ _______ _______ _____ _____    ______ ____
ROOT
ATOM      1  N   UNL     1       3.625   6.316  17.881  0.00  0.00    +0.000 N 
ATOM      2  C   UNL     1       2.958   7.533  17.780  0.00  0.00    +0.000 C 
ATOM      3  O   UNL     1       2.947   8.275  16.807  0.00  0.00    +0.000 OA
ATOM      4  H   UNL     1       3.423   5.789  18.725  0.00  0.00    +0.000 HD
ENDROOT
BRANCH   2   5
ATOM      5  C   UNL     1       2.146   7.919  18.976  0.00  0.00    +0.000 A 
ATOM      6  C   UNL     1       2.138   7.094  20.098  0.00  0.00    +0.000 A 
ATOM      7  C   UNL     1       1.405   7.498  21.204  0.00  0.00    +0.000 A 
ATOM      8  C   UNL     1       0.718   8.707  21.157  0.00  0.00    +0.000 A 
ATOM      9  F   UNL     1       0.076   9.108  22.262  0.00  0.00    +0.000 F 
ATOM     10  C   UNL     1       0.750   9.485  19.994  0.00  0.00    +0.000 A 
ATOM     11  N   UNL     1       1.462   9.088  18.896  0.00  0.00    +0.000 NA
BRANCH  10  12
ATOM     12  C   UNL     1       0.072  10.784  19.847  0.00  0.00    +0.000 A 
ATOM     13  C   UNL     1      -1.175  10.881  19.205  0.00  0.00    +0.000 A 
ATOM     14  F   UNL     1      -1.768   9.791  18.686  0.00  0.00    +0.000 F 
ATOM     15  C   UNL     1      -1.855  12.092  19.067  0.00  0.00    +0.000 A 
ATOM     16  C   UNL     1      -1.295  13.263  19.563  0.00  0.00    +0.000 A 
ATOM     17  C   UNL     1      -0.062  13.207  20.206  0.00  0.00    +0.000 A 
ATOM     18  C   UNL     1       0.598  11.983  20.351  0.00  0.00    +0.000 A 
ATOM     19  F   UNL     1       1.751  11.993  21.037  0.00  0.00    +0.000 F 
ENDBRANCH  10  12
ENDBRANCH   2   5
BRANCH   1  25
ATOM     20  C   UNL     1       4.772   4.378  16.845  0.00  0.00    +0.000 A 
ATOM     21  C   UNL     1       5.674   3.926  15.859  0.00  0.00    +0.000 A 
ATOM     22  C   UNL     1       6.221   4.824  14.955  0.00  0.00    +0.000 A 
ATOM     23  N   UNL     1       5.970   6.138  14.977  0.00  0.00    +0.000 NA
ATOM     24  C   UNL     1       5.124   6.575  15.942  0.00  0.00    +0.000 A 
ATOM     25  C   UNL     1       4.492   5.764  16.899  0.00  0.00    +0.000 A 
BRANCH  20  29
ATOM     26  C   UNL     1       0.431   2.685  18.867  0.00  0.00    +0.000 C 
ATOM     27  C   UNL     1       1.933   2.453  18.706  0.00  0.00    +0.000 C 
ATOM     28  C   UNL     1       2.584   3.589  17.892  0.00  0.00    +0.000 C 
ATOM     29  C   UNL     1       4.101   3.358  17.757  0.00  0.00    +0.000 C 
ATOM     30  C   UNL     1       4.740   3.270  19.162  0.00  0.00    +0.000 C 
ATOM     31  C   UNL     1       4.136   2.084  19.930  0.00  0.00    +0.000 C 
ATOM     32  C   UNL     1       2.612   2.280  20.074  0.00  0.00    +0.000 C 
ATOM     33  F   UNL     1       2.386   3.406  20.816  0.00  0.00    +0.000 F 
BRANCH  31  34
ATOM     34  N   UNL     1       4.795   1.928  21.233  0.00  0.00    +0.000 NA
ATOM     35  H   UNL     1       5.242   1.010  21.273  0.00  0.00    +0.000 HD
ATOM     36  H   UNL     1       4.099   1.939  21.978  0.00  0.00    +0.000 HD
ENDBRANCH  31  34
ENDBRANCH  20  29
ENDBRANCH   1  25
TORSDOF 5
ENDMDL
MODEL 3
REMARK VINA RESULT:      -9.5      2.458      3.997
REMARK  Name = 
REMARK  6 active torsions:
REMARK  status: ('A' for Active; 'I' for Inactive)
REMARK    1  A    between atoms: C_1  and  C_2
REMARK    2  A    between atoms: C_4  and  C_5
REMARK    3  A    between atoms: C_10  and  N_11
REMARK    4  A    between atoms: C_12  and  C_14
REMARK    5  A    between atoms: C_19  and  C_20
REMARK    6  A    between atoms: C_30  and  N_31
REMARK                            x       y       z     vdW  Elec       q    Type
REMARK                         _______ _______ _______ _____ _____    ______ ____
ROOT
ATOM      1  N   UNL     1       3.576   6.342  17.926  0.00  0.00    +0.000 N 
ATOM      2  C   UNL     1       2.929   7.571  17.839  0.00  0.00    +0.000 C 
ATOM      3  O   UNL     1       2.949   8.333  16.882  0.00  0.00    +0.000 OA
ATOM      4  H   UNL     1       3.349   5.800  18.755  0.00  0.00    +0.000 HD
ENDROOT
BRANCH   2   5
ATOM      5  C   UNL     1       2.100   7.944  19.027  0.00  0.00    +0.000 A 
ATOM      6  C   UNL     1       2.091   7.117  20.147  0.00  0.00    +0.000 A 
ATOM      7  C   UNL     1       1.342   7.510  21.246  0.00  0.00    +0.000 A 
ATOM      8  C   UNL     1       0.641   8.710  21.196  0.00  0.00    +0.000 A 
ATOM      9  F   UNL     1      -0.017   9.101  22.295  0.00  0.00    +0.000 F 
ATOM     10  C   UNL     1       0.676   9.492  20.034  0.00  0.00    +0.000 A 
ATOM     11  N   UNL     1       1.403   9.105  18.943  0.00  0.00    +0.000 NA
BRANCH  10  12
ATOM     12  C   UNL     1      -0.016  10.783  19.883  0.00  0.00    +0.000 A 
ATOM     13  C   UNL     1       0.548  11.969  20.383  0.00  0.00    +0.000 A 
ATOM     14  F   UNL     1       1.724  11.950  21.035  0.00  0.00    +0.000 F 
ATOM     15  C   UNL     1      -0.070  13.212  20.238  0.00  0.00    +0.000 A 
ATOM     16  C   UNL     1      -1.296  13.306  19.591  0.00  0.00    +0.000 A 
ATOM     17  C   UNL     1      -1.886  12.154  19.081  0.00  0.00    +0.000 A 
ATOM     18  C   UNL     1      -1.245  10.918  19.219  0.00  0.00    +0.000 A 
ATOM     19  F   UNL     1      -1.839   9.860  18.649  0.00  0.00    +0.000 F 
ENDBRANCH  10  12
ENDBRANCH   2   5
BRANCH   1  25
ATOM     20  C   UNL     1       4.749   4.415  16.900  0.00  0.00    +0.000 A 
ATOM     21  C   UNL     1       5.660   3.970  15.919  0.00  0.00    +0.000 A 
ATOM     22  C   UNL     1       6.200   4.871  15.015  0.00  0.00    +0.000 A 
ATOM     23  N   UNL     1       5.933   6.183  15.032  0.00  0.00    +0.000 NA
ATOM     24  C   UNL     1       5.079   6.612  15.993  0.00  0.00    +0.000 A 
ATOM     25  C   UNL     1       4.453   5.797  16.949  0.00  0.00    +0.000 A 
BRANCH  20  29
ATOM     26  C   UNL     1       0.440   2.761  19.021  0.00  0.00    +0.000 C 
ATOM     27  C   UNL     1       1.931   2.506  18.809  0.00  0.00    +0.000 C 
ATOM     28  C   UNL     1       2.579   3.645  17.998  0.00  0.00    +0.000 C 
ATOM     29  C   UNL     1       4.086   3.389  17.813  0.00  0.00    +0.000 C 
ATOM     30  C   UNL     1       4.765   3.263  19.196  0.00  0.00    +0.000 C 
ATOM     31  C   UNL     1       4.162   2.073  19.960  0.00  0.00    +0.000 C 
ATOM     32  C   UNL     1       2.647   2.294  20.153  0.00  0.00    +0.000 C 
ATOM     33  F   UNL     1       2.465   3.409  20.922  0.00  0.00    +0.000 F 
BRANCH  31  34
ATOM     34  N   UNL     1       4.857   1.880  21.239  0.00  0.00    +0.000 NA
ATOM     35  H   UNL     1       5.376   2.730  21.468  0.00  0.00    +0.000 HD
ATOM     36  H   UNL     1       5.551   1.138  21.148  0.00  0.00    +0.000 HD
ENDBRANCH  31  34
ENDBRANCH  20  29
ENDBRANCH   1  25
TORSDOF 5
ENDMDL
MODEL 4
REMARK VINA RESULT:      -9.4      0.666      1.607
REMARK  Name = 
REMARK  6 active torsions:
REMARK  status: ('A' for Active; 'I' for Inactive)
REMARK    1  A    between atoms: C_1  and  C_2
REMARK    2  A    between atoms: C_4  and  C_5
REMARK    3  A    between atoms: C_10  and  N_11
REMARK    4  A    between atoms: C_12  and  C_14
REMARK    5  A    between atoms: C_19  and  C_20
REMARK    6  A    between atoms: C_30  and  N_31
REMARK                            x       y       z     vdW  Elec       q    Type
REMARK                         _______ _______ _______ _____ _____    ______ ____
ROOT
ATOM      1  N   UNL     1       2.076   6.087  18.552  0.00  0.00    +0.000 N 
ATOM      2  C   UNL     1       1.828   6.904  19.651  0.00  0.00    +0.000 C 
ATOM      3  O   UNL     1       1.799   6.553  20.822  0.00  0.00    +0.000 OA
ATOM      4  H   UNL     1       2.172   6.580  17.669  0.00  0.00    +0.000 HD
ENDROOT
BRANCH   2   5
ATOM      5  C   UNL     1       1.629   8.354  19.339  0.00  0.00    +0.000 A 
ATOM      6  C   UNL     1       2.294   8.922  18.256  0.00  0.00    +0.000 A 
ATOM      7  C   UNL     1       2.060  10.259  17.970  0.00  0.00    +0.000 A 
ATOM      8  C   UNL     1       1.169  10.976  18.763  0.00  0.00    +0.000 A 
ATOM      9  F   UNL     1       0.907  12.245  18.424  0.00  0.00    +0.000 F 
ATOM     10  C   UNL     1       0.543  10.353  19.849  0.00  0.00    +0.000 A 
ATOM     11  N   UNL     1       0.777   9.038  20.143  0.00  0.00    +0.000 NA
BRANCH  10  12
ATOM     12  C   UNL     1      -0.426  11.016  20.739  0.00  0.00    +0.000 A 
ATOM     13  C   UNL     1      -1.518  11.729  20.216  0.00  0.00    +0.000 A 
ATOM     14  F   UNL     1      -1.691  11.845  18.888  0.00  0.00    +0.000 F 
ATOM     15  C   UNL     1      -2.466  12.351  21.030  0.00  0.00    +0.000 A 
ATOM     16  C   UNL     1      -2.342  12.288  22.412  0.00  0.00    +0.000 A 
ATOM     17  C   UNL     1      -1.274  11.590  22.968  0.00  0.00    +0.000 A 
ATOM     18  C   UNL     1      -0.342  10.958  22.138  0.00  0.00    +0.000 A 
ATOM     19  F   UNL     1       0.624  10.251  22.741  0.00  0.00    +0.000 F 
ENDBRANCH  10  12
ENDBRANCH   2   5
BRANCH   1  25
ATOM     20  C   UNL     1       3.339   4.039  17.955  0.00  0.00    +0.000 A 
ATOM     21  C   UNL     1       3.408   2.632  18.016  0.00  0.00    +0.000 A 
ATOM     22  C   UNL     1       2.448   1.921  18.719  0.00  0.00    +0.000 A 
ATOM     23  N   UNL     1       1.409   2.496  19.337  0.00  0.00    +0.000 NA
ATOM     24  C   UNL     1       1.330   3.846  19.255  0.00  0.00    +0.000 A 
ATOM     25  C   UNL     1       2.248   4.676  18.592  0.00  0.00    +0.000 A 
BRANCH  20  29
ATOM     26  C   UNL     1       6.564   4.260  14.036  0.00  0.00    +0.000 C 
ATOM     27  C   UNL     1       6.019   4.970  15.274  0.00  0.00    +0.000 C 
ATOM     28  C   UNL     1       4.987   4.091  16.008  0.00  0.00    +0.000 C 
ATOM     29  C   UNL     1       4.464   4.806  17.268  0.00  0.00    +0.000 C 
ATOM     30  C   UNL     1       5.647   5.140  18.205  0.00  0.00    +0.000 C 
ATOM     31  C   UNL     1       6.625   6.081  17.485  0.00  0.00    +0.000 C 
ATOM     32  C   UNL     1       7.161   5.397  16.210  0.00  0.00    +0.000 C 
ATOM     33  F   UNL     1       7.861   4.281  16.577  0.00  0.00    +0.000 F 
BRANCH  31  34
ATOM     34  N   UNL     1       7.709   6.483  18.391  0.00  0.00    +0.000 NA
ATOM     35  H   UNL     1       7.548   6.065  19.309  0.00  0.00    +0.000 HD
ATOM     36  H   UNL     1       7.689   7.493  18.530  0.00  0.00    +0.000 HD
ENDBRANCH  31  34
ENDBRANCH  20  29
ENDBRANCH   1  25
TORSDOF 5
ENDMDL
MODEL 5
REMARK VINA RESULT:      -9.4      1.357      1.363
REMARK  Name = 
REMARK  6 active torsions:
REMARK  status: ('A' for Active; 'I' for Inactive)
REMARK    1  A    between atoms: C_1  and  C_2
REMARK    2  A    between atoms: C_4  and  C_5
REMARK    3  A    between atoms: C_10  and  N_11
REMARK    4  A    between atoms: C_12  and  C_14
REMARK    5  A    between atoms: C_19  and  C_20
REMARK    6  A    between atoms: C_30  and  N_31
REMARK                            x       y       z     vdW  Elec       q    Type
REMARK                         _______ _______ _______ _____ _____    ______ ____
ROOT
ATOM      1  N   UNL     1       2.537   6.274  20.111  0.00  0.00    +0.000 N 
ATOM      2  C   UNL     1       2.074   6.776  18.898  0.00  0.00    +0.000 C 
ATOM      3  O   UNL     1       1.781   6.119  17.909  0.00  0.00    +0.000 OA
ATOM      4  H   UNL     1       2.618   6.964  20.853  0.00  0.00    +0.000 HD
ENDROOT
BRANCH   2   5
ATOM      5  C   UNL     1       1.883   8.259  18.850  0.00  0.00    +0.000 A 
ATOM      6  C   UNL     1       2.517   9.002  17.857  0.00  0.00    +0.000 A 
ATOM      7  C   UNL     1       2.290  10.370  17.817  0.00  0.00    +0.000 A 
ATOM      8  C   UNL     1       1.437  10.944  18.753  0.00  0.00    +0.000 A 
ATOM      9  F   UNL     1       1.179  12.254  18.649  0.00  0.00    +0.000 F 
ATOM     10  C   UNL     1       0.842  10.146  19.739  0.00  0.00    +0.000 A 
ATOM     11  N   UNL     1       1.069   8.799  19.791  0.00  0.00    +0.000 NA
BRANCH  10  12
ATOM     12  C   UNL     1      -0.086  10.651  20.765  0.00  0.00    +0.000 A 
ATOM     13  C   UNL     1       0.092  10.331  22.122  0.00  0.00    +0.000 A 
ATOM     14  F   UNL     1       1.101   9.534  22.514  0.00  0.00    +0.000 F 
ATOM     15  C   UNL     1      -0.755  10.810  23.122  0.00  0.00    +0.000 A 
ATOM     16  C   UNL     1      -1.831  11.624  22.790  0.00  0.00    +0.000 A 
ATOM     17  C   UNL     1      -2.039  11.964  21.456  0.00  0.00    +0.000 A 
ATOM     18  C   UNL     1      -1.171  11.490  20.468  0.00  0.00    +0.000 A 
ATOM     19  F   UNL     1      -1.393  11.909  19.214  0.00  0.00    +0.000 F 
ENDBRANCH  10  12
ENDBRANCH   2   5
BRANCH   1  25
ATOM     20  C   UNL     1       3.869   4.225  19.698  0.00  0.00    +0.000 A 
ATOM     21  C   UNL     1       4.072   2.864  20.007  0.00  0.00    +0.000 A 
ATOM     22  C   UNL     1       3.302   2.253  20.985  0.00  0.00    +0.000 A 
ATOM     23  N   UNL     1       2.326   2.879  21.654  0.00  0.00    +0.000 NA
ATOM     24  C   UNL     1       2.115   4.179  21.337  0.00  0.00    +0.000 A 
ATOM     25  C   UNL     1       2.839   4.912  20.383  0.00  0.00    +0.000 A 
BRANCH  20  29
ATOM     26  C   UNL     1       6.090   4.016  15.134  0.00  0.00    +0.000 C 
ATOM     27  C   UNL     1       5.845   4.850  16.391  0.00  0.00    +0.000 C 
ATOM     28  C   UNL     1       5.017   4.062  17.426  0.00  0.00    +0.000 C 
ATOM     29  C   UNL     1       4.798   4.903  18.697  0.00  0.00    +0.000 C 
ATOM     30  C   UNL     1       6.165   5.303  19.297  0.00  0.00    +0.000 C 
ATOM     31  C   UNL     1       6.944   6.155  18.282  0.00  0.00    +0.000 C 
ATOM     32  C   UNL     1       7.171   5.343  16.989  0.00  0.00    +0.000 C 
ATOM     33  F   UNL     1       7.943   4.255  17.289  0.00  0.00    +0.000 F 
BRANCH  31  34
ATOM     34  N   UNL     1       8.208   6.622  18.868  0.00  0.00    +0.000 NA
ATOM     35  H   UNL     1       8.009   7.369  19.535  0.00  0.00    +0.000 HD
ATOM     36  H   UNL     1       8.794   7.035  18.143  0.00  0.00    +0.000 HD
ENDBRANCH  31  34
ENDBRANCH  20  29
ENDBRANCH   1  25
TORSDOF 5
ENDMDL
MODEL 6
REMARK VINA RESULT:      -9.4      1.350      1.973
REMARK  Name = 
REMARK  6 active torsions:
REMARK  status: ('A' for Active; 'I' for Inactive)
REMARK    1  A    between atoms: C_1  and  C_2
REMARK    2  A    between atoms: C_4  and  C_5
REMARK    3  A    between atoms: C_10  and  N_11
REMARK    4  A    between atoms: C_12  and  C_14
REMARK    5  A    between atoms: C_19  and  C_20
REMARK    6  A    between atoms: C_30  and  N_31
REMARK                            x       y       z     vdW  Elec       q    Type
REMARK                         _______ _______ _______ _____ _____    ______ ____
ROOT
ATOM      1  N   UNL     1       2.554   6.275  20.090  0.00  0.00    +0.000 N 
ATOM      2  C   UNL     1       2.090   6.777  18.877  0.00  0.00    +0.000 C 
ATOM      3  O   UNL     1       1.794   6.122  17.888  0.00  0.00    +0.000 OA
ATOM      4  H   UNL     1       2.637   6.964  20.832  0.00  0.00    +0.000 HD
ENDROOT
BRANCH   2   5
ATOM      5  C   UNL     1       1.901   8.261  18.829  0.00  0.00    +0.000 A 
ATOM      6  C   UNL     1       2.523   9.002  17.828  0.00  0.00    +0.000 A 
ATOM      7  C   UNL     1       2.298  10.370  17.789  0.00  0.00    +0.000 A 
ATOM      8  C   UNL     1       1.459  10.947  18.736  0.00  0.00    +0.000 A 
ATOM      9  F   UNL     1       1.202  12.257  18.634  0.00  0.00    +0.000 F 
ATOM     10  C   UNL     1       0.875  10.151  19.730  0.00  0.00    +0.000 A 
ATOM     11  N   UNL     1       1.101   8.804  19.781  0.00  0.00    +0.000 NA
BRANCH  10  12
ATOM     12  C   UNL     1      -0.038  10.659  20.768  0.00  0.00    +0.000 A 
ATOM     13  C   UNL     1      -1.135  11.471  20.432  0.00  0.00    +0.000 A 
ATOM     14  F   UNL     1      -1.362  11.826  19.155  0.00  0.00    +0.000 F 
ATOM     15  C   UNL     1      -2.032  11.952  21.387  0.00  0.00    +0.000 A 
ATOM     16  C   UNL     1      -1.849  11.641  22.729  0.00  0.00    +0.000 A 
ATOM     17  C   UNL     1      -0.775  10.838  23.101  0.00  0.00    +0.000 A 
ATOM     18  C   UNL     1       0.104  10.350  22.129  0.00  0.00    +0.000 A 
ATOM     19  F   UNL     1       1.079   9.531  22.550  0.00  0.00    +0.000 F 
ENDBRANCH  10  12
ENDBRANCH   2   5
BRANCH   1  25
ATOM     20  C   UNL     1       3.887   4.226  19.680  0.00  0.00    +0.000 A 
ATOM     21  C   UNL     1       4.088   2.864  19.987  0.00  0.00    +0.000 A 
ATOM     22  C   UNL     1       3.313   2.251  20.960  0.00  0.00    +0.000 A 
ATOM     23  N   UNL     1       2.334   2.876  21.625  0.00  0.00    +0.000 NA
ATOM     24  C   UNL     1       2.125   4.178  21.309  0.00  0.00    +0.000 A 
ATOM     25  C   UNL     1       2.854   4.912  20.360  0.00  0.00    +0.000 A 
BRANCH  20  29
ATOM     26  C   UNL     1       6.118   4.032  15.120  0.00  0.00    +0.000 C 
ATOM     27  C   UNL     1       5.874   4.860  16.381  0.00  0.00    +0.000 C 
ATOM     28  C   UNL     1       5.040   4.070  17.409  0.00  0.00    +0.000 C 
ATOM     29  C   UNL     1       4.821   4.905  18.685  0.00  0.00    +0.000 C 
ATOM     30  C   UNL     1       6.189   5.297  19.290  0.00  0.00    +0.000 C 
ATOM     31  C   UNL     1       6.974   6.151  18.281  0.00  0.00    +0.000 C 
ATOM     32  C   UNL     1       7.201   5.345  16.985  0.00  0.00    +0.000 C 
ATOM     33  F   UNL     1       7.968   4.253  17.281  0.00  0.00    +0.000 F 
BRANCH  31  34
ATOM     34  N   UNL     1       8.237   6.609  18.873  0.00  0.00    +0.000 NA
ATOM     35  H   UNL     1       9.016   6.188  18.363  0.00  0.00    +0.000 HD
ATOM     36  H   UNL     1       8.312   6.276  19.834  0.00  0.00    +0.000 HD
ENDBRANCH  31  34
ENDBRANCH  20  29
ENDBRANCH   1  25
TORSDOF 5
ENDMDL
MODEL 7
REMARK VINA RESULT:      -9.1      0.853      1.281
REMARK  Name = 
REMARK  6 active torsions:
REMARK  status: ('A' for Active; 'I' for Inactive)
REMARK    1  A    between atoms: C_1  and  C_2
REMARK    2  A    between atoms: C_4  and  C_5
REMARK    3  A    between atoms: C_10  and  N_11
REMARK    4  A    between atoms: C_12  and  C_14
REMARK    5  A    between atoms: C_19  and  C_20
REMARK    6  A    between atoms: C_30  and  N_31
REMARK                            x       y       z     vdW  Elec       q    Type
REMARK                         _______ _______ _______ _____ _____    ______ ____
ROOT
ATOM      1  N   UNL     1       2.037   5.926  18.617  0.00  0.00    +0.000 N 
ATOM      2  C   UNL     1       2.054   6.814  19.688  0.00  0.00    +0.000 C 
ATOM      3  O   UNL     1       2.314   6.541  20.851  0.00  0.00    +0.000 OA
ATOM      4  H   UNL     1       1.911   6.359  17.707  0.00  0.00    +0.000 HD
ENDROOT
BRANCH   2   5
ATOM      5  C   UNL     1       1.770   8.241  19.340  0.00  0.00    +0.000 A 
ATOM      6  C   UNL     1       2.106   8.723  18.078  0.00  0.00    +0.000 A 
ATOM      7  C   UNL     1       1.795  10.039  17.774  0.00  0.00    +0.000 A 
ATOM      8  C   UNL     1       1.155  10.823  18.728  0.00  0.00    +0.000 A 
ATOM      9  F   UNL     1       0.803  12.069  18.385  0.00  0.00    +0.000 F 
ATOM     10  C   UNL     1       0.857  10.288  19.987  0.00  0.00    +0.000 A 
ATOM     11  N   UNL     1       1.171   8.993  20.297  0.00  0.00    +0.000 NA
BRANCH  10  12
ATOM     12  C   UNL     1       0.170  11.025  21.060  0.00  0.00    +0.000 A 
ATOM     13  C   UNL     1       0.338  12.414  21.206  0.00  0.00    +0.000 A 
ATOM     14  F   UNL     1       1.153  13.098  20.385  0.00  0.00    +0.000 F 
ATOM     15  C   UNL     1      -0.315  13.147  22.198  0.00  0.00    +0.000 A 
ATOM     16  C   UNL     1      -1.158  12.504  23.095  0.00  0.00    +0.000 A 
ATOM     17  C   UNL     1      -1.352  11.130  22.982  0.00  0.00    +0.000 A 
ATOM     18  C   UNL     1      -0.703  10.413  21.971  0.00  0.00    +0.000 A 
ATOM     19  F   UNL     1      -0.985   9.105  21.880  0.00  0.00    +0.000 F 
ENDBRANCH  10  12
ENDBRANCH   2   5
BRANCH   1  25
ATOM     20  C   UNL     1       3.479   3.919  18.427  0.00  0.00    +0.000 A 
ATOM     21  C   UNL     1       3.567   2.513  18.503  0.00  0.00    +0.000 A 
ATOM     22  C   UNL     1       2.460   1.769  18.883  0.00  0.00    +0.000 A 
ATOM     23  N   UNL     1       1.267   2.310  19.158  0.00  0.00    +0.000 NA
ATOM     24  C   UNL     1       1.178   3.659  19.058  0.00  0.00    +0.000 A 
ATOM     25  C   UNL     1       2.229   4.520  18.705  0.00  0.00    +0.000 A 
BRANCH  20  29
ATOM     26  C   UNL     1       7.179   4.901  15.087  0.00  0.00    +0.000 C 
ATOM     27  C   UNL     1       6.538   5.280  16.421  0.00  0.00    +0.000 C 
ATOM     28  C   UNL     1       5.358   4.346  16.754  0.00  0.00    +0.000 C 
ATOM     29  C   UNL     1       4.737   4.722  18.112  0.00  0.00    +0.000 C 
ATOM     30  C   UNL     1       5.815   4.639  19.218  0.00  0.00    +0.000 C 
ATOM     31  C   UNL     1       6.945   5.634  18.911  0.00  0.00    +0.000 C 
ATOM     32  C   UNL     1       7.583   5.291  17.548  0.00  0.00    +0.000 C 
ATOM     33  F   UNL     1       8.144   4.047  17.632  0.00  0.00    +0.000 F 
BRANCH  31  34
ATOM     34  N   UNL     1       7.935   5.636  19.996  0.00  0.00    +0.000 NA
ATOM     35  H   UNL     1       7.481   5.940  20.860  0.00  0.00    +0.000 HD
ATOM     36  H   UNL     1       8.663   6.322  19.800  0.00  0.00    +0.000 HD
ENDBRANCH  31  34
ENDBRANCH  20  29
ENDBRANCH   1  25
TORSDOF 5
ENDMDL
MODEL 8
REMARK VINA RESULT:      -8.9      1.138      1.840
REMARK  Name = 
REMARK  6 active torsions:
REMARK  status: ('A' for Active; 'I' for Inactive)
REMARK    1  A    between atoms: C_1  and  C_2
REMARK    2  A    between atoms: C_4  and  C_5
REMARK    3  A    between atoms: C_10  and  N_11
REMARK    4  A    between atoms: C_12  and  C_14
REMARK    5  A    between atoms: C_19  and  C_20
REMARK    6  A    between atoms: C_30  and  N_31
REMARK                            x       y       z     vdW  Elec       q    Type
REMARK                         _______ _______ _______ _____ _____    ______ ____
ROOT
ATOM      1  N   UNL     1       1.979   6.586  19.312  0.00  0.00    +0.000 N 
ATOM      2  C   UNL     1       1.579   7.546  20.236  0.00  0.00    +0.000 C 
ATOM      3  O   UNL     1       1.441   7.379  21.440  0.00  0.00    +0.000 OA
ATOM      4  H   UNL     1       2.147   6.942  18.375  0.00  0.00    +0.000 HD
ENDROOT
BRANCH   2   5
ATOM      5  C   UNL     1       1.350   8.915  19.678  0.00  0.00    +0.000 A 
ATOM      6  C   UNL     1       2.152   9.378  18.638  0.00  0.00    +0.000 A 
ATOM      7  C   UNL     1       1.889  10.636  18.118  0.00  0.00    +0.000 A 
ATOM      8  C   UNL     1       0.838  11.381  18.642  0.00  0.00    +0.000 A 
ATOM      9  F   UNL     1       0.562  12.563  18.075  0.00  0.00    +0.000 F 
ATOM     10  C   UNL     1       0.077  10.869  19.700  0.00  0.00    +0.000 A 
ATOM     11  N   UNL     1       0.337   9.634  20.225  0.00  0.00    +0.000 NA
BRANCH  10  12
ATOM     12  C   UNL     1      -1.064  11.568  20.315  0.00  0.00    +0.000 A 
ATOM     13  C   UNL     1      -2.190  11.926  19.552  0.00  0.00    +0.000 A 
ATOM     14  F   UNL     1      -2.240  11.660  18.235  0.00  0.00    +0.000 F 
ATOM     15  C   UNL     1      -3.297  12.570  20.107  0.00  0.00    +0.000 A 
ATOM     16  C   UNL     1      -3.307  12.892  21.458  0.00  0.00    +0.000 A 
ATOM     17  C   UNL     1      -2.211  12.553  22.247  0.00  0.00    +0.000 A 
ATOM     18  C   UNL     1      -1.117  11.892  21.679  0.00  0.00    +0.000 A 
ATOM     19  F   UNL     1      -0.125  11.539  22.508  0.00  0.00    +0.000 F 
ENDBRANCH  10  12
ENDBRANCH   2   5
BRANCH   1  25
ATOM     20  C   UNL     1       3.368   4.540  19.137  0.00  0.00    +0.000 A 
ATOM     21  C   UNL     1       3.494   3.167  19.433  0.00  0.00    +0.000 A 
ATOM     22  C   UNL     1       2.520   2.527  20.184  0.00  0.00    +0.000 A 
ATOM     23  N   UNL     1       1.417   3.138  20.635  0.00  0.00    +0.000 NA
ATOM     24  C   UNL     1       1.286   4.451  20.328  0.00  0.00    +0.000 A 
ATOM     25  C   UNL     1       2.210   5.212  19.593  0.00  0.00    +0.000 A 
BRANCH  20  29
ATOM     26  C   UNL     1       5.979   5.031  14.807  0.00  0.00    +0.000 C 
ATOM     27  C   UNL     1       5.758   5.558  16.224  0.00  0.00    +0.000 C 
ATOM     28  C   UNL     1       4.699   4.720  16.968  0.00  0.00    +0.000 C 
ATOM     29  C   UNL     1       4.503   5.245  18.402  0.00  0.00    +0.000 C 
ATOM     30  C   UNL     1       5.850   5.203  19.160  0.00  0.00    +0.000 C 
ATOM     31  C   UNL     1       6.870   6.106  18.449  0.00  0.00    +0.000 C 
ATOM     32  C   UNL     1       7.082   5.612  17.002  0.00  0.00    +0.000 C 
ATOM     33  F   UNL     1       7.611   4.352  17.046  0.00  0.00    +0.000 F 
BRANCH  31  34
ATOM     34  N   UNL     1       8.129   6.150  19.204  0.00  0.00    +0.000 NA
ATOM     35  H   UNL     1       7.950   5.859  20.167  0.00  0.00    +0.000 HD
ATOM     36  H   UNL     1       8.469   7.111  19.256  0.00  0.00    +0.000 HD
ENDBRANCH  31  34
ENDBRANCH  20  29
ENDBRANCH   1  25
TORSDOF 5
ENDMDL
MODEL 9
REMARK VINA RESULT:      -8.9      1.658      1.783
REMARK  Name = 
REMARK  6 active torsions:
REMARK  status: ('A' for Active; 'I' for Inactive)
REMARK    1  A    between atoms: C_1  and  C_2
REMARK    2  A    between atoms: C_4  and  C_5
REMARK    3  A    between atoms: C_10  and  N_11
REMARK    4  A    between atoms: C_12  and  C_14
REMARK    5  A    between atoms: C_19  and  C_20
REMARK    6  A    between atoms: C_30  and  N_31
REMARK                            x       y       z     vdW  Elec       q    Type
REMARK                         _______ _______ _______ _____ _____    ______ ____
ROOT
ATOM      1  N   UNL     1       2.149   6.644  19.540  0.00  0.00    +0.000 N 
ATOM      2  C   UNL     1       1.729   7.643  20.414  0.00  0.00    +0.000 C 
ATOM      3  O   UNL     1       1.576   7.531  21.622  0.00  0.00    +0.000 OA
ATOM      4  H   UNL     1       2.327   6.958  18.590  0.00  0.00    +0.000 HD
ENDROOT
BRANCH   2   5
ATOM      5  C   UNL     1       1.497   8.983  19.789  0.00  0.00    +0.000 A 
ATOM      6  C   UNL     1       1.691   9.148  18.420  0.00  0.00    +0.000 A 
ATOM      7  C   UNL     1       1.431  10.392  17.866  0.00  0.00    +0.000 A 
ATOM      8  C   UNL     1       0.980  11.420  18.688  0.00  0.00    +0.000 A 
ATOM      9  F   UNL     1       0.670  12.591  18.117  0.00  0.00    +0.000 F 
ATOM     10  C   UNL     1       0.820  11.198  20.061  0.00  0.00    +0.000 A 
ATOM     11  N   UNL     1       1.084   9.977  20.616  0.00  0.00    +0.000 NA
BRANCH  10  12
ATOM     12  C   UNL     1       0.334  12.211  21.013  0.00  0.00    +0.000 A 
ATOM     13  C   UNL     1      -0.754  11.944  21.862  0.00  0.00    +0.000 A 
ATOM     14  F   UNL     1      -1.396  10.764  21.807  0.00  0.00    +0.000 F 
ATOM     15  C   UNL     1      -1.226  12.873  22.790  0.00  0.00    +0.000 A 
ATOM     16  C   UNL     1      -0.624  14.121  22.891  0.00  0.00    +0.000 A 
ATOM     17  C   UNL     1       0.458  14.422  22.069  0.00  0.00    +0.000 A 
ATOM     18  C   UNL     1       0.929  13.473  21.156  0.00  0.00    +0.000 A 
ATOM     19  F   UNL     1       2.013  13.807  20.441  0.00  0.00    +0.000 F 
ENDBRANCH  10  12
ENDBRANCH   2   5
BRANCH   1  25
ATOM     20  C   UNL     1       3.506   4.575  19.398  0.00  0.00    +0.000 A 
ATOM     21  C   UNL     1       3.640   3.221  19.767  0.00  0.00    +0.000 A 
ATOM     22  C   UNL     1       2.713   2.639  20.619  0.00  0.00    +0.000 A 
ATOM     23  N   UNL     1       1.648   3.289  21.104  0.00  0.00    +0.000 NA
ATOM     24  C   UNL     1       1.508   4.583  20.727  0.00  0.00    +0.000 A 
ATOM     25  C   UNL     1       2.387   5.287  19.889  0.00  0.00    +0.000 A 
BRANCH  20  29
ATOM     26  C   UNL     1       5.965   4.630  14.953  0.00  0.00    +0.000 C 
ATOM     27  C   UNL     1       5.771   5.312  16.306  0.00  0.00    +0.000 C 
ATOM     28  C   UNL     1       4.764   4.538  17.178  0.00  0.00    +0.000 C 
ATOM     29  C   UNL     1       4.595   5.221  18.548  0.00  0.00    +0.000 C 
ATOM     30  C   UNL     1       5.966   5.304  19.259  0.00  0.00    +0.000 C 
ATOM     31  C   UNL     1       6.934   6.146  18.413  0.00  0.00    +0.000 C 
ATOM     32  C   UNL     1       7.117   5.493  17.027  0.00  0.00    +0.000 C 
ATOM     33  F   UNL     1       7.686   4.262  17.198  0.00  0.00    +0.000 F 
BRANCH  31  34
ATOM     34  N   UNL     1       8.214   6.313  19.115  0.00  0.00    +0.000 NA
ATOM     35  H   UNL     1       8.947   5.833  18.590  0.00  0.00    +0.000 HD
ATOM     36  H   UNL     1       8.171   5.858  20.027  0.00  0.00    +0.000 HD
ENDBRANCH  31  34
ENDBRANCH  20  29
ENDBRANCH   1  25
TORSDOF 5
ENDMDL
