MODEL 1
REMARK VINA RESULT:      -6.8      0.000      0.000
REMARK  Name = 
REMARK  11 active torsions:
REMARK  status: ('A' for Active; 'I' for Inactive)
REMARK    1  A    between atoms: C_1  and  O_2
REMARK    2  A    between atoms: O_2  and  C_3
REMARK    3  A    between atoms: C_7  and  C_8
REMARK    4  A    between atoms: C_8  and  C_10
REMARK    5  A    between atoms: C_12  and  O_13
REMARK    6  A    between atoms: O_13  and  C_14
REMARK    7  A    between atoms: C_15  and  O_16
REMARK    8  A    between atoms: O_16  and  C_17
REMARK    9  A    between atoms: C_18  and  O_19
REMARK   10  A    between atoms: O_19  and  C_20
REMARK   11  A    between atoms: C_21  and  N_22
REMARK                            x       y       z     vdW  Elec       q    Type
REMARK                         _______ _______ _______ _____ _____    ______ ____
ROOT
ATOM      1  C   UNL     1      -0.340  10.697  18.538  0.00  0.00    +0.000 A 
ATOM      2  C   UNL     1      -1.107  10.024  17.583  0.00  0.00    +0.000 A 
ATOM      3  C   UNL     1      -2.433  10.363  17.364  0.00  0.00    +0.000 A 
ATOM      4  C   UNL     1      -3.043  11.360  18.156  0.00  0.00    +0.000 A 
ATOM      5  C   UNL     1      -2.305  12.006  19.191  0.00  0.00    +0.000 A 
ATOM      6  C   UNL     1      -0.938  11.658  19.400  0.00  0.00    +0.000 A 
ENDROOT
BRANCH   6   7
ATOM      7  N   UNL     1      -0.107  12.339  20.330  0.00  0.00    +0.000 N 
ATOM      8  H   UNL     1       0.130  13.274  20.027  0.00  0.00    +0.000 HD
ATOM      9  H   UNL     1      -0.564  12.428  21.248  0.00  0.00    +0.000 HD
ENDBRANCH   6   7
BRANCH   1  10
ATOM     10  C   UNL     1       1.100  10.303  18.677  0.00  0.00    +0.000 C 
ATOM     11  O   UNL     1       1.968  11.068  18.248  0.00  0.00    +0.000 OA
BRANCH  10  16
ATOM     12  C   UNL     1       3.582   5.479  18.661  0.00  0.00    +0.000 A 
ATOM     13  C   UNL     1       3.633   6.419  17.635  0.00  0.00    +0.000 A 
ATOM     14  C   UNL     1       2.995   7.659  17.768  0.00  0.00    +0.000 A 
ATOM     15  C   UNL     1       2.259   7.953  18.936  0.00  0.00    +0.000 A 
ATOM     16  C   UNL     1       1.458   9.066  19.375  0.00  0.00    +0.000 A 
ATOM     17  C   UNL     1       1.034   8.760  20.654  0.00  0.00    +0.000 A 
ATOM     18  N   UNL     1       1.484   7.512  20.981  0.00  0.00    +0.000 N 
ATOM     19  C   UNL     1       2.224   6.991  19.945  0.00  0.00    +0.000 A 
ATOM     20  C   UNL     1       2.863   5.749  19.831  0.00  0.00    +0.000 A 
ATOM     21  H   UNL     1       1.301   7.035  21.853  0.00  0.00    +0.000 HD
BRANCH  12  23
ATOM     22  C   UNL     1       3.361   3.157  19.045  0.00  0.00    +0.000 C 
ATOM     23  O   UNL     1       4.178   4.246  18.619  0.00  0.00    +0.000 OA
ENDBRANCH  12  23
ENDBRANCH  10  16
ENDBRANCH   1  10
BRANCH   3  24
ATOM     24  O   UNL     1      -3.190   9.797  16.365  0.00  0.00    +0.000 OA
ATOM     25  C   UNL     1      -2.888  10.178  15.026  0.00  0.00    +0.000 C 
ENDBRANCH   3  24
BRANCH   4  26
ATOM     26  O   UNL     1      -4.352  11.589  17.792  0.00  0.00    +0.000 OA
ATOM     27  C   UNL     1      -5.420  10.923  18.442  0.00  0.00    +0.000 C 
ENDBRANCH   4  26
BRANCH   5  28
ATOM     28  O   UNL     1      -3.017  12.952  19.878  0.00  0.00    +0.000 OA
ATOM     29  C   UNL     1      -3.580  12.745  21.157  0.00  0.00    +0.000 C 
ENDBRANCH   5  28
TORSDOF 7
ENDMDL
MODEL 2
REMARK VINA RESULT:      -6.8      2.717      8.077
REMARK  Name = 
REMARK  11 active torsions:
REMARK  status: ('A' for Active; 'I' for Inactive)
REMARK    1  A    between atoms: C_1  and  O_2
REMARK    2  A    between atoms: O_2  and  C_3
REMARK    3  A    between atoms: C_7  and  C_8
REMARK    4  A    between atoms: C_8  and  C_10
REMARK    5  A    between atoms: C_12  and  O_13
REMARK    6  A    between atoms: O_13  and  C_14
REMARK    7  A    between atoms: C_15  and  O_16
REMARK    8  A    between atoms: O_16  and  C_17
REMARK    9  A    between atoms: C_18  and  O_19
REMARK   10  A    between atoms: O_19  and  C_20
REMARK   11  A    between atoms: C_21  and  N_22
REMARK                            x       y       z     vdW  Elec       q    Type
REMARK                         _______ _______ _______ _____ _____    ______ ____
ROOT
ATOM      1  C   UNL     1       2.788   6.333  17.880  0.00  0.00    +0.000 A 
ATOM      2  C   UNL     1       1.764   5.392  18.025  0.00  0.00    +0.000 A 
ATOM      3  C   UNL     1       2.012   4.037  17.869  0.00  0.00    +0.000 A 
ATOM      4  C   UNL     1       3.301   3.597  17.497  0.00  0.00    +0.000 A 
ATOM      5  C   UNL     1       4.343   4.542  17.265  0.00  0.00    +0.000 A 
ATOM      6  C   UNL     1       4.080   5.933  17.441  0.00  0.00    +0.000 A 
ENDROOT
BRANCH   6   7
ATOM      7  N   UNL     1       5.095   6.923  17.344  0.00  0.00    +0.000 N 
ATOM      8  H   UNL     1       4.887   7.748  17.890  0.00  0.00    +0.000 HD
ATOM      9  H   UNL     1       6.002   6.566  17.674  0.00  0.00    +0.000 HD
ENDBRANCH   6   7
BRANCH   1  10
ATOM     10  C   UNL     1       2.447   7.773  18.116  0.00  0.00    +0.000 C 
ATOM     11  O   UNL     1       2.650   8.587  17.210  0.00  0.00    +0.000 OA
BRANCH  10  16
ATOM     12  C   UNL     1      -0.774  11.185  20.840  0.00  0.00    +0.000 A 
ATOM     13  C   UNL     1      -0.560  11.199  19.464  0.00  0.00    +0.000 A 
ATOM     14  C   UNL     1       0.254  10.233  18.857  0.00  0.00    +0.000 A 
ATOM     15  C   UNL     1       0.899   9.256  19.645  0.00  0.00    +0.000 A 
ATOM     16  C   UNL     1       1.819   8.182  19.374  0.00  0.00    +0.000 A 
ATOM     17  C   UNL     1       2.047   7.552  20.582  0.00  0.00    +0.000 A 
ATOM     18  N   UNL     1       1.368   8.217  21.563  0.00  0.00    +0.000 N 
ATOM     19  C   UNL     1       0.667   9.270  21.020  0.00  0.00    +0.000 A 
ATOM     20  C   UNL     1      -0.150  10.224  21.643  0.00  0.00    +0.000 A 
ATOM     21  H   UNL     1       1.376   7.978  22.546  0.00  0.00    +0.000 HD
BRANCH  12  23
ATOM     22  C   UNL     1      -0.913  12.761  22.596  0.00  0.00    +0.000 C 
ATOM     23  O   UNL     1      -1.554  12.086  21.516  0.00  0.00    +0.000 OA
ENDBRANCH  12  23
ENDBRANCH  10  16
ENDBRANCH   1  10
BRANCH   3  24
ATOM     24  O   UNL     1       1.058   3.074  18.102  0.00  0.00    +0.000 OA
ATOM     25  C   UNL     1       0.630   2.898  19.449  0.00  0.00    +0.000 C 
ENDBRANCH   3  24
BRANCH   4  26
ATOM     26  O   UNL     1       3.380   2.224  17.408  0.00  0.00    +0.000 OA
ATOM     27  C   UNL     1       3.825   1.445  18.504  0.00  0.00    +0.000 C 
ENDBRANCH   4  26
BRANCH   5  28
ATOM     28  O   UNL     1       5.541   3.980  16.914  0.00  0.00    +0.000 OA
ATOM     29  C   UNL     1       5.995   3.851  15.583  0.00  0.00    +0.000 C 
ENDBRANCH   5  28
TORSDOF 7
ENDMDL
MODEL 3
REMARK VINA RESULT:      -6.7      1.100      1.219
REMARK  Name = 
REMARK  11 active torsions:
REMARK  status: ('A' for Active; 'I' for Inactive)
REMARK    1  A    between atoms: C_1  and  O_2
REMARK    2  A    between atoms: O_2  and  C_3
REMARK    3  A    between atoms: C_7  and  C_8
REMARK    4  A    between atoms: C_8  and  C_10
REMARK    5  A    between atoms: C_12  and  O_13
REMARK    6  A    between atoms: O_13  and  C_14
REMARK    7  A    between atoms: C_15  and  O_16
REMARK    8  A    between atoms: O_16  and  C_17
REMARK    9  A    between atoms: C_18  and  O_19
REMARK   10  A    between atoms: O_19  and  C_20
REMARK   11  A    between atoms: C_21  and  N_22
REMARK                            x       y       z     vdW  Elec       q    Type
REMARK                         _______ _______ _______ _____ _____    ______ ____
ROOT
ATOM      1  C   UNL     1      -1.117  11.189  19.015  0.00  0.00    +0.000 A 
ATOM      2  C   UNL     1      -1.588  10.387  17.971  0.00  0.00    +0.000 A 
ATOM      3  C   UNL     1      -2.908  10.458  17.556  0.00  0.00    +0.000 A 
ATOM      4  C   UNL     1      -3.813  11.305  18.233  0.00  0.00    +0.000 A 
ATOM      5  C   UNL     1      -3.377  12.074  19.352  0.00  0.00    +0.000 A 
ATOM      6  C   UNL     1      -2.013  12.003  19.763  0.00  0.00    +0.000 A 
ENDROOT
BRANCH   6   7
ATOM      7  N   UNL     1      -1.479  12.826  20.791  0.00  0.00    +0.000 N 
ATOM      8  H   UNL     1      -0.477  12.728  20.885  0.00  0.00    +0.000 HD
ATOM      9  H   UNL     1      -1.667  13.821  20.612  0.00  0.00    +0.000 HD
ENDBRANCH   6   7
BRANCH   1  10
ATOM     10  C   UNL     1       0.336  11.088  19.369  0.00  0.00    +0.000 C 
ATOM     11  O   UNL     1       1.039  12.099  19.284  0.00  0.00    +0.000 OA
BRANCH  10  16
ATOM     12  C   UNL     1       3.122   6.518  18.481  0.00  0.00    +0.000 A 
ATOM     13  C   UNL     1       2.949   7.552  17.564  0.00  0.00    +0.000 A 
ATOM     14  C   UNL     1       2.253   8.715  17.919  0.00  0.00    +0.000 A 
ATOM     15  C   UNL     1       1.684   8.833  19.206  0.00  0.00    +0.000 A 
ATOM     16  C   UNL     1       0.883   9.826  19.871  0.00  0.00    +0.000 A 
ATOM     17  C   UNL     1       0.681   9.365  21.158  0.00  0.00    +0.000 A 
ATOM     18  N   UNL     1       1.262   8.134  21.282  0.00  0.00    +0.000 N 
ATOM     19  C   UNL     1       1.872   7.779  20.101  0.00  0.00    +0.000 A 
ATOM     20  C   UNL     1       2.572   6.613  19.764  0.00  0.00    +0.000 A 
ATOM     21  H   UNL     1       1.249   7.563  22.116  0.00  0.00    +0.000 HD
BRANCH  12  23
ATOM     22  C   UNL     1       4.855   5.043  19.119  0.00  0.00    +0.000 C 
ATOM     23  O   UNL     1       3.790   5.350  18.222  0.00  0.00    +0.000 OA
ENDBRANCH  12  23
ENDBRANCH  10  16
ENDBRANCH   1  10
BRANCH   3  24
ATOM     24  O   UNL     1      -3.385   9.763  16.469  0.00  0.00    +0.000 OA
ATOM     25  C   UNL     1      -2.899  10.151  15.188  0.00  0.00    +0.000 C 
ENDBRANCH   3  24
BRANCH   4  26
ATOM     26  O   UNL     1      -5.074  11.273  17.679  0.00  0.00    +0.000 OA
ATOM     27  C   UNL     1      -5.604  12.398  16.999  0.00  0.00    +0.000 C 
ENDBRANCH   4  26
BRANCH   5  28
ATOM     28  O   UNL     1      -4.355  12.852  19.911  0.00  0.00    +0.000 OA
ATOM     29  C   UNL     1      -5.125  12.472  21.032  0.00  0.00    +0.000 C 
ENDBRANCH   5  28
TORSDOF 7
ENDMDL
MODEL 4
REMARK VINA RESULT:      -6.5      1.680      2.269
REMARK  Name = 
REMARK  11 active torsions:
REMARK  status: ('A' for Active; 'I' for Inactive)
REMARK    1  A    between atoms: C_1  and  O_2
REMARK    2  A    between atoms: O_2  and  C_3
REMARK    3  A    between atoms: C_7  and  C_8
REMARK    4  A    between atoms: C_8  and  C_10
REMARK    5  A    between atoms: C_12  and  O_13
REMARK    6  A    between atoms: O_13  and  C_14
REMARK    7  A    between atoms: C_15  and  O_16
REMARK    8  A    between atoms: O_16  and  C_17
REMARK    9  A    between atoms: C_18  and  O_19
REMARK   10  A    between atoms: O_19  and  C_20
REMARK   11  A    between atoms: C_21  and  N_22
REMARK                            x       y       z     vdW  Elec       q    Type
REMARK                         _______ _______ _______ _____ _____    ______ ____
ROOT
ATOM      1  C   UNL     1      -2.060  11.944  19.128  0.00  0.00    +0.000 A 
ATOM      2  C   UNL     1      -2.382  11.309  17.924  0.00  0.00    +0.000 A 
ATOM      3  C   UNL     1      -3.689  11.267  17.467  0.00  0.00    +0.000 A 
ATOM      4  C   UNL     1      -4.726  11.817  18.252  0.00  0.00    +0.000 A 
ATOM      5  C   UNL     1      -4.435  12.398  19.521  0.00  0.00    +0.000 A 
ATOM      6  C   UNL     1      -3.085  12.447  19.977  0.00  0.00    +0.000 A 
ENDROOT
BRANCH   6   7
ATOM      7  N   UNL     1      -2.703  13.115  21.172  0.00  0.00    +0.000 N 
ATOM      8  H   UNL     1      -2.467  12.473  21.917  0.00  0.00    +0.000 HD
ATOM      9  H   UNL     1      -1.880  13.715  21.021  0.00  0.00    +0.000 HD
ENDBRANCH   6   7
BRANCH   1  10
ATOM     10  C   UNL     1      -0.615  11.989  19.526  0.00  0.00    +0.000 C 
ATOM     11  O   UNL     1      -0.010  13.061  19.441  0.00  0.00    +0.000 OA
BRANCH  10  16
ATOM     12  C   UNL     1       2.397   7.544  18.752  0.00  0.00    +0.000 A 
ATOM     13  C   UNL     1       2.113   8.507  17.787  0.00  0.00    +0.000 A 
ATOM     14  C   UNL     1       1.366   9.647  18.112  0.00  0.00    +0.000 A 
ATOM     15  C   UNL     1       0.859   9.810  19.419  0.00  0.00    +0.000 A 
ATOM     16  C   UNL     1       0.034  10.794  20.070  0.00  0.00    +0.000 A 
ATOM     17  C   UNL     1      -0.072  10.402  21.391  0.00  0.00    +0.000 A 
ATOM     18  N   UNL     1       0.590   9.218  21.553  0.00  0.00    +0.000 N 
ATOM     19  C   UNL     1       1.158   8.827  20.363  0.00  0.00    +0.000 A 
ATOM     20  C   UNL     1       1.910   7.685  20.056  0.00  0.00    +0.000 A 
ATOM     21  H   UNL     1       0.655   8.698  22.419  0.00  0.00    +0.000 HD
BRANCH  12  23
ATOM     22  C   UNL     1       2.358   5.258  18.151  0.00  0.00    +0.000 C 
ATOM     23  O   UNL     1       3.121   6.403  18.524  0.00  0.00    +0.000 OA
ENDBRANCH  12  23
ENDBRANCH  10  16
ENDBRANCH   1  10
BRANCH   3  24
ATOM     24  O   UNL     1      -4.033  10.745  16.242  0.00  0.00    +0.000 OA
ATOM     25  C   UNL     1      -3.022  10.725  15.239  0.00  0.00    +0.000 C 
ENDBRANCH   3  24
BRANCH   4  26
ATOM     26  O   UNL     1      -5.957  11.711  17.641  0.00  0.00    +0.000 OA
ATOM     27  C   UNL     1      -6.604  12.849  17.097  0.00  0.00    +0.000 C 
ENDBRANCH   4  26
BRANCH   5  28
ATOM     28  O   UNL     1      -5.531  12.894  20.174  0.00  0.00    +0.000 OA
ATOM     29  C   UNL     1      -6.318  12.148  21.079  0.00  0.00    +0.000 C 
ENDBRANCH   5  28
TORSDOF 7
ENDMDL
MODEL 5
REMARK VINA RESULT:      -6.4      1.073      1.182
REMARK  Name = 
REMARK  11 active torsions:
REMARK  status: ('A' for Active; 'I' for Inactive)
REMARK    1  A    between atoms: C_1  and  O_2
REMARK    2  A    between atoms: O_2  and  C_3
REMARK    3  A    between atoms: C_7  and  C_8
REMARK    4  A    between atoms: C_8  and  C_10
REMARK    5  A    between atoms: C_12  and  O_13
REMARK    6  A    between atoms: O_13  and  C_14
REMARK    7  A    between atoms: C_15  and  O_16
REMARK    8  A    between atoms: O_16  and  C_17
REMARK    9  A    between atoms: C_18  and  O_19
REMARK   10  A    between atoms: O_19  and  C_20
REMARK   11  A    between atoms: C_21  and  N_22
REMARK                            x       y       z     vdW  Elec       q    Type
REMARK                         _______ _______ _______ _____ _____    ______ ____
ROOT
ATOM      1  C   UNL     1       0.214  10.409  18.565  0.00  0.00    +0.000 A 
ATOM      2  C   UNL     1      -0.899   9.923  17.872  0.00  0.00    +0.000 A 
ATOM      3  C   UNL     1      -2.126  10.563  17.956  0.00  0.00    +0.000 A 
ATOM      4  C   UNL     1      -2.277  11.685  18.800  0.00  0.00    +0.000 A 
ATOM      5  C   UNL     1      -1.178  12.151  19.578  0.00  0.00    +0.000 A 
ATOM      6  C   UNL     1       0.084  11.493  19.475  0.00  0.00    +0.000 A 
ENDROOT
BRANCH   6   7
ATOM      7  N   UNL     1       1.253  11.971  20.127  0.00  0.00    +0.000 N 
ATOM      8  H   UNL     1       2.091  11.499  19.816  0.00  0.00    +0.000 HD
ATOM      9  H   UNL     1       1.393  12.976  19.959  0.00  0.00    +0.000 HD
ENDBRANCH   6   7
BRANCH   1  10
ATOM     10  C   UNL     1       1.516   9.688  18.380  0.00  0.00    +0.000 C 
ATOM     11  O   UNL     1       2.353  10.164  17.608  0.00  0.00    +0.000 OA
BRANCH  10  16
ATOM     12  C   UNL     1       3.718   4.740  18.693  0.00  0.00    +0.000 A 
ATOM     13  C   UNL     1       3.820   5.603  17.605  0.00  0.00    +0.000 A 
ATOM     14  C   UNL     1       3.254   6.884  17.654  0.00  0.00    +0.000 A 
ATOM     15  C   UNL     1       2.539   7.298  18.798  0.00  0.00    +0.000 A 
ATOM     16  C   UNL     1       1.804   8.482  19.159  0.00  0.00    +0.000 A 
ATOM     17  C   UNL     1       1.367   8.288  20.456  0.00  0.00    +0.000 A 
ATOM     18  N   UNL     1       1.745   7.041  20.867  0.00  0.00    +0.000 N 
ATOM     19  C   UNL     1       2.452   6.410  19.870  0.00  0.00    +0.000 A 
ATOM     20  C   UNL     1       3.018   5.128  19.841  0.00  0.00    +0.000 A 
ATOM     21  H   UNL     1       1.537   6.635  21.769  0.00  0.00    +0.000 HD
BRANCH  12  23
ATOM     22  C   UNL     1       3.319   2.421  18.465  0.00  0.00    +0.000 C 
ATOM     23  O   UNL     1       4.242   3.474  18.735  0.00  0.00    +0.000 OA
ENDBRANCH  12  23
ENDBRANCH  10  16
ENDBRANCH   1  10
BRANCH   3  24
ATOM     24  O   UNL     1      -3.217  10.180  17.212  0.00  0.00    +0.000 OA
ATOM     25  C   UNL     1      -2.989   9.860  15.843  0.00  0.00    +0.000 C 
ENDBRANCH   3  24
BRANCH   4  26
ATOM     26  O   UNL     1      -3.550  12.212  18.747  0.00  0.00    +0.000 OA
ATOM     27  C   UNL     1      -4.401  12.183  19.879  0.00  0.00    +0.000 C 
ENDBRANCH   4  26
BRANCH   5  28
ATOM     28  O   UNL     1      -1.462  13.246  20.348  0.00  0.00    +0.000 OA
ATOM     29  C   UNL     1      -1.127  14.572  19.994  0.00  0.00    +0.000 C 
ENDBRANCH   5  28
TORSDOF 7
ENDMDL
MODEL 6
REMARK VINA RESULT:      -6.2      3.256      8.341
REMARK  Name = 
REMARK  11 active torsions:
REMARK  status: ('A' for Active; 'I' for Inactive)
REMARK    1  A    between atoms: C_1  and  O_2
REMARK    2  A    between atoms: O_2  and  C_3
REMARK    3  A    between atoms: C_7  and  C_8
REMARK    4  A    between atoms: C_8  and  C_10
REMARK    5  A    between atoms: C_12  and  O_13
REMARK    6  A    between atoms: O_13  and  C_14
REMARK    7  A    between atoms: C_15  and  O_16
REMARK    8  A    between atoms: O_16  and  C_17
REMARK    9  A    between atoms: C_18  and  O_19
REMARK   10  A    between atoms: O_19  and  C_20
REMARK   11  A    between atoms: C_21  and  N_22
REMARK                            x       y       z     vdW  Elec       q    Type
REMARK                         _______ _______ _______ _____ _____    ______ ____
ROOT
ATOM      1  C   UNL     1       3.413   6.903  17.708  0.00  0.00    +0.000 A 
ATOM      2  C   UNL     1       4.719   7.352  17.485  0.00  0.00    +0.000 A 
ATOM      3  C   UNL     1       5.711   6.480  17.065  0.00  0.00    +0.000 A 
ATOM      4  C   UNL     1       5.423   5.106  16.918  0.00  0.00    +0.000 A 
ATOM      5  C   UNL     1       4.120   4.609  17.216  0.00  0.00    +0.000 A 
ATOM      6  C   UNL     1       3.103   5.517  17.635  0.00  0.00    +0.000 A 
ENDROOT
BRANCH   6   7
ATOM      7  N   UNL     1       1.754   5.117  17.836  0.00  0.00    +0.000 N 
ATOM      8  H   UNL     1       1.091   5.805  17.505  0.00  0.00    +0.000 HD
ATOM      9  H   UNL     1       1.545   4.238  17.343  0.00  0.00    +0.000 HD
ENDBRANCH   6   7
BRANCH   1  10
ATOM     10  C   UNL     1       2.388   7.920  18.111  0.00  0.00    +0.000 C 
ATOM     11  O   UNL     1       1.913   8.658  17.245  0.00  0.00    +0.000 OA
BRANCH  10  16
ATOM     12  C   UNL     1      -0.037  10.663  22.115  0.00  0.00    +0.000 A 
ATOM     13  C   UNL     1       0.091  11.097  20.798  0.00  0.00    +0.000 A 
ATOM     14  C   UNL     1       0.692  10.281  19.830  0.00  0.00    +0.000 A 
ATOM     15  C   UNL     1       1.209   9.019  20.193  0.00  0.00    +0.000 A 
ATOM     16  C   UNL     1       1.917   7.977  19.497  0.00  0.00    +0.000 A 
ATOM     17  C   UNL     1       2.110   6.959  20.412  0.00  0.00    +0.000 A 
ATOM     18  N   UNL     1       1.614   7.354  21.622  0.00  0.00    +0.000 N 
ATOM     19  C   UNL     1       1.069   8.613  21.520  0.00  0.00    +0.000 A 
ATOM     20  C   UNL     1       0.464   9.414  22.499  0.00  0.00    +0.000 A 
ATOM     21  H   UNL     1       1.642   6.807  22.472  0.00  0.00    +0.000 HD
BRANCH  12  23
ATOM     22  C   UNL     1      -1.162  12.647  22.733  0.00  0.00    +0.000 C 
ATOM     23  O   UNL     1      -0.611  11.391  23.123  0.00  0.00    +0.000 OA
ENDBRANCH  12  23
ENDBRANCH  10  16
ENDBRANCH   1  10
BRANCH   3  24
ATOM     24  O   UNL     1       6.979   6.899  16.737  0.00  0.00    +0.000 OA
ATOM     25  C   UNL     1       7.763   7.472  17.778  0.00  0.00    +0.000 C 
ENDBRANCH   3  24
BRANCH   4  26
ATOM     26  O   UNL     1       6.512   4.388  16.472  0.00  0.00    +0.000 OA
ATOM     27  C   UNL     1       6.638   4.021  15.110  0.00  0.00    +0.000 C 
ENDBRANCH   4  26
BRANCH   5  28
ATOM     28  O   UNL     1       3.979   3.261  17.027  0.00  0.00    +0.000 OA
ATOM     29  C   UNL     1       3.673   2.345  18.058  0.00  0.00    +0.000 C 
ENDBRANCH   5  28
TORSDOF 7
ENDMDL
MODEL 7
REMARK VINA RESULT:      -6.2      2.693      8.527
REMARK  Name = 
REMARK  11 active torsions:
REMARK  status: ('A' for Active; 'I' for Inactive)
REMARK    1  A    between atoms: C_1  and  O_2
REMARK    2  A    between atoms: O_2  and  C_3
REMARK    3  A    between atoms: C_7  and  C_8
REMARK    4  A    between atoms: C_8  and  C_10
REMARK    5  A    between atoms: C_12  and  O_13
REMARK    6  A    between atoms: O_13  and  C_14
REMARK    7  A    between atoms: C_15  and  O_16
REMARK    8  A    between atoms: O_16  and  C_17
REMARK    9  A    between atoms: C_18  and  O_19
REMARK   10  A    between atoms: O_19  and  C_20
REMARK   11  A    between atoms: C_21  and  N_22
REMARK                            x       y       z     vdW  Elec       q    Type
REMARK                         _______ _______ _______ _____ _____    ______ ____
ROOT
ATOM      1  C   UNL     1       3.109   6.116  18.740  0.00  0.00    +0.000 A 
ATOM      2  C   UNL     1       4.309   6.670  18.283  0.00  0.00    +0.000 A 
ATOM      3  C   UNL     1       5.170   5.942  17.476  0.00  0.00    +0.000 A 
ATOM      4  C   UNL     1       4.868   4.599  17.159  0.00  0.00    +0.000 A 
ATOM      5  C   UNL     1       3.691   3.986  17.678  0.00  0.00    +0.000 A 
ATOM      6  C   UNL     1       2.806   4.747  18.497  0.00  0.00    +0.000 A 
ENDROOT
BRANCH   6   7
ATOM      7  N   UNL     1       1.558   4.243  18.952  0.00  0.00    +0.000 N 
ATOM      8  H   UNL     1       1.106   4.861  19.612  0.00  0.00    +0.000 HD
ATOM      9  H   UNL     1       0.900   4.104  18.172  0.00  0.00    +0.000 HD
ENDBRANCH   6   7
BRANCH   1  10
ATOM     10  C   UNL     1       2.211   6.987  19.565  0.00  0.00    +0.000 C 
ATOM     11  O   UNL     1       1.877   6.600  20.688  0.00  0.00    +0.000 OA
BRANCH  10  16
ATOM     12  C   UNL     1      -0.395  11.682  20.342  0.00  0.00    +0.000 A 
ATOM     13  C   UNL     1      -0.219  10.685  21.299  0.00  0.00    +0.000 A 
ATOM     14  C   UNL     1       0.519   9.532  21.004  0.00  0.00    +0.000 A 
ATOM     15  C   UNL     1       1.063   9.352  19.714  0.00  0.00    +0.000 A 
ATOM     16  C   UNL     1       1.803   8.302  19.065  0.00  0.00    +0.000 A 
ATOM     17  C   UNL     1       2.084   8.755  17.790  0.00  0.00    +0.000 A 
ATOM     18  N   UNL     1       1.508   9.983  17.621  0.00  0.00    +0.000 N 
ATOM     19  C   UNL     1       0.867  10.366  18.776  0.00  0.00    +0.000 A 
ATOM     20  C   UNL     1       0.138  11.529  19.058  0.00  0.00    +0.000 A 
ATOM     21  H   UNL     1       1.542  10.533  16.773  0.00  0.00    +0.000 HD
BRANCH  12  23
ATOM     22  C   UNL     1      -2.474  12.794  20.173  0.00  0.00    +0.000 C 
ATOM     23  O   UNL     1      -1.098  12.841  20.544  0.00  0.00    +0.000 OA
ENDBRANCH  12  23
ENDBRANCH  10  16
ENDBRANCH   1  10
BRANCH   3  24
ATOM     24  O   UNL     1       6.307   6.482  16.923  0.00  0.00    +0.000 OA
ATOM     25  C   UNL     1       7.382   6.779  17.809  0.00  0.00    +0.000 C 
ENDBRANCH   3  24
BRANCH   4  26
ATOM     26  O   UNL     1       5.814   4.032  16.332  0.00  0.00    +0.000 OA
ATOM     27  C   UNL     1       5.675   4.076  14.923  0.00  0.00    +0.000 C 
ENDBRANCH   4  26
BRANCH   5  28
ATOM     28  O   UNL     1       3.520   2.684  17.289  0.00  0.00    +0.000 OA
ATOM     29  C   UNL     1       3.575   1.581  18.170  0.00  0.00    +0.000 C 
ENDBRANCH   5  28
TORSDOF 7
ENDMDL
MODEL 8
REMARK VINA RESULT:      -6.2      3.357      8.935
REMARK  Name = 
REMARK  11 active torsions:
REMARK  status: ('A' for Active; 'I' for Inactive)
REMARK    1  A    between atoms: C_1  and  O_2
REMARK    2  A    between atoms: O_2  and  C_3
REMARK    3  A    between atoms: C_7  and  C_8
REMARK    4  A    between atoms: C_8  and  C_10
REMARK    5  A    between atoms: C_12  and  O_13
REMARK    6  A    between atoms: O_13  and  C_14
REMARK    7  A    between atoms: C_15  and  O_16
REMARK    8  A    between atoms: O_16  and  C_17
REMARK    9  A    between atoms: C_18  and  O_19
REMARK   10  A    between atoms: O_19  and  C_20
REMARK   11  A    between atoms: C_21  and  N_22
REMARK                            x       y       z     vdW  Elec       q    Type
REMARK                         _______ _______ _______ _____ _____    ______ ____
ROOT
ATOM      1  C   UNL     1       4.451   5.839  17.732  0.00  0.00    +0.000 A 
ATOM      2  C   UNL     1       5.528   6.730  17.736  0.00  0.00    +0.000 A 
ATOM      3  C   UNL     1       6.591   6.569  16.862  0.00  0.00    +0.000 A 
ATOM      4  C   UNL     1       6.624   5.456  15.994  0.00  0.00    +0.000 A 
ATOM      5  C   UNL     1       5.577   4.489  16.026  0.00  0.00    +0.000 A 
ATOM      6  C   UNL     1       4.482   4.671  16.921  0.00  0.00    +0.000 A 
ENDROOT
BRANCH   6   7
ATOM      7  N   UNL     1       3.347   3.815  16.927  0.00  0.00    +0.000 N 
ATOM      8  H   UNL     1       3.001   3.635  17.860  0.00  0.00    +0.000 HD
ATOM      9  H   UNL     1       2.567   4.221  16.391  0.00  0.00    +0.000 HD
ENDBRANCH   6   7
BRANCH   1  10
ATOM     10  C   UNL     1       3.318   6.113  18.675  0.00  0.00    +0.000 C 
ATOM     11  O   UNL     1       3.034   5.265  19.525  0.00  0.00    +0.000 OA
BRANCH  10  16
ATOM     12  C   UNL     1       0.159   9.813  21.076  0.00  0.00    +0.000 A 
ATOM     13  C   UNL     1       0.667   8.667  21.681  0.00  0.00    +0.000 A 
ATOM     14  C   UNL     1       1.519   7.804  20.980  0.00  0.00    +0.000 A 
ATOM     15  C   UNL     1       1.842   8.072  19.632  0.00  0.00    +0.000 A 
ATOM     16  C   UNL     1       2.615   7.398  18.623  0.00  0.00    +0.000 A 
ATOM     17  C   UNL     1       2.582   8.205  17.502  0.00  0.00    +0.000 A 
ATOM     18  N   UNL     1       1.791   9.289  17.763  0.00  0.00    +0.000 N 
ATOM     19  C   UNL     1       1.316   9.227  19.052  0.00  0.00    +0.000 A 
ATOM     20  C   UNL     1       0.468  10.104  19.742  0.00  0.00    +0.000 A 
ATOM     21  H   UNL     1       1.580  10.029  17.107  0.00  0.00    +0.000 HD
BRANCH  12  23
ATOM     22  C   UNL     1      -0.916  10.481  23.072  0.00  0.00    +0.000 C 
ATOM     23  O   UNL     1      -0.676  10.712  21.685  0.00  0.00    +0.000 OA
ENDBRANCH  12  23
ENDBRANCH  10  16
ENDBRANCH   1  10
BRANCH   3  24
ATOM     24  O   UNL     1       7.618   7.479  16.763  0.00  0.00    +0.000 OA
ATOM     25  C   UNL     1       8.006   8.150  17.958  0.00  0.00    +0.000 C 
ENDBRANCH   3  24
BRANCH   4  26
ATOM     26  O   UNL     1       7.735   5.461  15.179  0.00  0.00    +0.000 OA
ATOM     27  C   UNL     1       7.610   5.566  13.771  0.00  0.00    +0.000 C 
ENDBRANCH   4  26
BRANCH   5  28
ATOM     28  O   UNL     1       5.734   3.464  15.132  0.00  0.00    +0.000 OA
ATOM     29  C   UNL     1       5.274   3.502  13.797  0.00  0.00    +0.000 C 
ENDBRANCH   5  28
TORSDOF 7
ENDMDL
MODEL 9
REMARK VINA RESULT:      -6.1      3.061      4.928
REMARK  Name = 
REMARK  11 active torsions:
REMARK  status: ('A' for Active; 'I' for Inactive)
REMARK    1  A    between atoms: C_1  and  O_2
REMARK    2  A    between atoms: O_2  and  C_3
REMARK    3  A    between atoms: C_7  and  C_8
REMARK    4  A    between atoms: C_8  and  C_10
REMARK    5  A    between atoms: C_12  and  O_13
REMARK    6  A    between atoms: O_13  and  C_14
REMARK    7  A    between atoms: C_15  and  O_16
REMARK    8  A    between atoms: O_16  and  C_17
REMARK    9  A    between atoms: C_18  and  O_19
REMARK   10  A    between atoms: O_19  and  C_20
REMARK   11  A    between atoms: C_21  and  N_22
REMARK                            x       y       z     vdW  Elec       q    Type
REMARK                         _______ _______ _______ _____ _____    ______ ____
ROOT
ATOM      1  C   UNL     1       1.157  11.995  19.541  0.00  0.00    +0.000 A 
ATOM      2  C   UNL     1       0.809  12.516  20.792  0.00  0.00    +0.000 A 
ATOM      3  C   UNL     1       1.290  13.745  21.212  0.00  0.00    +0.000 A 
ATOM      4  C   UNL     1       2.196  14.461  20.398  0.00  0.00    +0.000 A 
ATOM      5  C   UNL     1       2.629  13.915  19.154  0.00  0.00    +0.000 A 
ATOM      6  C   UNL     1       2.118  12.654  18.726  0.00  0.00    +0.000 A 
ENDROOT
BRANCH   6   7
ATOM      7  N   UNL     1       2.411  12.102  17.449  0.00  0.00    +0.000 N 
ATOM      8  H   UNL     1       3.018  11.297  17.504  0.00  0.00    +0.000 HD
ATOM      9  H   UNL     1       1.554  11.801  16.964  0.00  0.00    +0.000 HD
ENDBRANCH   6   7
BRANCH   1  10
ATOM     10  C   UNL     1       0.553  10.683  19.142  0.00  0.00    +0.000 C 
ATOM     11  O   UNL     1      -0.371  10.680  18.324  0.00  0.00    +0.000 OA
BRANCH  10  16
ATOM     12  C   UNL     1       3.519   6.203  18.388  0.00  0.00    +0.000 A 
ATOM     13  C   UNL     1       3.372   7.241  17.471  0.00  0.00    +0.000 A 
ATOM     14  C   UNL     1       2.622   8.380  17.793  0.00  0.00    +0.000 A 
ATOM     15  C   UNL     1       1.973   8.468  19.043  0.00  0.00    +0.000 A 
ATOM     16  C   UNL     1       1.104   9.431  19.666  0.00  0.00    +0.000 A 
ATOM     17  C   UNL     1       0.837   8.951  20.935  0.00  0.00    +0.000 A 
ATOM     18  N   UNL     1       1.445   7.736  21.083  0.00  0.00    +0.000 N 
ATOM     19  C   UNL     1       2.136   7.411  19.939  0.00  0.00    +0.000 A 
ATOM     20  C   UNL     1       2.889   6.269  19.635  0.00  0.00    +0.000 A 
ATOM     21  H   UNL     1       1.397   7.156  21.910  0.00  0.00    +0.000 HD
BRANCH  12  23
ATOM     22  C   UNL     1       5.253   4.771  19.116  0.00  0.00    +0.000 C 
ATOM     23  O   UNL     1       4.234   5.057  18.160  0.00  0.00    +0.000 OA
ENDBRANCH  12  23
ENDBRANCH  10  16
ENDBRANCH   1  10
BRANCH   3  24
ATOM     24  O   UNL     1       0.892  14.339  22.387  0.00  0.00    +0.000 OA
ATOM     25  C   UNL     1      -0.508  14.387  22.647  0.00  0.00    +0.000 C 
ENDBRANCH   3  24
BRANCH   4  26
ATOM     26  O   UNL     1       2.555  15.670  20.953  0.00  0.00    +0.000 OA
ATOM     27  C   UNL     1       1.987  16.884  20.494  0.00  0.00    +0.000 C 
ENDBRANCH   4  26
BRANCH   5  28
ATOM     28  O   UNL     1       3.503  14.713  18.467  0.00  0.00    +0.000 OA
ATOM     29  C   UNL     1       4.909  14.594  18.539  0.00  0.00    +0.000 C 
ENDBRANCH   5  28
TORSDOF 7
ENDMDL
