MODEL 1
REMARK VINA RESULT:      -7.6      0.000      0.000
REMARK  Name = 
REMARK  7 active torsions:
REMARK  status: ('A' for Active; 'I' for Inactive)
REMARK    1  A    between atoms: C_1  and  C_2
REMARK    2  A    between atoms: C_9  and  O_10
REMARK    3  A    between atoms: O_10  and  C_11
REMARK    4  A    between atoms: C_11  and  C_12
REMARK    5  A    between atoms: C_15  and  C_16
REMARK    6  A    between atoms: C_16  and  C_17
REMARK    7  A    between atoms: N_20  and  C_21
REMARK                            x       y       z     vdW  Elec       q    Type
REMARK                         _______ _______ _______ _____ _____    ______ ____
ROOT
ATOM      1  C   UNL     1       0.696   2.057  18.646  0.00  0.00    +0.000 C 
ATOM      2  C   UNL     1       1.946   2.874  18.559  0.00  0.00    +0.000 A 
ATOM      3  C   UNL     1       1.991   4.022  17.797  0.00  0.00    +0.000 A 
ATOM      4  C   UNL     1       3.166   4.758  17.766  0.00  0.00    +0.000 A 
ATOM      5  C   UNL     1       4.293   4.333  18.467  0.00  0.00    +0.000 A 
ATOM      6  N   UNL     1       5.442   5.115  18.398  0.00  0.00    +0.000 N 
ATOM      7  C   UNL     1       6.332   5.080  19.551  0.00  0.00    +0.000 C 
ATOM      8  C   UNL     1       7.392   6.078  19.109  0.00  0.00    +0.000 C 
ATOM      9  C   UNL     1       7.609   5.768  17.616  0.00  0.00    +0.000 C 
ATOM     10  C   UNL     1       6.315   4.989  17.189  0.00  0.00    +0.000 C 
ATOM     11  N   UNL     1       4.203   3.219  19.226  0.00  0.00    +0.000 NA
ATOM     12  N   UNL     1       3.023   2.482  19.271  0.00  0.00    +0.000 NA
ENDROOT
BRANCH   9  13
ATOM     13  O   UNL     1       7.827   6.972  16.874  0.00  0.00    +0.000 OA
BRANCH  13  14
ATOM     14  C   UNL     1       7.440   8.145  17.589  0.00  0.00    +0.000 C 
BRANCH  14  15
ATOM     15  C   UNL     1       8.627   9.041  17.758  0.00  0.00    +0.000 C 
ATOM     16  C   UNL     1       8.481  10.536  17.904  0.00  0.00    +0.000 C 
ATOM     17  C   UNL     1       8.877   9.706  19.092  0.00  0.00    +0.000 C 
ENDBRANCH  14  15
ENDBRANCH  13  14
ENDBRANCH   9  13
BRANCH  10  18
ATOM     18  C   UNL     1       5.625   5.470  15.912  0.00  0.00    +0.000 C 
BRANCH  18  19
ATOM     19  C   UNL     1       5.933   4.743  14.652  0.00  0.00    +0.000 A 
ATOM     20  C   UNL     1       7.087   4.904  13.855  0.00  0.00    +0.000 A 
ATOM     21  N   UNL     1       7.033   4.203  12.721  0.00  0.00    +0.000 NA
ATOM     22  N   UNL     1       5.836   3.598  12.784  0.00  0.00    +0.000 N 
ATOM     23  C   UNL     1       5.372   2.808  11.670  0.00  0.00    +0.000 C 
ATOM     24  C   UNL     1       5.147   3.860  13.934  0.00  0.00    +0.000 A 
ENDBRANCH  18  19
ENDBRANCH  10  18
TORSDOF 5
ENDMDL
MODEL 2
REMARK VINA RESULT:      -6.6      3.369      7.106
REMARK  Name = 
REMARK  7 active torsions:
REMARK  status: ('A' for Active; 'I' for Inactive)
REMARK    1  A    between atoms: C_1  and  C_2
REMARK    2  A    between atoms: C_9  and  O_10
REMARK    3  A    between atoms: O_10  and  C_11
REMARK    4  A    between atoms: C_11  and  C_12
REMARK    5  A    between atoms: C_15  and  C_16
REMARK    6  A    between atoms: C_16  and  C_17
REMARK    7  A    between atoms: N_20  and  C_21
REMARK                            x       y       z     vdW  Elec       q    Type
REMARK                         _______ _______ _______ _____ _____    ______ ____
ROOT
ATOM      1  C   UNL     1       7.680   5.244  13.918  0.00  0.00    +0.000 C 
ATOM      2  C   UNL     1       6.816   4.960  15.105  0.00  0.00    +0.000 A 
ATOM      3  C   UNL     1       5.441   4.945  14.994  0.00  0.00    +0.000 A 
ATOM      4  C   UNL     1       4.683   4.654  16.118  0.00  0.00    +0.000 A 
ATOM      5  C   UNL     1       5.294   4.409  17.347  0.00  0.00    +0.000 A 
ATOM      6  N   UNL     1       4.480   4.120  18.438  0.00  0.00    +0.000 N 
ATOM      7  C   UNL     1       5.045   3.265  19.473  0.00  0.00    +0.000 C 
ATOM      8  C   UNL     1       3.856   3.155  20.417  0.00  0.00    +0.000 C 
ATOM      9  C   UNL     1       3.262   4.577  20.450  0.00  0.00    +0.000 C 
ATOM     10  C   UNL     1       3.817   5.259  19.149  0.00  0.00    +0.000 C 
ATOM     11  N   UNL     1       6.644   4.403  17.411  0.00  0.00    +0.000 NA
ATOM     12  N   UNL     1       7.411   4.682  16.284  0.00  0.00    +0.000 NA
ENDROOT
BRANCH   9  13
ATOM     13  O   UNL     1       1.834   4.528  20.510  0.00  0.00    +0.000 OA
BRANCH  13  14
ATOM     14  C   UNL     1       1.333   3.228  20.822  0.00  0.00    +0.000 C 
BRANCH  14  15
ATOM     15  C   UNL     1       0.599   2.680  19.638  0.00  0.00    +0.000 C 
ATOM     16  C   UNL     1       0.742   3.284  18.263  0.00  0.00    +0.000 C 
ATOM     17  C   UNL     1       1.362   1.948  18.559  0.00  0.00    +0.000 C 
ENDBRANCH  14  15
ENDBRANCH  13  14
ENDBRANCH   9  13
BRANCH  10  18
ATOM     18  C   UNL     1       2.793   5.983  18.275  0.00  0.00    +0.000 C 
BRANCH  18  19
ATOM     19  C   UNL     1       2.382   7.350  18.690  0.00  0.00    +0.000 A 
ATOM     20  C   UNL     1       1.850   7.718  19.945  0.00  0.00    +0.000 A 
ATOM     21  N   UNL     1       1.465   8.995  19.987  0.00  0.00    +0.000 NA
ATOM     22  N   UNL     1       1.740   9.446  18.753  0.00  0.00    +0.000 N 
ATOM     23  C   UNL     1       1.369  10.790  18.381  0.00  0.00    +0.000 C 
ATOM     24  C   UNL     1       2.320   8.512  17.942  0.00  0.00    +0.000 A 
ENDBRANCH  18  19
ENDBRANCH  10  18
TORSDOF 5
ENDMDL
MODEL 3
REMARK VINA RESULT:      -6.2      3.055      7.445
REMARK  Name = 
REMARK  7 active torsions:
REMARK  status: ('A' for Active; 'I' for Inactive)
REMARK    1  A    between atoms: C_1  and  C_2
REMARK    2  A    between atoms: C_9  and  O_10
REMARK    3  A    between atoms: O_10  and  C_11
REMARK    4  A    between atoms: C_11  and  C_12
REMARK    5  A    between atoms: C_15  and  C_16
REMARK    6  A    between atoms: C_16  and  C_17
REMARK    7  A    between atoms: N_20  and  C_21
REMARK                            x       y       z     vdW  Elec       q    Type
REMARK                         _______ _______ _______ _____ _____    ______ ____
ROOT
ATOM      1  C   UNL     1       9.410   9.890  18.502  0.00  0.00    +0.000 C 
ATOM      2  C   UNL     1       8.425   8.790  18.267  0.00  0.00    +0.000 A 
ATOM      3  C   UNL     1       7.417   8.929  17.335  0.00  0.00    +0.000 A 
ATOM      4  C   UNL     1       6.542   7.872  17.136  0.00  0.00    +0.000 A 
ATOM      5  C   UNL     1       6.656   6.701  17.882  0.00  0.00    +0.000 A 
ATOM      6  N   UNL     1       5.748   5.674  17.635  0.00  0.00    +0.000 N 
ATOM      7  C   UNL     1       6.211   4.314  17.875  0.00  0.00    +0.000 C 
ATOM      8  C   UNL     1       4.983   3.527  17.443  0.00  0.00    +0.000 C 
ATOM      9  C   UNL     1       3.795   4.337  17.999  0.00  0.00    +0.000 C 
ATOM     10  C   UNL     1       4.386   5.770  18.247  0.00  0.00    +0.000 C 
ATOM     11  N   UNL     1       7.673   6.589  18.764  0.00  0.00    +0.000 NA
ATOM     12  N   UNL     1       8.563   7.641  18.961  0.00  0.00    +0.000 NA
ENDROOT
BRANCH   9  13
ATOM     13  O   UNL     1       2.696   4.318  17.083  0.00  0.00    +0.000 OA
BRANCH  13  14
ATOM     14  C   UNL     1       1.464   3.946  17.700  0.00  0.00    +0.000 C 
BRANCH  14  15
ATOM     15  C   UNL     1       1.730   3.458  19.091  0.00  0.00    +0.000 C 
ATOM     16  C   UNL     1       0.870   3.874  20.258  0.00  0.00    +0.000 C 
ATOM     17  C   UNL     1       0.782   2.470  19.731  0.00  0.00    +0.000 C 
ENDBRANCH  14  15
ENDBRANCH  13  14
ENDBRANCH   9  13
BRANCH  10  18
ATOM     18  C   UNL     1       3.573   6.942  17.697  0.00  0.00    +0.000 C 
BRANCH  18  19
ATOM     19  C   UNL     1       2.680   7.662  18.644  0.00  0.00    +0.000 A 
ATOM     20  C   UNL     1       2.305   7.226  19.933  0.00  0.00    +0.000 A 
ATOM     21  N   UNL     1       1.400   8.023  20.504  0.00  0.00    +0.000 NA
ATOM     22  N   UNL     1       1.185   8.968  19.574  0.00  0.00    +0.000 N 
ATOM     23  C   UNL     1       0.178   9.977  19.797  0.00  0.00    +0.000 C 
ATOM     24  C   UNL     1       1.948   8.819  18.451  0.00  0.00    +0.000 A 
ENDBRANCH  18  19
ENDBRANCH  10  18
TORSDOF 5
ENDMDL
MODEL 4
REMARK VINA RESULT:      -6.0      3.223      6.912
REMARK  Name = 
REMARK  7 active torsions:
REMARK  status: ('A' for Active; 'I' for Inactive)
REMARK    1  A    between atoms: C_1  and  C_2
REMARK    2  A    between atoms: C_9  and  O_10
REMARK    3  A    between atoms: O_10  and  C_11
REMARK    4  A    between atoms: C_11  and  C_12
REMARK    5  A    between atoms: C_15  and  C_16
REMARK    6  A    between atoms: C_16  and  C_17
REMARK    7  A    between atoms: N_20  and  C_21
REMARK                            x       y       z     vdW  Elec       q    Type
REMARK                         _______ _______ _______ _____ _____    ______ ____
ROOT
ATOM      1  C   UNL     1       7.713   5.053  13.353  0.00  0.00    +0.000 C 
ATOM      2  C   UNL     1       6.885   4.979  14.596  0.00  0.00    +0.000 A 
ATOM      3  C   UNL     1       5.511   4.882  14.528  0.00  0.00    +0.000 A 
ATOM      4  C   UNL     1       4.789   4.793  15.709  0.00  0.00    +0.000 A 
ATOM      5  C   UNL     1       5.432   4.832  16.944  0.00  0.00    +0.000 A 
ATOM      6  N   UNL     1       4.653   4.736  18.093  0.00  0.00    +0.000 N 
ATOM      7  C   UNL     1       5.278   4.136  19.265  0.00  0.00    +0.000 C 
ATOM      8  C   UNL     1       4.113   4.168  20.243  0.00  0.00    +0.000 C 
ATOM      9  C   UNL     1       3.451   5.539  20.003  0.00  0.00    +0.000 C 
ATOM     10  C   UNL     1       3.948   5.965  18.576  0.00  0.00    +0.000 C 
ATOM     11  N   UNL     1       6.781   4.899  16.971  0.00  0.00    +0.000 NA
ATOM     12  N   UNL     1       7.514   4.976  15.790  0.00  0.00    +0.000 NA
ENDROOT
BRANCH   9  13
ATOM     13  O   UNL     1       2.027   5.441  20.111  0.00  0.00    +0.000 OA
BRANCH  13  14
ATOM     14  C   UNL     1       1.592   4.174  20.605  0.00  0.00    +0.000 C 
BRANCH  14  15
ATOM     15  C   UNL     1       0.703   3.523  19.592  0.00  0.00    +0.000 C 
ATOM     16  C   UNL     1       1.126   3.354  18.154  0.00  0.00    +0.000 C 
ATOM     17  C   UNL     1       1.057   2.155  19.057  0.00  0.00    +0.000 C 
ENDBRANCH  14  15
ENDBRANCH  13  14
ENDBRANCH   9  13
BRANCH  10  18
ATOM     18  C   UNL     1       2.874   6.449  17.601  0.00  0.00    +0.000 C 
BRANCH  18  19
ATOM     19  C   UNL     1       2.340   7.823  17.797  0.00  0.00    +0.000 A 
ATOM     20  C   UNL     1       0.979   8.198  17.801  0.00  0.00    +0.000 A 
ATOM     21  N   UNL     1       0.809   9.519  17.882  0.00  0.00    +0.000 NA
ATOM     22  N   UNL     1       2.063   9.995  17.919  0.00  0.00    +0.000 N 
ATOM     23  C   UNL     1       2.291  11.420  17.914  0.00  0.00    +0.000 C 
ATOM     24  C   UNL     1       3.022   9.022  17.902  0.00  0.00    +0.000 A 
ENDBRANCH  18  19
ENDBRANCH  10  18
TORSDOF 5
ENDMDL
MODEL 5
REMARK VINA RESULT:      -6.0      3.313      7.020
REMARK  Name = 
REMARK  7 active torsions:
REMARK  status: ('A' for Active; 'I' for Inactive)
REMARK    1  A    between atoms: C_1  and  C_2
REMARK    2  A    between atoms: C_9  and  O_10
REMARK    3  A    between atoms: O_10  and  C_11
REMARK    4  A    between atoms: C_11  and  C_12
REMARK    5  A    between atoms: C_15  and  C_16
REMARK    6  A    between atoms: C_16  and  C_17
REMARK    7  A    between atoms: N_20  and  C_21
REMARK                            x       y       z     vdW  Elec       q    Type
REMARK                         _______ _______ _______ _____ _____    ______ ____
ROOT
ATOM      1  C   UNL     1       7.684   5.191  13.958  0.00  0.00    +0.000 C 
ATOM      2  C   UNL     1       6.792   5.009  15.145  0.00  0.00    +0.000 A 
ATOM      3  C   UNL     1       5.424   4.906  14.994  0.00  0.00    +0.000 A 
ATOM      4  C   UNL     1       4.641   4.714  16.123  0.00  0.00    +0.000 A 
ATOM      5  C   UNL     1       5.217   4.658  17.391  0.00  0.00    +0.000 A 
ATOM      6  N   UNL     1       4.379   4.462  18.484  0.00  0.00    +0.000 N 
ATOM      7  C   UNL     1       4.947   3.774  19.635  0.00  0.00    +0.000 C 
ATOM      8  C   UNL     1       3.732   3.717  20.548  0.00  0.00    +0.000 C 
ATOM      9  C   UNL     1       3.066   5.096  20.384  0.00  0.00    +0.000 C 
ATOM     10  C   UNL     1       3.633   5.641  19.026  0.00  0.00    +0.000 C 
ATOM     11  N   UNL     1       6.562   4.734  17.496  0.00  0.00    +0.000 NA
ATOM     12  N   UNL     1       7.355   4.913  16.367  0.00  0.00    +0.000 NA
ENDROOT
BRANCH   9  13
ATOM     13  O   UNL     1       1.640   4.978  20.407  0.00  0.00    +0.000 OA
BRANCH  13  14
ATOM     14  C   UNL     1       1.192   3.625  20.326  0.00  0.00    +0.000 C 
BRANCH  14  15
ATOM     15  C   UNL     1       0.860   3.293  18.904  0.00  0.00    +0.000 C 
ATOM     16  C   UNL     1       1.835   2.572  18.007  0.00  0.00    +0.000 C 
ATOM     17  C   UNL     1       0.614   1.856  18.510  0.00  0.00    +0.000 C 
ENDBRANCH  14  15
ENDBRANCH  13  14
ENDBRANCH   9  13
BRANCH  10  18
ATOM     18  C   UNL     1       2.606   6.194  18.036  0.00  0.00    +0.000 C 
BRANCH  18  19
ATOM     19  C   UNL     1       2.232   7.628  18.167  0.00  0.00    +0.000 A 
ATOM     20  C   UNL     1       2.801   8.707  17.456  0.00  0.00    +0.000 A 
ATOM     21  N   UNL     1       2.347   9.892  17.869  0.00  0.00    +0.000 NA
ATOM     22  N   UNL     1       1.492   9.574  18.854  0.00  0.00    +0.000 N 
ATOM     23  C   UNL     1       0.858  10.620  19.620  0.00  0.00    +0.000 C 
ATOM     24  C   UNL     1       1.360   8.229  19.055  0.00  0.00    +0.000 A 
ENDBRANCH  18  19
ENDBRANCH  10  18
TORSDOF 5
ENDMDL
MODEL 6
REMARK VINA RESULT:      -5.9      3.923      5.380
REMARK  Name = 
REMARK  7 active torsions:
REMARK  status: ('A' for Active; 'I' for Inactive)
REMARK    1  A    between atoms: C_1  and  C_2
REMARK    2  A    between atoms: C_9  and  O_10
REMARK    3  A    between atoms: O_10  and  C_11
REMARK    4  A    between atoms: C_11  and  C_12
REMARK    5  A    between atoms: C_15  and  C_16
REMARK    6  A    between atoms: C_16  and  C_17
REMARK    7  A    between atoms: N_20  and  C_21
REMARK                            x       y       z     vdW  Elec       q    Type
REMARK                         _______ _______ _______ _____ _____    ______ ____
ROOT
ATOM      1  C   UNL     1       3.920   0.775  18.723  0.00  0.00    +0.000 C 
ATOM      2  C   UNL     1       3.398   2.164  18.911  0.00  0.00    +0.000 A 
ATOM      3  C   UNL     1       2.942   2.900  17.837  0.00  0.00    +0.000 A 
ATOM      4  C   UNL     1       2.445   4.175  18.065  0.00  0.00    +0.000 A 
ATOM      5  C   UNL     1       2.433   4.718  19.348  0.00  0.00    +0.000 A 
ATOM      6  N   UNL     1       1.921   6.002  19.513  0.00  0.00    +0.000 N 
ATOM      7  C   UNL     1       1.311   6.307  20.800  0.00  0.00    +0.000 C 
ATOM      8  C   UNL     1       0.846   7.734  20.551  0.00  0.00    +0.000 C 
ATOM      9  C   UNL     1       2.003   8.382  19.766  0.00  0.00    +0.000 C 
ATOM     10  C   UNL     1       2.801   7.165  19.177  0.00  0.00    +0.000 C 
ATOM     11  N   UNL     1       2.861   3.956  20.379  0.00  0.00    +0.000 NA
ATOM     12  N   UNL     1       3.349   2.672  20.160  0.00  0.00    +0.000 NA
ENDROOT
BRANCH   9  13
ATOM     13  O   UNL     1       1.501   9.278  18.770  0.00  0.00    +0.000 OA
BRANCH  13  14
ATOM     14  C   UNL     1       1.198  10.573  19.288  0.00  0.00    +0.000 C 
BRANCH  14  15
ATOM     15  C   UNL     1      -0.079  11.066  18.681  0.00  0.00    +0.000 C 
ATOM     16  C   UNL     1      -1.062  10.128  18.025  0.00  0.00    +0.000 C 
ATOM     17  C   UNL     1      -1.396  10.751  19.351  0.00  0.00    +0.000 C 
ENDBRANCH  14  15
ENDBRANCH  13  14
ENDBRANCH   9  13
BRANCH  10  18
ATOM     18  C   UNL     1       3.141   7.236  17.688  0.00  0.00    +0.000 C 
BRANCH  18  19
ATOM     19  C   UNL     1       4.472   6.723  17.265  0.00  0.00    +0.000 A 
ATOM     20  C   UNL     1       4.988   6.724  15.951  0.00  0.00    +0.000 A 
ATOM     21  N   UNL     1       6.159   6.091  15.856  0.00  0.00    +0.000 NA
ATOM     22  N   UNL     1       6.391   5.673  17.111  0.00  0.00    +0.000 N 
ATOM     23  C   UNL     1       7.545   4.854  17.392  0.00  0.00    +0.000 C 
ATOM     24  C   UNL     1       5.428   6.050  18.004  0.00  0.00    +0.000 A 
ENDBRANCH  18  19
ENDBRANCH  10  18
TORSDOF 5
ENDMDL
MODEL 7
REMARK VINA RESULT:      -5.8      3.616      7.672
REMARK  Name = 
REMARK  7 active torsions:
REMARK  status: ('A' for Active; 'I' for Inactive)
REMARK    1  A    between atoms: C_1  and  C_2
REMARK    2  A    between atoms: C_9  and  O_10
REMARK    3  A    between atoms: O_10  and  C_11
REMARK    4  A    between atoms: C_11  and  C_12
REMARK    5  A    between atoms: C_15  and  C_16
REMARK    6  A    between atoms: C_16  and  C_17
REMARK    7  A    between atoms: N_20  and  C_21
REMARK                            x       y       z     vdW  Elec       q    Type
REMARK                         _______ _______ _______ _____ _____    ______ ____
ROOT
ATOM      1  C   UNL     1       8.108   7.786  17.201  0.00  0.00    +0.000 C 
ATOM      2  C   UNL     1       7.052   6.925  17.817  0.00  0.00    +0.000 A 
ATOM      3  C   UNL     1       5.812   6.792  17.225  0.00  0.00    +0.000 A 
ATOM      4  C   UNL     1       4.874   5.963  17.822  0.00  0.00    +0.000 A 
ATOM      5  C   UNL     1       5.162   5.300  19.013  0.00  0.00    +0.000 A 
ATOM      6  N   UNL     1       4.179   4.481  19.562  0.00  0.00    +0.000 N 
ATOM      7  C   UNL     1       4.634   3.344  20.351  0.00  0.00    +0.000 C 
ATOM      8  C   UNL     1       3.300   2.703  20.703  0.00  0.00    +0.000 C 
ATOM      9  C   UNL     1       2.378   3.894  21.028  0.00  0.00    +0.000 C 
ATOM     10  C   UNL     1       3.078   5.123  20.346  0.00  0.00    +0.000 C 
ATOM     11  N   UNL     1       6.396   5.431  19.547  0.00  0.00    +0.000 NA
ATOM     12  N   UNL     1       7.347   6.250  18.947  0.00  0.00    +0.000 NA
ENDROOT
BRANCH   9  13
ATOM     13  O   UNL     1       1.050   3.651  20.554  0.00  0.00    +0.000 OA
BRANCH  13  14
ATOM     14  C   UNL     1       0.884   2.343  20.008  0.00  0.00    +0.000 C 
BRANCH  14  15
ATOM     15  C   UNL     1       0.803   2.433  18.515  0.00  0.00    +0.000 C 
ATOM     16  C   UNL     1       1.357   3.615  17.758  0.00  0.00    +0.000 C 
ATOM     17  C   UNL     1       2.061   2.289  17.689  0.00  0.00    +0.000 C 
ENDBRANCH  14  15
ENDBRANCH  13  14
ENDBRANCH   9  13
BRANCH  10  18
ATOM     18  C   UNL     1       2.186   6.018  19.485  0.00  0.00    +0.000 C 
BRANCH  18  19
ATOM     19  C   UNL     1       1.795   7.338  20.046  0.00  0.00    +0.000 A 
ATOM     20  C   UNL     1       1.286   7.578  21.341  0.00  0.00    +0.000 A 
ATOM     21  N   UNL     1       0.913   8.847  21.522  0.00  0.00    +0.000 NA
ATOM     22  N   UNL     1       1.172   9.421  20.336  0.00  0.00    +0.000 N 
ATOM     23  C   UNL     1       0.808  10.798  20.112  0.00  0.00    +0.000 C 
ATOM     24  C   UNL     1       1.731   8.572  19.424  0.00  0.00    +0.000 A 
ENDBRANCH  18  19
ENDBRANCH  10  18
TORSDOF 5
ENDMDL
MODEL 8
REMARK VINA RESULT:      -5.8      2.813      5.040
REMARK  Name = 
REMARK  7 active torsions:
REMARK  status: ('A' for Active; 'I' for Inactive)
REMARK    1  A    between atoms: C_1  and  C_2
REMARK    2  A    between atoms: C_9  and  O_10
REMARK    3  A    between atoms: O_10  and  C_11
REMARK    4  A    between atoms: C_11  and  C_12
REMARK    5  A    between atoms: C_15  and  C_16
REMARK    6  A    between atoms: C_16  and  C_17
REMARK    7  A    between atoms: N_20  and  C_21
REMARK                            x       y       z     vdW  Elec       q    Type
REMARK                         _______ _______ _______ _____ _____    ______ ____
ROOT
ATOM      1  C   UNL     1       0.133   2.135  19.860  0.00  0.00    +0.000 C 
ATOM      2  C   UNL     1       1.245   2.858  19.168  0.00  0.00    +0.000 A 
ATOM      3  C   UNL     1       2.135   3.636  19.880  0.00  0.00    +0.000 A 
ATOM      4  C   UNL     1       3.163   4.268  19.197  0.00  0.00    +0.000 A 
ATOM      5  C   UNL     1       3.281   4.148  17.814  0.00  0.00    +0.000 A 
ATOM      6  N   UNL     1       4.336   4.806  17.186  0.00  0.00    +0.000 N 
ATOM      7  C   UNL     1       4.850   4.205  15.962  0.00  0.00    +0.000 C 
ATOM      8  C   UNL     1       5.986   5.166  15.643  0.00  0.00    +0.000 C 
ATOM      9  C   UNL     1       5.408   6.559  15.957  0.00  0.00    +0.000 C 
ATOM     10  C   UNL     1       4.194   6.269  16.909  0.00  0.00    +0.000 C 
ATOM     11  N   UNL     1       2.409   3.355  17.155  0.00  0.00    +0.000 NA
ATOM     12  N   UNL     1       1.382   2.707  17.835  0.00  0.00    +0.000 NA
ENDROOT
BRANCH   9  13
ATOM     13  O   UNL     1       6.406   7.404  16.537  0.00  0.00    +0.000 OA
BRANCH  13  14
ATOM     14  C   UNL     1       7.548   6.682  16.997  0.00  0.00    +0.000 C 
BRANCH  14  15
ATOM     15  C   UNL     1       7.561   6.671  18.495  0.00  0.00    +0.000 C 
ATOM     16  C   UNL     1       6.871   5.588  19.287  0.00  0.00    +0.000 C 
ATOM     17  C   UNL     1       8.372   5.627  19.227  0.00  0.00    +0.000 C 
ENDBRANCH  14  15
ENDBRANCH  13  14
ENDBRANCH   9  13
BRANCH  10  18
ATOM     18  C   UNL     1       4.121   7.106  18.187  0.00  0.00    +0.000 C 
BRANCH  18  19
ATOM     19  C   UNL     1       2.877   7.884  18.427  0.00  0.00    +0.000 A 
ATOM     20  C   UNL     1       2.271   8.788  17.528  0.00  0.00    +0.000 A 
ATOM     21  N   UNL     1       1.228   9.427  18.063  0.00  0.00    +0.000 NA
ATOM     22  N   UNL     1       1.171   8.940  19.312  0.00  0.00    +0.000 N 
ATOM     23  C   UNL     1       0.208   9.471  20.246  0.00  0.00    +0.000 C 
ATOM     24  C   UNL     1       2.116   7.989  19.577  0.00  0.00    +0.000 A 
ENDBRANCH  18  19
ENDBRANCH  10  18
TORSDOF 5
ENDMDL
MODEL 9
REMARK VINA RESULT:      -5.8      9.768     11.629
REMARK  Name = 
REMARK  7 active torsions:
REMARK  status: ('A' for Active; 'I' for Inactive)
REMARK    1  A    between atoms: C_1  and  C_2
REMARK    2  A    between atoms: C_9  and  O_10
REMARK    3  A    between atoms: O_10  and  C_11
REMARK    4  A    between atoms: C_11  and  C_12
REMARK    5  A    between atoms: C_15  and  C_16
REMARK    6  A    between atoms: C_16  and  C_17
REMARK    7  A    between atoms: N_20  and  C_21
REMARK                            x       y       z     vdW  Elec       q    Type
REMARK                         _______ _______ _______ _____ _____    ______ ____
ROOT
ATOM      1  C   UNL     1      -3.600  10.153  14.563  0.00  0.00    +0.000 C 
ATOM      2  C   UNL     1      -2.986  10.396  15.906  0.00  0.00    +0.000 A 
ATOM      3  C   UNL     1      -3.545  11.298  16.787  0.00  0.00    +0.000 A 
ATOM      4  C   UNL     1      -2.952  11.473  18.029  0.00  0.00    +0.000 A 
ATOM      5  C   UNL     1      -1.796  10.774  18.373  0.00  0.00    +0.000 A 
ATOM      6  N   UNL     1      -1.250  10.990  19.635  0.00  0.00    +0.000 N 
ATOM      7  C   UNL     1      -0.519   9.882  20.234  0.00  0.00    +0.000 C 
ATOM      8  C   UNL     1      -0.152  10.492  21.579  0.00  0.00    +0.000 C 
ATOM      9  C   UNL     1       0.245  11.943  21.245  0.00  0.00    +0.000 C 
ATOM     10  C   UNL     1      -0.409  12.210  19.843  0.00  0.00    +0.000 C 
ATOM     11  N   UNL     1      -1.295   9.877  17.495  0.00  0.00    +0.000 NA
ATOM     12  N   UNL     1      -1.891   9.688  16.252  0.00  0.00    +0.000 NA
ENDROOT
BRANCH   9  13
ATOM     13  O   UNL     1      -0.197  12.839  22.269  0.00  0.00    +0.000 OA
BRANCH  13  14
ATOM     14  C   UNL     1      -1.165  12.254  23.140  0.00  0.00    +0.000 C 
BRANCH  14  15
ATOM     15  C   UNL     1      -2.403  13.095  23.146  0.00  0.00    +0.000 C 
ATOM     16  C   UNL     1      -3.642  12.692  22.385  0.00  0.00    +0.000 C 
ATOM     17  C   UNL     1      -3.630  12.614  23.885  0.00  0.00    +0.000 C 
ENDBRANCH  14  15
ENDBRANCH  13  14
ENDBRANCH   9  13
BRANCH  10  18
ATOM     18  C   UNL     1      -1.209  13.507  19.706  0.00  0.00    +0.000 C 
BRANCH  18  19
ATOM     19  C   UNL     1      -0.442  14.772  19.559  0.00  0.00    +0.000 A 
ATOM     20  C   UNL     1      -0.860  16.056  19.971  0.00  0.00    +0.000 A 
ATOM     21  N   UNL     1      -0.014  17.018  19.600  0.00  0.00    +0.000 NA
ATOM     22  N   UNL     1       0.947  16.352  18.939  0.00  0.00    +0.000 N 
ATOM     23  C   UNL     1       2.013  17.081  18.297  0.00  0.00    +0.000 C 
ATOM     24  C   UNL     1       0.758  14.999  18.910  0.00  0.00    +0.000 A 
ENDBRANCH  18  19
ENDBRANCH  10  18
TORSDOF 5
ENDMDL
