MODEL 1
REMARK VINA RESULT:      -8.2      0.000      0.000
REMARK  Name = 
REMARK  4 active torsions:
REMARK  status: ('A' for Active; 'I' for Inactive)
REMARK    1  A    between atoms: C_1  and  O_2
REMARK    2  A    between atoms: O_2  and  C_3
REMARK    3  A    between atoms: C_6  and  C_7
REMARK    4  A    between atoms: N_15  and  C_16
REMARK                            x       y       z     vdW  Elec       q    Type
REMARK                         _______ _______ _______ _____ _____    ______ ____
ROOT
ATOM      1  C   UNL     1       2.531   7.287  19.236  0.00  0.00    +0.000 A 
ATOM      2  N   UNL     1       2.944   7.417  17.981  0.00  0.00    +0.000 NA
ATOM      3  C   UNL     1       3.862   6.414  17.808  0.00  0.00    +0.000 A 
ATOM      4  C   UNL     1       4.634   6.039  16.703  0.00  0.00    +0.000 A 
ATOM      5  C   UNL     1       5.617   5.070  16.927  0.00  0.00    +0.000 A 
ATOM      6  C   UNL     1       5.751   4.511  18.192  0.00  0.00    +0.000 A 
ATOM      7  N   UNL     1       4.918   4.727  19.236  0.00  0.00    +0.000 NA
ATOM      8  C   UNL     1       4.003   5.679  18.970  0.00  0.00    +0.000 A 
ATOM      9  N   UNL     1       2.878   6.009  19.687  0.00  0.00    +0.000 N 
ENDROOT
BRANCH   1  13
ATOM     10  C   UNL     1       0.431  10.220  21.382  0.00  0.00    +0.000 A 
ATOM     11  C   UNL     1       0.789   9.065  22.048  0.00  0.00    +0.000 A 
ATOM     12  C   UNL     1       1.438   8.064  21.327  0.00  0.00    +0.000 A 
ATOM     13  C   UNL     1       1.712   8.250  19.968  0.00  0.00    +0.000 A 
ATOM     14  C   UNL     1       1.175   9.389  19.376  0.00  0.00    +0.000 A 
ATOM     15  N   UNL     1       0.565  10.391  20.047  0.00  0.00    +0.000 NA
BRANCH  10  17
ATOM     16  C   UNL     1      -1.075  10.846  23.043  0.00  0.00    +0.000 C 
ATOM     17  O   UNL     1      -0.046  11.261  22.149  0.00  0.00    +0.000 OA
ENDBRANCH  10  17
ENDBRANCH   1  13
BRANCH   9  18
ATOM     18  C   UNL     1       1.863   5.033  20.064  0.00  0.00    +0.000 C 
ATOM     19  C   UNL     1       1.569   4.048  18.921  0.00  0.00    +0.000 C 
ATOM     20  C   UNL     1       0.840   2.888  19.576  0.00  0.00    +0.000 C 
ATOM     21  C   UNL     1       1.211   2.929  21.056  0.00  0.00    +0.000 C 
ATOM     22  C   UNL     1       2.161   4.114  21.247  0.00  0.00    +0.000 C 
ENDBRANCH   9  18
TORSDOF 3
ENDMDL
MODEL 2
REMARK VINA RESULT:      -8.2      3.716      7.168
REMARK  Name = 
REMARK  4 active torsions:
REMARK  status: ('A' for Active; 'I' for Inactive)
REMARK    1  A    between atoms: C_1  and  O_2
REMARK    2  A    between atoms: O_2  and  C_3
REMARK    3  A    between atoms: C_6  and  C_7
REMARK    4  A    between atoms: N_15  and  C_16
REMARK                            x       y       z     vdW  Elec       q    Type
REMARK                         _______ _______ _______ _____ _____    ______ ____
ROOT
ATOM      1  C   UNL     1       4.172   3.936  17.777  0.00  0.00    +0.000 A 
ATOM      2  N   UNL     1       3.489   2.803  17.895  0.00  0.00    +0.000 NA
ATOM      3  C   UNL     1       2.792   2.934  19.068  0.00  0.00    +0.000 A 
ATOM      4  C   UNL     1       1.901   2.076  19.722  0.00  0.00    +0.000 A 
ATOM      5  C   UNL     1       1.504   2.451  21.009  0.00  0.00    +0.000 A 
ATOM      6  C   UNL     1       1.970   3.644  21.549  0.00  0.00    +0.000 A 
ATOM      7  N   UNL     1       2.696   4.573  20.886  0.00  0.00    +0.000 NA
ATOM      8  C   UNL     1       3.062   4.154  19.659  0.00  0.00    +0.000 A 
ATOM      9  N   UNL     1       3.605   4.886  18.631  0.00  0.00    +0.000 N 
ENDROOT
BRANCH   1  13
ATOM     10  C   UNL     1       7.157   4.978  15.016  0.00  0.00    +0.000 A 
ATOM     11  C   UNL     1       5.943   4.545  14.522  0.00  0.00    +0.000 A 
ATOM     12  C   UNL     1       4.966   4.145  15.432  0.00  0.00    +0.000 A 
ATOM     13  C   UNL     1       5.232   4.195  16.804  0.00  0.00    +0.000 A 
ATOM     14  C   UNL     1       6.535   4.508  17.175  0.00  0.00    +0.000 A 
ATOM     15  N   UNL     1       7.499   4.925  16.324  0.00  0.00    +0.000 NA
BRANCH  10  17
ATOM     16  C   UNL     1       7.744   5.155  12.771  0.00  0.00    +0.000 C 
ATOM     17  O   UNL     1       8.038   5.533  14.112  0.00  0.00    +0.000 OA
ENDBRANCH  10  17
ENDBRANCH   1  13
BRANCH   9  18
ATOM     18  C   UNL     1       2.991   6.103  18.114  0.00  0.00    +0.000 C 
ATOM     19  C   UNL     1       2.254   6.881  19.216  0.00  0.00    +0.000 C 
ATOM     20  C   UNL     1       2.039   8.271  18.644  0.00  0.00    +0.000 C 
ATOM     21  C   UNL     1       3.087   8.450  17.548  0.00  0.00    +0.000 C 
ATOM     22  C   UNL     1       3.906   7.159  17.497  0.00  0.00    +0.000 C 
ENDBRANCH   9  18
TORSDOF 3
ENDMDL
MODEL 3
REMARK VINA RESULT:      -7.8      0.662      1.085
REMARK  Name = 
REMARK  4 active torsions:
REMARK  status: ('A' for Active; 'I' for Inactive)
REMARK    1  A    between atoms: C_1  and  O_2
REMARK    2  A    between atoms: O_2  and  C_3
REMARK    3  A    between atoms: C_6  and  C_7
REMARK    4  A    between atoms: N_15  and  C_16
REMARK                            x       y       z     vdW  Elec       q    Type
REMARK                         _______ _______ _______ _____ _____    ______ ____
ROOT
ATOM      1  C   UNL     1       2.599   7.311  19.042  0.00  0.00    +0.000 A 
ATOM      2  N   UNL     1       3.042   7.414  17.794  0.00  0.00    +0.000 NA
ATOM      3  C   UNL     1       3.952   6.398  17.658  0.00  0.00    +0.000 A 
ATOM      4  C   UNL     1       4.743   5.995  16.577  0.00  0.00    +0.000 A 
ATOM      5  C   UNL     1       5.709   5.018  16.839  0.00  0.00    +0.000 A 
ATOM      6  C   UNL     1       5.809   4.481  18.117  0.00  0.00    +0.000 A 
ATOM      7  N   UNL     1       4.956   4.725  19.139  0.00  0.00    +0.000 NA
ATOM      8  C   UNL     1       4.058   5.682  18.836  0.00  0.00    +0.000 A 
ATOM      9  N   UNL     1       2.922   6.038  19.522  0.00  0.00    +0.000 N 
ENDROOT
BRANCH   1  13
ATOM     10  C   UNL     1      -0.005   9.958  20.999  0.00  0.00    +0.000 A 
ATOM     11  C   UNL     1       0.334  10.234  19.690  0.00  0.00    +0.000 A 
ATOM     12  C   UNL     1       1.241   9.390  19.051  0.00  0.00    +0.000 A 
ATOM     13  C   UNL     1       1.776   8.297  19.739  0.00  0.00    +0.000 A 
ATOM     14  C   UNL     1       1.474   8.204  21.093  0.00  0.00    +0.000 A 
ATOM     15  N   UNL     1       0.580   8.987  21.738  0.00  0.00    +0.000 NA
BRANCH  10  17
ATOM     16  C   UNL     1      -0.988  10.702  22.973  0.00  0.00    +0.000 C 
ATOM     17  O   UNL     1      -1.031  10.695  21.548  0.00  0.00    +0.000 OA
ENDBRANCH  10  17
ENDBRANCH   1  13
BRANCH   9  18
ATOM     18  C   UNL     1       1.888   5.080  19.894  0.00  0.00    +0.000 C 
ATOM     19  C   UNL     1       1.698   4.001  18.816  0.00  0.00    +0.000 C 
ATOM     20  C   UNL     1       0.927   2.887  19.502  0.00  0.00    +0.000 C 
ATOM     21  C   UNL     1       1.174   3.054  21.000  0.00  0.00    +0.000 C 
ATOM     22  C   UNL     1       2.094   4.265  21.169  0.00  0.00    +0.000 C 
ENDBRANCH   9  18
TORSDOF 3
ENDMDL
MODEL 4
REMARK VINA RESULT:      -7.8      1.371      1.788
REMARK  Name = 
REMARK  4 active torsions:
REMARK  status: ('A' for Active; 'I' for Inactive)
REMARK    1  A    between atoms: C_1  and  O_2
REMARK    2  A    between atoms: O_2  and  C_3
REMARK    3  A    between atoms: C_6  and  C_7
REMARK    4  A    between atoms: N_15  and  C_16
REMARK                            x       y       z     vdW  Elec       q    Type
REMARK                         _______ _______ _______ _____ _____    ______ ____
ROOT
ATOM      1  C   UNL     1       2.939   7.290  18.309  0.00  0.00    +0.000 A 
ATOM      2  N   UNL     1       3.622   7.332  17.171  0.00  0.00    +0.000 NA
ATOM      3  C   UNL     1       4.522   6.302  17.262  0.00  0.00    +0.000 A 
ATOM      4  C   UNL     1       5.504   5.844  16.378  0.00  0.00    +0.000 A 
ATOM      5  C   UNL     1       6.381   4.871  16.868  0.00  0.00    +0.000 A 
ATOM      6  C   UNL     1       6.216   4.390  18.162  0.00  0.00    +0.000 A 
ATOM      7  N   UNL     1       5.183   4.689  18.982  0.00  0.00    +0.000 NA
ATOM      8  C   UNL     1       4.380   5.640  18.467  0.00  0.00    +0.000 A 
ATOM      9  N   UNL     1       3.137   6.037  18.898  0.00  0.00    +0.000 N 
ENDROOT
BRANCH   1  13
ATOM     10  C   UNL     1       0.053  10.024  19.655  0.00  0.00    +0.000 A 
ATOM     11  C   UNL     1       0.452  10.102  18.336  0.00  0.00    +0.000 A 
ATOM     12  C   UNL     1       1.450   9.234  17.896  0.00  0.00    +0.000 A 
ATOM     13  C   UNL     1       2.012   8.314  18.787  0.00  0.00    +0.000 A 
ATOM     14  C   UNL     1       1.635   8.427  20.120  0.00  0.00    +0.000 A 
ATOM     15  N   UNL     1       0.654   9.237  20.577  0.00  0.00    +0.000 NA
BRANCH  10  17
ATOM     16  C   UNL     1      -1.829  11.163  18.894  0.00  0.00    +0.000 C 
ATOM     17  O   UNL     1      -1.051  10.764  20.019  0.00  0.00    +0.000 OA
ENDBRANCH  10  17
ENDBRANCH   1  13
BRANCH   9  18
ATOM     18  C   UNL     1       2.032   5.107  19.097  0.00  0.00    +0.000 C 
ATOM     19  C   UNL     1       2.033   3.989  18.042  0.00  0.00    +0.000 C 
ATOM     20  C   UNL     1       1.123   2.912  18.605  0.00  0.00    +0.000 C 
ATOM     21  C   UNL     1       1.081   3.133  20.116  0.00  0.00    +0.000 C 
ATOM     22  C   UNL     1       1.974   4.338  20.416  0.00  0.00    +0.000 C 
ENDBRANCH   9  18
TORSDOF 3
ENDMDL
MODEL 5
REMARK VINA RESULT:      -7.8      1.862      3.968
REMARK  Name = 
REMARK  4 active torsions:
REMARK  status: ('A' for Active; 'I' for Inactive)
REMARK    1  A    between atoms: C_1  and  O_2
REMARK    2  A    between atoms: O_2  and  C_3
REMARK    3  A    between atoms: C_6  and  C_7
REMARK    4  A    between atoms: N_15  and  C_16
REMARK                            x       y       z     vdW  Elec       q    Type
REMARK                         _______ _______ _______ _____ _____    ______ ____
ROOT
ATOM      1  C   UNL     1       2.685   6.126  19.058  0.00  0.00    +0.000 A 
ATOM      2  N   UNL     1       2.328   5.188  19.927  0.00  0.00    +0.000 NA
ATOM      3  C   UNL     1       2.802   4.017  19.393  0.00  0.00    +0.000 A 
ATOM      4  C   UNL     1       2.741   2.695  19.848  0.00  0.00    +0.000 A 
ATOM      5  C   UNL     1       3.174   1.708  18.957  0.00  0.00    +0.000 A 
ATOM      6  C   UNL     1       3.668   2.078  17.712  0.00  0.00    +0.000 A 
ATOM      7  N   UNL     1       3.895   3.348  17.305  0.00  0.00    +0.000 NA
ATOM      8  C   UNL     1       3.446   4.256  18.193  0.00  0.00    +0.000 A 
ATOM      9  N   UNL     1       3.688   5.608  18.233  0.00  0.00    +0.000 N 
ENDROOT
BRANCH   1  13
ATOM     10  C   UNL     1       1.085  10.007  19.023  0.00  0.00    +0.000 A 
ATOM     11  C   UNL     1       1.729   9.563  17.885  0.00  0.00    +0.000 A 
ATOM     12  C   UNL     1       2.311   8.297  17.909  0.00  0.00    +0.000 A 
ATOM     13  C   UNL     1       2.226   7.514  19.065  0.00  0.00    +0.000 A 
ATOM     14  C   UNL     1       1.682   8.123  20.190  0.00  0.00    +0.000 A 
ATOM     15  N   UNL     1       1.086   9.336  20.197  0.00  0.00    +0.000 NA
BRANCH  10  17
ATOM     16  C   UNL     1      -1.033  10.970  19.061  0.00  0.00    +0.000 C 
ATOM     17  O   UNL     1       0.369  11.180  18.918  0.00  0.00    +0.000 OA
ENDBRANCH  10  17
ENDBRANCH   1  13
BRANCH   9  18
ATOM     18  C   UNL     1       5.032   6.173  18.221  0.00  0.00    +0.000 C 
ATOM     19  C   UNL     1       6.022   5.301  19.010  0.00  0.00    +0.000 C 
ATOM     20  C   UNL     1       7.399   5.770  18.572  0.00  0.00    +0.000 C 
ATOM     21  C   UNL     1       7.211   6.439  17.212  0.00  0.00    +0.000 C 
ATOM     22  C   UNL     1       5.723   6.347  16.870  0.00  0.00    +0.000 C 
ENDBRANCH   9  18
TORSDOF 3
ENDMDL
MODEL 6
REMARK VINA RESULT:      -7.7      1.485      1.942
REMARK  Name = 
REMARK  4 active torsions:
REMARK  status: ('A' for Active; 'I' for Inactive)
REMARK    1  A    between atoms: C_1  and  O_2
REMARK    2  A    between atoms: O_2  and  C_3
REMARK    3  A    between atoms: C_6  and  C_7
REMARK    4  A    between atoms: N_15  and  C_16
REMARK                            x       y       z     vdW  Elec       q    Type
REMARK                         _______ _______ _______ _____ _____    ______ ____
ROOT
ATOM      1  C   UNL     1       3.550   6.811  18.137  0.00  0.00    +0.000 A 
ATOM      2  N   UNL     1       4.141   6.904  16.951  0.00  0.00    +0.000 NA
ATOM      3  C   UNL     1       5.216   6.056  17.028  0.00  0.00    +0.000 A 
ATOM      4  C   UNL     1       6.208   5.724  16.099  0.00  0.00    +0.000 A 
ATOM      5  C   UNL     1       7.274   4.952  16.572  0.00  0.00    +0.000 A 
ATOM      6  C   UNL     1       7.279   4.530  17.896  0.00  0.00    +0.000 A 
ATOM      7  N   UNL     1       6.262   4.692  18.773  0.00  0.00    +0.000 NA
ATOM      8  C   UNL     1       5.271   5.453  18.272  0.00  0.00    +0.000 A 
ATOM      9  N   UNL     1       4.006   5.651  18.771  0.00  0.00    +0.000 N 
ENDROOT
BRANCH   1  13
ATOM     10  C   UNL     1       0.703   9.534  19.584  0.00  0.00    +0.000 A 
ATOM     11  C   UNL     1       1.198   8.591  20.461  0.00  0.00    +0.000 A 
ATOM     12  C   UNL     1       2.102   7.649  19.974  0.00  0.00    +0.000 A 
ATOM     13  C   UNL     1       2.485   7.683  18.629  0.00  0.00    +0.000 A 
ATOM     14  C   UNL     1       1.811   8.585  17.813  0.00  0.00    +0.000 A 
ATOM     15  N   UNL     1       0.950   9.528  18.255  0.00  0.00    +0.000 NA
BRANCH  10  17
ATOM     16  C   UNL     1      -1.043  11.031  19.223  0.00  0.00    +0.000 C 
ATOM     17  O   UNL     1      -0.047  10.557  20.125  0.00  0.00    +0.000 OA
ENDBRANCH  10  17
ENDBRANCH   1  13
BRANCH   9  18
ATOM     18  C   UNL     1       3.101   4.555  19.094  0.00  0.00    +0.000 C 
ATOM     19  C   UNL     1       2.603   4.639  20.547  0.00  0.00    +0.000 C 
ATOM     20  C   UNL     1       1.397   3.719  20.606  0.00  0.00    +0.000 C 
ATOM     21  C   UNL     1       0.889   3.585  19.171  0.00  0.00    +0.000 C 
ATOM     22  C   UNL     1       1.807   4.435  18.291  0.00  0.00    +0.000 C 
ENDBRANCH   9  18
TORSDOF 3
ENDMDL
MODEL 7
REMARK VINA RESULT:      -7.6      1.289      1.520
REMARK  Name = 
REMARK  4 active torsions:
REMARK  status: ('A' for Active; 'I' for Inactive)
REMARK    1  A    between atoms: C_1  and  O_2
REMARK    2  A    between atoms: O_2  and  C_3
REMARK    3  A    between atoms: C_6  and  C_7
REMARK    4  A    between atoms: N_15  and  C_16
REMARK                            x       y       z     vdW  Elec       q    Type
REMARK                         _______ _______ _______ _____ _____    ______ ____
ROOT
ATOM      1  C   UNL     1       3.366   6.955  18.201  0.00  0.00    +0.000 A 
ATOM      2  N   UNL     1       4.049   7.143  17.078  0.00  0.00    +0.000 NA
ATOM      3  C   UNL     1       5.052   6.210  17.116  0.00  0.00    +0.000 A 
ATOM      4  C   UNL     1       6.084   5.916  16.219  0.00  0.00    +0.000 A 
ATOM      5  C   UNL     1       7.056   5.011  16.658  0.00  0.00    +0.000 A 
ATOM      6  C   UNL     1       6.932   4.432  17.916  0.00  0.00    +0.000 A 
ATOM      7  N   UNL     1       5.867   4.566  18.739  0.00  0.00    +0.000 NA
ATOM      8  C   UNL     1       4.972   5.459  18.274  0.00  0.00    +0.000 A 
ATOM      9  N   UNL     1       3.691   5.694  18.711  0.00  0.00    +0.000 N 
ENDROOT
BRANCH   1  13
ATOM     10  C   UNL     1       0.614   9.712  19.764  0.00  0.00    +0.000 A 
ATOM     11  C   UNL     1       1.066   8.708  20.596  0.00  0.00    +0.000 A 
ATOM     12  C   UNL     1       1.937   7.757  20.068  0.00  0.00    +0.000 A 
ATOM     13  C   UNL     1       2.331   7.842  18.729  0.00  0.00    +0.000 A 
ATOM     14  C   UNL     1       1.699   8.808  17.954  0.00  0.00    +0.000 A 
ATOM     15  N   UNL     1       0.870   9.761  18.437  0.00  0.00    +0.000 NA
BRANCH  10  17
ATOM     16  C   UNL     1      -0.272  10.540  21.751  0.00  0.00    +0.000 C 
ATOM     17  O   UNL     1      -0.100  10.735  20.350  0.00  0.00    +0.000 OA
ENDBRANCH  10  17
ENDBRANCH   1  13
BRANCH   9  18
ATOM     18  C   UNL     1       2.689   4.642  18.834  0.00  0.00    +0.000 C 
ATOM     19  C   UNL     1       2.766   3.644  17.667  0.00  0.00    +0.000 C 
ATOM     20  C   UNL     1       1.984   2.428  18.133  0.00  0.00    +0.000 C 
ATOM     21  C   UNL     1       1.968   2.488  19.659  0.00  0.00    +0.000 C 
ATOM     22  C   UNL     1       2.747   3.740  20.066  0.00  0.00    +0.000 C 
ENDBRANCH   9  18
TORSDOF 3
ENDMDL
MODEL 8
REMARK VINA RESULT:      -7.5      1.671      2.307
REMARK  Name = 
REMARK  4 active torsions:
REMARK  status: ('A' for Active; 'I' for Inactive)
REMARK    1  A    between atoms: C_1  and  O_2
REMARK    2  A    between atoms: O_2  and  C_3
REMARK    3  A    between atoms: C_6  and  C_7
REMARK    4  A    between atoms: N_15  and  C_16
REMARK                            x       y       z     vdW  Elec       q    Type
REMARK                         _______ _______ _______ _____ _____    ______ ____
ROOT
ATOM      1  C   UNL     1       3.621   6.852  18.065  0.00  0.00    +0.000 A 
ATOM      2  N   UNL     1       4.165   6.878  16.854  0.00  0.00    +0.000 NA
ATOM      3  C   UNL     1       5.214   5.997  16.921  0.00  0.00    +0.000 A 
ATOM      4  C   UNL     1       6.154   5.594  15.967  0.00  0.00    +0.000 A 
ATOM      5  C   UNL     1       7.213   4.805  16.428  0.00  0.00    +0.000 A 
ATOM      6  C   UNL     1       7.259   4.436  17.766  0.00  0.00    +0.000 A 
ATOM      7  N   UNL     1       6.285   4.667  18.677  0.00  0.00    +0.000 NA
ATOM      8  C   UNL     1       5.300   5.442  18.185  0.00  0.00    +0.000 A 
ATOM      9  N   UNL     1       4.064   5.703  18.726  0.00  0.00    +0.000 N 
ENDROOT
BRANCH   1  13
ATOM     10  C   UNL     1       0.503   9.293  19.458  0.00  0.00    +0.000 A 
ATOM     11  C   UNL     1       0.922   9.461  18.153  0.00  0.00    +0.000 A 
ATOM     12  C   UNL     1       1.993   8.693  17.701  0.00  0.00    +0.000 A 
ATOM     13  C   UNL     1       2.607   7.779  18.564  0.00  0.00    +0.000 A 
ATOM     14  C   UNL     1       2.195   7.803  19.892  0.00  0.00    +0.000 A 
ATOM     15  N   UNL     1       1.145   8.514  20.359  0.00  0.00    +0.000 NA
BRANCH  10  17
ATOM     16  C   UNL     1      -1.245  10.657  18.750  0.00  0.00    +0.000 C 
ATOM     17  O   UNL     1      -0.662   9.929  19.828  0.00  0.00    +0.000 OA
ENDBRANCH  10  17
ENDBRANCH   1  13
BRANCH   9  18
ATOM     18  C   UNL     1       3.138   4.652  19.130  0.00  0.00    +0.000 C 
ATOM     19  C   UNL     1       2.644   4.854  20.572  0.00  0.00    +0.000 C 
ATOM     20  C   UNL     1       1.419   3.965  20.699  0.00  0.00    +0.000 C 
ATOM     21  C   UNL     1       0.907   3.736  19.279  0.00  0.00    +0.000 C 
ATOM     22  C   UNL     1       1.841   4.500  18.338  0.00  0.00    +0.000 C 
ENDBRANCH   9  18
TORSDOF 3
ENDMDL
MODEL 9
REMARK VINA RESULT:      -7.3      1.983      4.036
REMARK  Name = 
REMARK  4 active torsions:
REMARK  status: ('A' for Active; 'I' for Inactive)
REMARK    1  A    between atoms: C_1  and  O_2
REMARK    2  A    between atoms: O_2  and  C_3
REMARK    3  A    between atoms: C_6  and  C_7
REMARK    4  A    between atoms: N_15  and  C_16
REMARK                            x       y       z     vdW  Elec       q    Type
REMARK                         _______ _______ _______ _____ _____    ______ ____
ROOT
ATOM      1  C   UNL     1       2.610   6.270  18.885  0.00  0.00    +0.000 A 
ATOM      2  N   UNL     1       2.226   5.373  19.785  0.00  0.00    +0.000 NA
ATOM      3  C   UNL     1       2.721   4.180  19.326  0.00  0.00    +0.000 A 
ATOM      4  C   UNL     1       2.648   2.882  19.842  0.00  0.00    +0.000 A 
ATOM      5  C   UNL     1       3.114   1.854  19.015  0.00  0.00    +0.000 A 
ATOM      6  C   UNL     1       3.648   2.166  17.771  0.00  0.00    +0.000 A 
ATOM      7  N   UNL     1       3.885   3.416  17.311  0.00  0.00    +0.000 NA
ATOM      8  C   UNL     1       3.404   4.364  18.138  0.00  0.00    +0.000 A 
ATOM      9  N   UNL     1       3.642   5.717  18.120  0.00  0.00    +0.000 N 
ENDROOT
BRANCH   1  13
ATOM     10  C   UNL     1       1.560  10.332  18.754  0.00  0.00    +0.000 A 
ATOM     11  C   UNL     1       1.181   9.602  19.863  0.00  0.00    +0.000 A 
ATOM     12  C   UNL     1       1.478   8.241  19.888  0.00  0.00    +0.000 A 
ATOM     13  C   UNL     1       2.147   7.655  18.809  0.00  0.00    +0.000 A 
ATOM     14  C   UNL     1       2.347   8.456  17.690  0.00  0.00    +0.000 A 
ATOM     15  N   UNL     1       2.096   9.784  17.640  0.00  0.00    +0.000 NA
BRANCH  10  17
ATOM     16  C   UNL     1       2.458  12.390  18.142  0.00  0.00    +0.000 C 
ATOM     17  O   UNL     1       1.417  11.701  18.828  0.00  0.00    +0.000 OA
ENDBRANCH  10  17
ENDBRANCH   1  13
BRANCH   9  18
ATOM     18  C   UNL     1       4.983   6.287  18.126  0.00  0.00    +0.000 C 
ATOM     19  C   UNL     1       5.952   5.451  18.978  0.00  0.00    +0.000 C 
ATOM     20  C   UNL     1       7.340   5.907  18.563  0.00  0.00    +0.000 C 
ATOM     21  C   UNL     1       7.191   6.521  17.173  0.00  0.00    +0.000 C 
ATOM     22  C   UNL     1       5.714   6.410  16.790  0.00  0.00    +0.000 C 
ENDBRANCH   9  18
TORSDOF 3
ENDMDL
