MODEL 1
REMARK VINA RESULT:      -7.8      0.000      0.000
REMARK  Name = 
REMARK  7 active torsions:
REMARK  status: ('A' for Active; 'I' for Inactive)
REMARK    1  A    between atoms: C_1  and  O_2
REMARK    2  A    between atoms: O_2  and  C_3
REMARK    3  A    between atoms: C_6  and  N_7
REMARK    4  A    between atoms: C_8  and  C_10
REMARK    5  A    between atoms: C_12  and  N_13
REMARK    6  A    between atoms: C_16  and  S_17
REMARK    7  A    between atoms: S_17  and  C_18
REMARK                            x       y       z     vdW  Elec       q    Type
REMARK                         _______ _______ _______ _____ _____    ______ ____
ROOT
ATOM      1  C   UNL     1       2.205   6.583  20.144  0.00  0.00    +0.000 A 
ATOM      2  C   UNL     1       1.653   5.441  20.687  0.00  0.00    +0.000 A 
ATOM      3  C   UNL     1       2.489   4.295  20.518  0.00  0.00    +0.000 A 
ATOM      4  C   UNL     1       3.656   4.577  19.830  0.00  0.00    +0.000 A 
ATOM      5  S   UNL     1       3.704   6.245  19.406  0.00  0.00    +0.000 S 
ENDROOT
BRANCH   1   7
ATOM      6  N   UNL     1       1.149   8.327  21.408  0.00  0.00    +0.000 N 
ATOM      7  C   UNL     1       1.610   7.916  20.169  0.00  0.00    +0.000 C 
ATOM      8  O   UNL     1       1.565   8.594  19.148  0.00  0.00    +0.000 OA
ATOM      9  H   UNL     1       1.361   7.716  22.187  0.00  0.00    +0.000 HD
BRANCH   6  13
ATOM     10  C   UNL     1      -0.826  11.899  22.474  0.00  0.00    +0.000 A 
ATOM     11  C   UNL     1       0.106  11.912  21.438  0.00  0.00    +0.000 A 
ATOM     12  C   UNL     1       0.761  10.740  21.054  0.00  0.00    +0.000 A 
ATOM     13  C   UNL     1       0.505   9.540  21.716  0.00  0.00    +0.000 A 
ATOM     14  C   UNL     1      -0.444   9.525  22.745  0.00  0.00    +0.000 A 
ATOM     15  C   UNL     1      -1.098  10.702  23.131  0.00  0.00    +0.000 A 
BRANCH  10  17
ATOM     16  C   UNL     1      -2.754  13.128  23.082  0.00  0.00    +0.000 C 
ATOM     17  O   UNL     1      -1.365  13.118  22.776  0.00  0.00    +0.000 OA
ENDBRANCH  10  17
ENDBRANCH   6  13
ENDBRANCH   1   7
BRANCH   3  18
ATOM     18  N   UNL     1       2.116   3.007  21.010  0.00  0.00    +0.000 N 
ATOM     19  O   UNL     1       2.561   2.688  22.119  0.00  0.00    +0.000 OA
ATOM     20  O   UNL     1       1.465   2.295  20.241  0.00  0.00    +0.000 OA
ENDBRANCH   3  18
BRANCH   4  21
ATOM     21  S   UNL     1       4.904   3.475  19.229  0.00  0.00    +0.000 S 
BRANCH  21  22
ATOM     22  C   UNL     1       5.526   4.399  17.812  0.00  0.00    +0.000 A 
ATOM     23  C   UNL     1       4.826   4.382  16.593  0.00  0.00    +0.000 A 
ATOM     24 CL   UNL     1       3.282   3.635  16.383  0.00  0.00    +0.000 Cl
ATOM     25  C   UNL     1       5.343   5.078  15.505  0.00  0.00    +0.000 A 
ATOM     26  N   UNL     1       6.463   5.833  15.552  0.00  0.00    +0.000 NA
ATOM     27  C   UNL     1       7.074   5.918  16.753  0.00  0.00    +0.000 A 
ATOM     28  C   UNL     1       6.652   5.240  17.895  0.00  0.00    +0.000 A 
ATOM     29 CL   UNL     1       7.510   5.565  19.359  0.00  0.00    +0.000 Cl
ENDBRANCH  21  22
ENDBRANCH   4  21
TORSDOF 6
ENDMDL
MODEL 2
REMARK VINA RESULT:      -7.7      0.194      1.100
REMARK  Name = 
REMARK  7 active torsions:
REMARK  status: ('A' for Active; 'I' for Inactive)
REMARK    1  A    between atoms: C_1  and  O_2
REMARK    2  A    between atoms: O_2  and  C_3
REMARK    3  A    between atoms: C_6  and  N_7
REMARK    4  A    between atoms: C_8  and  C_10
REMARK    5  A    between atoms: C_12  and  N_13
REMARK    6  A    between atoms: C_16  and  S_17
REMARK    7  A    between atoms: S_17  and  C_18
REMARK                            x       y       z     vdW  Elec       q    Type
REMARK                         _______ _______ _______ _____ _____    ______ ____
ROOT
ATOM      1  C   UNL     1       2.288   6.481  20.163  0.00  0.00    +0.000 A 
ATOM      2  C   UNL     1       1.754   5.314  20.671  0.00  0.00    +0.000 A 
ATOM      3  C   UNL     1       2.612   4.189  20.474  0.00  0.00    +0.000 A 
ATOM      4  C   UNL     1       3.777   4.511  19.800  0.00  0.00    +0.000 A 
ATOM      5  S   UNL     1       3.796   6.191  19.424  0.00  0.00    +0.000 S 
ENDROOT
BRANCH   1   7
ATOM      6  N   UNL     1       1.215   8.179  21.475  0.00  0.00    +0.000 N 
ATOM      7  C   UNL     1       1.669   7.802  20.223  0.00  0.00    +0.000 C 
ATOM      8  O   UNL     1       1.599   8.499  19.216  0.00  0.00    +0.000 OA
ATOM      9  H   UNL     1       1.447   7.556  22.239  0.00  0.00    +0.000 HD
BRANCH   6  13
ATOM     10  C   UNL     1      -0.732  11.817  22.350  0.00  0.00    +0.000 A 
ATOM     11  C   UNL     1      -1.027  10.682  23.103  0.00  0.00    +0.000 A 
ATOM     12  C   UNL     1      -0.384   9.469  22.845  0.00  0.00    +0.000 A 
ATOM     13  C   UNL     1       0.552   9.372  21.816  0.00  0.00    +0.000 A 
ATOM     14  C   UNL     1       0.858  10.517  21.072  0.00  0.00    +0.000 A 
ATOM     15  C   UNL     1       0.211  11.732  21.329  0.00  0.00    +0.000 A 
BRANCH  10  17
ATOM     16  C   UNL     1      -2.866  12.745  22.779  0.00  0.00    +0.000 C 
ATOM     17  O   UNL     1      -1.459  12.927  22.677  0.00  0.00    +0.000 OA
ENDBRANCH  10  17
ENDBRANCH   6  13
ENDBRANCH   1   7
BRANCH   3  18
ATOM     18  N   UNL     1       2.260   2.881  20.928  0.00  0.00    +0.000 N 
ATOM     19  O   UNL     1       1.571   2.197  20.162  0.00  0.00    +0.000 OA
ATOM     20  O   UNL     1       2.593   2.594  22.080  0.00  0.00    +0.000 OA
ENDBRANCH   3  18
BRANCH   4  21
ATOM     21  S   UNL     1       5.047   3.449  19.175  0.00  0.00    +0.000 S 
BRANCH  21  22
ATOM     22  C   UNL     1       5.573   4.364  17.714  0.00  0.00    +0.000 A 
ATOM     23  C   UNL     1       4.788   4.347  16.547  0.00  0.00    +0.000 A 
ATOM     24 CL   UNL     1       3.229   3.608  16.451  0.00  0.00    +0.000 Cl
ATOM     25  C   UNL     1       5.231   5.036  15.423  0.00  0.00    +0.000 A 
ATOM     26  N   UNL     1       6.355   5.784  15.387  0.00  0.00    +0.000 NA
ATOM     27  C   UNL     1       7.050   5.870  16.541  0.00  0.00    +0.000 A 
ATOM     28  C   UNL     1       6.707   5.199  17.713  0.00  0.00    +0.000 A 
ATOM     29 CL   UNL     1       7.668   5.524  19.112  0.00  0.00    +0.000 Cl
ENDBRANCH  21  22
ENDBRANCH   4  21
TORSDOF 6
ENDMDL
MODEL 3
REMARK VINA RESULT:      -7.5      0.740      2.091
REMARK  Name = 
REMARK  7 active torsions:
REMARK  status: ('A' for Active; 'I' for Inactive)
REMARK    1  A    between atoms: C_1  and  O_2
REMARK    2  A    between atoms: O_2  and  C_3
REMARK    3  A    between atoms: C_6  and  N_7
REMARK    4  A    between atoms: C_8  and  C_10
REMARK    5  A    between atoms: C_12  and  N_13
REMARK    6  A    between atoms: C_16  and  S_17
REMARK    7  A    between atoms: S_17  and  C_18
REMARK                            x       y       z     vdW  Elec       q    Type
REMARK                         _______ _______ _______ _____ _____    ______ ____
ROOT
ATOM      1  C   UNL     1       2.230   6.584  20.089  0.00  0.00    +0.000 A 
ATOM      2  C   UNL     1       1.727   5.416  20.620  0.00  0.00    +0.000 A 
ATOM      3  C   UNL     1       2.600   4.302  20.421  0.00  0.00    +0.000 A 
ATOM      4  C   UNL     1       3.746   4.636  19.722  0.00  0.00    +0.000 A 
ATOM      5  S   UNL     1       3.730   6.312  19.325  0.00  0.00    +0.000 S 
ENDROOT
BRANCH   1   7
ATOM      6  N   UNL     1       0.860   8.142  21.295  0.00  0.00    +0.000 N 
ATOM      7  C   UNL     1       1.590   7.896  20.144  0.00  0.00    +0.000 C 
ATOM      8  O   UNL     1       1.734   8.695  19.224  0.00  0.00    +0.000 OA
ATOM      9  H   UNL     1       0.928   7.441  22.023  0.00  0.00    +0.000 HD
BRANCH   6  13
ATOM     10  C   UNL     1      -1.407  11.618  22.049  0.00  0.00    +0.000 A 
ATOM     11  C   UNL     1      -1.081  10.768  23.104  0.00  0.00    +0.000 A 
ATOM     12  C   UNL     1      -0.317   9.619  22.885  0.00  0.00    +0.000 A 
ATOM     13  C   UNL     1       0.117   9.297  21.599  0.00  0.00    +0.000 A 
ATOM     14  C   UNL     1      -0.198  10.160  20.543  0.00  0.00    +0.000 A 
ATOM     15  C   UNL     1      -0.966  11.310  20.764  0.00  0.00    +0.000 A 
BRANCH  10  17
ATOM     16  C   UNL     1      -3.103  12.469  23.463  0.00  0.00    +0.000 C 
ATOM     17  O   UNL     1      -2.191  12.683  22.392  0.00  0.00    +0.000 OA
ENDBRANCH  10  17
ENDBRANCH   6  13
ENDBRANCH   1   7
BRANCH   3  18
ATOM     18  N   UNL     1       2.279   2.995  20.897  0.00  0.00    +0.000 N 
ATOM     19  O   UNL     1       1.471   2.344  20.224  0.00  0.00    +0.000 OA
ATOM     20  O   UNL     1       2.762   2.675  21.986  0.00  0.00    +0.000 OA
ENDBRANCH   3  18
BRANCH   4  21
ATOM     21  S   UNL     1       5.023   3.589  19.086  0.00  0.00    +0.000 S 
BRANCH  21  22
ATOM     22  C   UNL     1       5.897   4.731  17.999  0.00  0.00    +0.000 A 
ATOM     23  C   UNL     1       6.933   5.536  18.503  0.00  0.00    +0.000 A 
ATOM     24 CL   UNL     1       7.556   5.404  20.110  0.00  0.00    +0.000 Cl
ATOM     25  C   UNL     1       7.571   6.431  17.651  0.00  0.00    +0.000 A 
ATOM     26  N   UNL     1       7.300   6.546  16.333  0.00  0.00    +0.000 NA
ATOM     27  C   UNL     1       6.369   5.702  15.840  0.00  0.00    +0.000 A 
ATOM     28  C   UNL     1       5.655   4.788  16.613  0.00  0.00    +0.000 A 
ATOM     29 CL   UNL     1       4.581   3.724  15.775  0.00  0.00    +0.000 Cl
ENDBRANCH  21  22
ENDBRANCH   4  21
TORSDOF 6
ENDMDL
MODEL 4
REMARK VINA RESULT:      -7.4      2.121      2.334
REMARK  Name = 
REMARK  7 active torsions:
REMARK  status: ('A' for Active; 'I' for Inactive)
REMARK    1  A    between atoms: C_1  and  O_2
REMARK    2  A    between atoms: O_2  and  C_3
REMARK    3  A    between atoms: C_6  and  N_7
REMARK    4  A    between atoms: C_8  and  C_10
REMARK    5  A    between atoms: C_12  and  N_13
REMARK    6  A    between atoms: C_16  and  S_17
REMARK    7  A    between atoms: S_17  and  C_18
REMARK                            x       y       z     vdW  Elec       q    Type
REMARK                         _______ _______ _______ _____ _____    ______ ____
ROOT
ATOM      1  C   UNL     1       2.144   6.654  20.232  0.00  0.00    +0.000 A 
ATOM      2  C   UNL     1       1.569   5.496  20.712  0.00  0.00    +0.000 A 
ATOM      3  C   UNL     1       2.401   4.351  20.519  0.00  0.00    +0.000 A 
ATOM      4  C   UNL     1       3.588   4.650  19.876  0.00  0.00    +0.000 A 
ATOM      5  S   UNL     1       3.660   6.334  19.523  0.00  0.00    +0.000 S 
ENDROOT
BRANCH   1   7
ATOM      6  N   UNL     1       1.529   8.673  19.091  0.00  0.00    +0.000 N 
ATOM      7  C   UNL     1       1.559   7.991  20.296  0.00  0.00    +0.000 C 
ATOM      8  O   UNL     1       1.119   8.425  21.355  0.00  0.00    +0.000 OA
ATOM      9  H   UNL     1       1.814   8.147  18.275  0.00  0.00    +0.000 HD
BRANCH   6  13
ATOM     10  C   UNL     1      -0.027  12.545  18.473  0.00  0.00    +0.000 A 
ATOM     11  C   UNL     1       1.353  12.358  18.518  0.00  0.00    +0.000 A 
ATOM     12  C   UNL     1       1.895  11.084  18.704  0.00  0.00    +0.000 A 
ATOM     13  C   UNL     1       1.058   9.980  18.867  0.00  0.00    +0.000 A 
ATOM     14  C   UNL     1      -0.327  10.167  18.805  0.00  0.00    +0.000 A 
ATOM     15  C   UNL     1      -0.869  11.445  18.621  0.00  0.00    +0.000 A 
BRANCH  10  17
ATOM     16  C   UNL     1       0.438  14.830  18.878  0.00  0.00    +0.000 C 
ATOM     17  O   UNL     1      -0.426  13.843  18.326  0.00  0.00    +0.000 OA
ENDBRANCH  10  17
ENDBRANCH   6  13
ENDBRANCH   1   7
BRANCH   3  18
ATOM     18  N   UNL     1       2.004   3.047  20.947  0.00  0.00    +0.000 N 
ATOM     19  O   UNL     1       1.531   2.301  20.082  0.00  0.00    +0.000 OA
ATOM     20  O   UNL     1       2.080   2.822  22.157  0.00  0.00    +0.000 OA
ENDBRANCH   3  18
BRANCH   4  21
ATOM     21  S   UNL     1       4.844   3.563  19.265  0.00  0.00    +0.000 S 
BRANCH  21  22
ATOM     22  C   UNL     1       5.454   4.502  17.852  0.00  0.00    +0.000 A 
ATOM     23  C   UNL     1       4.738   4.506  16.642  0.00  0.00    +0.000 A 
ATOM     24 CL   UNL     1       3.185   3.774  16.444  0.00  0.00    +0.000 Cl
ATOM     25  C   UNL     1       5.245   5.213  15.557  0.00  0.00    +0.000 A 
ATOM     26  N   UNL     1       6.371   5.959  15.598  0.00  0.00    +0.000 NA
ATOM     27  C   UNL     1       6.999   6.023  16.792  0.00  0.00    +0.000 A 
ATOM     28  C   UNL     1       6.588   5.333  17.930  0.00  0.00    +0.000 A 
ATOM     29 CL   UNL     1       7.468   5.632  19.387  0.00  0.00    +0.000 Cl
ENDBRANCH  21  22
ENDBRANCH   4  21
TORSDOF 6
ENDMDL
MODEL 5
REMARK VINA RESULT:      -7.4      0.645      1.929
REMARK  Name = 
REMARK  7 active torsions:
REMARK  status: ('A' for Active; 'I' for Inactive)
REMARK    1  A    between atoms: C_1  and  O_2
REMARK    2  A    between atoms: O_2  and  C_3
REMARK    3  A    between atoms: C_6  and  N_7
REMARK    4  A    between atoms: C_8  and  C_10
REMARK    5  A    between atoms: C_12  and  N_13
REMARK    6  A    between atoms: C_16  and  S_17
REMARK    7  A    between atoms: S_17  and  C_18
REMARK                            x       y       z     vdW  Elec       q    Type
REMARK                         _______ _______ _______ _____ _____    ______ ____
ROOT
ATOM      1  C   UNL     1       2.114   6.745  20.119  0.00  0.00    +0.000 A 
ATOM      2  C   UNL     1       1.604   5.605  20.704  0.00  0.00    +0.000 A 
ATOM      3  C   UNL     1       2.479   4.483  20.573  0.00  0.00    +0.000 A 
ATOM      4  C   UNL     1       3.633   4.780  19.870  0.00  0.00    +0.000 A 
ATOM      5  S   UNL     1       3.622   6.432  19.387  0.00  0.00    +0.000 S 
ENDROOT
BRANCH   1   7
ATOM      6  N   UNL     1       0.711   8.352  21.216  0.00  0.00    +0.000 N 
ATOM      7  C   UNL     1       1.474   8.057  20.099  0.00  0.00    +0.000 C 
ATOM      8  O   UNL     1       1.647   8.816  19.151  0.00  0.00    +0.000 OA
ATOM      9  H   UNL     1       0.756   7.683  21.975  0.00  0.00    +0.000 HD
BRANCH   6  13
ATOM     10  C   UNL     1      -1.501  11.841  22.069  0.00  0.00    +0.000 A 
ATOM     11  C   UNL     1      -1.134  11.564  20.754  0.00  0.00    +0.000 A 
ATOM     12  C   UNL     1      -0.417  10.407  20.442  0.00  0.00    +0.000 A 
ATOM     13  C   UNL     1      -0.040   9.519  21.448  0.00  0.00    +0.000 A 
ATOM     14  C   UNL     1      -0.423   9.790  22.767  0.00  0.00    +0.000 A 
ATOM     15  C   UNL     1      -1.140  10.951  23.079  0.00  0.00    +0.000 A 
BRANCH  10  17
ATOM     16  C   UNL     1      -2.590  13.682  21.057  0.00  0.00    +0.000 C 
ATOM     17  O   UNL     1      -2.164  13.022  22.244  0.00  0.00    +0.000 OA
ENDBRANCH  10  17
ENDBRANCH   6  13
ENDBRANCH   1   7
BRANCH   3  18
ATOM     18  N   UNL     1       2.152   3.201  21.112  0.00  0.00    +0.000 N 
ATOM     19  O   UNL     1       1.577   2.412  20.352  0.00  0.00    +0.000 OA
ATOM     20  O   UNL     1       2.384   3.037  22.312  0.00  0.00    +0.000 OA
ENDBRANCH   3  18
BRANCH   4  21
ATOM     21  S   UNL     1       4.916   3.701  19.303  0.00  0.00    +0.000 S 
BRANCH  21  22
ATOM     22  C   UNL     1       5.471   4.571  17.825  0.00  0.00    +0.000 A 
ATOM     23  C   UNL     1       6.660   5.322  17.850  0.00  0.00    +0.000 A 
ATOM     24 CL   UNL     1       7.745   5.355  19.194  0.00  0.00    +0.000 Cl
ATOM     25  C   UNL     1       7.050   6.010  16.706  0.00  0.00    +0.000 A 
ATOM     26  N   UNL     1       6.387   5.961  15.530  0.00  0.00    +0.000 NA
ATOM     27  C   UNL     1       5.299   5.162  15.492  0.00  0.00    +0.000 A 
ATOM     28  C   UNL     1       4.811   4.453  16.587  0.00  0.00    +0.000 A 
ATOM     29 CL   UNL     1       3.467   3.404  16.305  0.00  0.00    +0.000 Cl
ENDBRANCH  21  22
ENDBRANCH   4  21
TORSDOF 6
ENDMDL
MODEL 6
REMARK VINA RESULT:      -7.4      1.440      1.737
REMARK  Name = 
REMARK  7 active torsions:
REMARK  status: ('A' for Active; 'I' for Inactive)
REMARK    1  A    between atoms: C_1  and  O_2
REMARK    2  A    between atoms: O_2  and  C_3
REMARK    3  A    between atoms: C_6  and  N_7
REMARK    4  A    between atoms: C_8  and  C_10
REMARK    5  A    between atoms: C_12  and  N_13
REMARK    6  A    between atoms: C_16  and  S_17
REMARK    7  A    between atoms: S_17  and  C_18
REMARK                            x       y       z     vdW  Elec       q    Type
REMARK                         _______ _______ _______ _____ _____    ______ ____
ROOT
ATOM      1  C   UNL     1       2.323   7.001  19.495  0.00  0.00    +0.000 A 
ATOM      2  C   UNL     1       1.660   6.035  20.223  0.00  0.00    +0.000 A 
ATOM      3  C   UNL     1       2.419   4.831  20.354  0.00  0.00    +0.000 A 
ATOM      4  C   UNL     1       3.639   4.890  19.704  0.00  0.00    +0.000 A 
ATOM      5  S   UNL     1       3.831   6.425  18.947  0.00  0.00    +0.000 S 
ENDROOT
BRANCH   1   7
ATOM      6  N   UNL     1       1.002   8.886  20.172  0.00  0.00    +0.000 N 
ATOM      7  C   UNL     1       1.827   8.343  19.202  0.00  0.00    +0.000 C 
ATOM      8  O   UNL     1       2.161   8.915  18.170  0.00  0.00    +0.000 OA
ATOM      9  H   UNL     1       0.909   8.351  21.027  0.00  0.00    +0.000 HD
BRANCH   6  13
ATOM     10  C   UNL     1      -1.059  12.562  20.013  0.00  0.00    +0.000 A 
ATOM     11  C   UNL     1       0.093  12.453  20.790  0.00  0.00    +0.000 A 
ATOM     12  C   UNL     1       0.804  11.253  20.846  0.00  0.00    +0.000 A 
ATOM     13  C   UNL     1       0.359  10.137  20.138  0.00  0.00    +0.000 A 
ATOM     14  C   UNL     1      -0.789  10.252  19.346  0.00  0.00    +0.000 A 
ATOM     15  C   UNL     1      -1.502  11.456  19.292  0.00  0.00    +0.000 A 
BRANCH  10  17
ATOM     16  C   UNL     1      -0.830  14.917  20.057  0.00  0.00    +0.000 C 
ATOM     17  O   UNL     1      -1.682  13.777  20.076  0.00  0.00    +0.000 OA
ENDBRANCH  10  17
ENDBRANCH   6  13
ENDBRANCH   1   7
BRANCH   3  18
ATOM     18  N   UNL     1       1.926   3.701  21.075  0.00  0.00    +0.000 N 
ATOM     19  O   UNL     1       1.067   3.015  20.509  0.00  0.00    +0.000 OA
ATOM     20  O   UNL     1       2.331   3.572  22.233  0.00  0.00    +0.000 OA
ENDBRANCH   3  18
BRANCH   4  21
ATOM     21  S   UNL     1       4.833   3.613  19.432  0.00  0.00    +0.000 S 
BRANCH  21  22
ATOM     22  C   UNL     1       5.459   4.068  17.804  0.00  0.00    +0.000 A 
ATOM     23  C   UNL     1       4.682   3.833  16.655  0.00  0.00    +0.000 A 
ATOM     24 CL   UNL     1       3.054   3.256  16.700  0.00  0.00    +0.000 Cl
ATOM     25  C   UNL     1       5.201   4.165  15.408  0.00  0.00    +0.000 A 
ATOM     26  N   UNL     1       6.397   4.762  15.220  0.00  0.00    +0.000 NA
ATOM     27  C   UNL     1       7.092   5.069  16.335  0.00  0.00    +0.000 A 
ATOM     28  C   UNL     1       6.675   4.756  17.627  0.00  0.00    +0.000 A 
ATOM     29 CL   UNL     1       7.659   5.328  18.928  0.00  0.00    +0.000 Cl
ENDBRANCH  21  22
ENDBRANCH   4  21
TORSDOF 6
ENDMDL
MODEL 7
REMARK VINA RESULT:      -7.4      1.167      1.366
REMARK  Name = 
REMARK  7 active torsions:
REMARK  status: ('A' for Active; 'I' for Inactive)
REMARK    1  A    between atoms: C_1  and  O_2
REMARK    2  A    between atoms: O_2  and  C_3
REMARK    3  A    between atoms: C_6  and  N_7
REMARK    4  A    between atoms: C_8  and  C_10
REMARK    5  A    between atoms: C_12  and  N_13
REMARK    6  A    between atoms: C_16  and  S_17
REMARK    7  A    between atoms: S_17  and  C_18
REMARK                            x       y       z     vdW  Elec       q    Type
REMARK                         _______ _______ _______ _____ _____    ______ ____
ROOT
ATOM      1  C   UNL     1       2.215   6.954  19.669  0.00  0.00    +0.000 A 
ATOM      2  C   UNL     1       1.550   5.971  20.372  0.00  0.00    +0.000 A 
ATOM      3  C   UNL     1       2.304   4.761  20.469  0.00  0.00    +0.000 A 
ATOM      4  C   UNL     1       3.523   4.833  19.820  0.00  0.00    +0.000 A 
ATOM      5  S   UNL     1       3.721   6.387  19.105  0.00  0.00    +0.000 S 
ENDROOT
BRANCH   1   7
ATOM      6  N   UNL     1       0.843   8.796  20.361  0.00  0.00    +0.000 N 
ATOM      7  C   UNL     1       1.724   8.305  19.412  0.00  0.00    +0.000 C 
ATOM      8  O   UNL     1       2.110   8.927  18.428  0.00  0.00    +0.000 OA
ATOM      9  H   UNL     1       0.709   8.222  21.183  0.00  0.00    +0.000 HD
BRANCH   6  13
ATOM     10  C   UNL     1      -0.983  12.598  20.406  0.00  0.00    +0.000 A 
ATOM     11  C   UNL     1      -1.443  11.626  19.520  0.00  0.00    +0.000 A 
ATOM     12  C   UNL     1      -0.867  10.354  19.496  0.00  0.00    +0.000 A 
ATOM     13  C   UNL     1       0.192  10.043  20.350  0.00  0.00    +0.000 A 
ATOM     14  C   UNL     1       0.641  11.016  21.250  0.00  0.00    +0.000 A 
ATOM     15  C   UNL     1       0.064  12.292  21.272  0.00  0.00    +0.000 A 
BRANCH  10  17
ATOM     16  C   UNL     1      -1.938  14.451  21.526  0.00  0.00    +0.000 C 
ATOM     17  O   UNL     1      -1.604  13.811  20.300  0.00  0.00    +0.000 OA
ENDBRANCH  10  17
ENDBRANCH   6  13
ENDBRANCH   1   7
BRANCH   3  18
ATOM     18  N   UNL     1       1.807   3.614  21.160  0.00  0.00    +0.000 N 
ATOM     19  O   UNL     1       2.306   3.376  22.266  0.00  0.00    +0.000 OA
ATOM     20  O   UNL     1       0.997   2.915  20.547  0.00  0.00    +0.000 OA
ENDBRANCH   3  18
BRANCH   4  21
ATOM     21  S   UNL     1       4.713   3.560  19.514  0.00  0.00    +0.000 S 
BRANCH  21  22
ATOM     22  C   UNL     1       5.378   4.085  17.922  0.00  0.00    +0.000 A 
ATOM     23  C   UNL     1       4.646   3.864  16.742  0.00  0.00    +0.000 A 
ATOM     24 CL   UNL     1       3.037   3.237  16.714  0.00  0.00    +0.000 Cl
ATOM     25  C   UNL     1       5.195   4.251  15.524  0.00  0.00    +0.000 A 
ATOM     26  N   UNL     1       6.378   4.889  15.394  0.00  0.00    +0.000 NA
ATOM     27  C   UNL     1       7.026   5.181  16.542  0.00  0.00    +0.000 A 
ATOM     28  C   UNL     1       6.577   4.815  17.808  0.00  0.00    +0.000 A 
ATOM     29 CL   UNL     1       7.499   5.374  19.158  0.00  0.00    +0.000 Cl
ENDBRANCH  21  22
ENDBRANCH   4  21
TORSDOF 6
ENDMDL
MODEL 8
REMARK VINA RESULT:      -7.4      0.550      2.010
REMARK  Name = 
REMARK  7 active torsions:
REMARK  status: ('A' for Active; 'I' for Inactive)
REMARK    1  A    between atoms: C_1  and  O_2
REMARK    2  A    between atoms: O_2  and  C_3
REMARK    3  A    between atoms: C_6  and  N_7
REMARK    4  A    between atoms: C_8  and  C_10
REMARK    5  A    between atoms: C_12  and  N_13
REMARK    6  A    between atoms: C_16  and  S_17
REMARK    7  A    between atoms: S_17  and  C_18
REMARK                            x       y       z     vdW  Elec       q    Type
REMARK                         _______ _______ _______ _____ _____    ______ ____
ROOT
ATOM      1  C   UNL     1       2.252   6.522  20.154  0.00  0.00    +0.000 A 
ATOM      2  C   UNL     1       1.726   5.359  20.675  0.00  0.00    +0.000 A 
ATOM      3  C   UNL     1       2.585   4.234  20.480  0.00  0.00    +0.000 A 
ATOM      4  C   UNL     1       3.744   4.554  19.794  0.00  0.00    +0.000 A 
ATOM      5  S   UNL     1       3.755   6.231  19.405  0.00  0.00    +0.000 S 
ENDROOT
BRANCH   1   7
ATOM      6  N   UNL     1       1.214   8.241  21.468  0.00  0.00    +0.000 N 
ATOM      7  C   UNL     1       1.630   7.843  20.209  0.00  0.00    +0.000 C 
ATOM      8  O   UNL     1       1.525   8.520  19.192  0.00  0.00    +0.000 OA
ATOM      9  H   UNL     1       1.474   7.634  22.235  0.00  0.00    +0.000 HD
BRANCH   6  13
ATOM     10  C   UNL     1      -0.709  11.893  22.341  0.00  0.00    +0.000 A 
ATOM     11  C   UNL     1      -1.038  10.752  23.069  0.00  0.00    +0.000 A 
ATOM     12  C   UNL     1      -0.404   9.534  22.812  0.00  0.00    +0.000 A 
ATOM     13  C   UNL     1       0.558   9.439  21.807  0.00  0.00    +0.000 A 
ATOM     14  C   UNL     1       0.899  10.589  21.087  0.00  0.00    +0.000 A 
ATOM     15  C   UNL     1       0.261  11.809  21.344  0.00  0.00    +0.000 A 
BRANCH  10  17
ATOM     16  C   UNL     1      -0.885  14.250  22.233  0.00  0.00    +0.000 C 
ATOM     17  O   UNL     1      -1.429  13.008  22.663  0.00  0.00    +0.000 OA
ENDBRANCH  10  17
ENDBRANCH   6  13
ENDBRANCH   1   7
BRANCH   3  18
ATOM     18  N   UNL     1       2.240   2.929  20.946  0.00  0.00    +0.000 N 
ATOM     19  O   UNL     1       2.604   2.636  22.091  0.00  0.00    +0.000 OA
ATOM     20  O   UNL     1       1.698   2.181  20.129  0.00  0.00    +0.000 OA
ENDBRANCH   3  18
BRANCH   4  21
ATOM     21  S   UNL     1       5.012   3.491  19.167  0.00  0.00    +0.000 S 
BRANCH  21  22
ATOM     22  C   UNL     1       5.409   4.310  17.611  0.00  0.00    +0.000 A 
ATOM     23  C   UNL     1       6.642   4.968  17.452  0.00  0.00    +0.000 A 
ATOM     24 CL   UNL     1       7.910   4.925  18.624  0.00  0.00    +0.000 Cl
ATOM     25  C   UNL     1       6.912   5.618  16.253  0.00  0.00    +0.000 A 
ATOM     26  N   UNL     1       6.083   5.615  15.186  0.00  0.00    +0.000 NA
ATOM     27  C   UNL     1       4.945   4.901  15.318  0.00  0.00    +0.000 A 
ATOM     28  C   UNL     1       4.569   4.237  16.483  0.00  0.00    +0.000 A 
ATOM     29 CL   UNL     1       3.124   3.292  16.415  0.00  0.00    +0.000 Cl
ENDBRANCH  21  22
ENDBRANCH   4  21
TORSDOF 6
ENDMDL
MODEL 9
REMARK VINA RESULT:      -7.3      5.653     10.796
REMARK  Name = 
REMARK  7 active torsions:
REMARK  status: ('A' for Active; 'I' for Inactive)
REMARK    1  A    between atoms: C_1  and  O_2
REMARK    2  A    between atoms: O_2  and  C_3
REMARK    3  A    between atoms: C_6  and  N_7
REMARK    4  A    between atoms: C_8  and  C_10
REMARK    5  A    between atoms: C_12  and  N_13
REMARK    6  A    between atoms: C_16  and  S_17
REMARK    7  A    between atoms: S_17  and  C_18
REMARK                            x       y       z     vdW  Elec       q    Type
REMARK                         _______ _______ _______ _____ _____    ______ ____
ROOT
ATOM      1  C   UNL     1      -0.865  11.263  21.500  0.00  0.00    +0.000 A 
ATOM      2  C   UNL     1      -1.389  11.499  22.754  0.00  0.00    +0.000 A 
ATOM      3  C   UNL     1      -2.558  12.320  22.713  0.00  0.00    +0.000 A 
ATOM      4  C   UNL     1      -2.895  12.714  21.430  0.00  0.00    +0.000 A 
ATOM      5  S   UNL     1      -1.769  12.067  20.299  0.00  0.00    +0.000 S 
ENDROOT
BRANCH   1   7
ATOM      6  N   UNL     1       0.228   9.709  20.035  0.00  0.00    +0.000 N 
ATOM      7  C   UNL     1       0.310  10.448  21.203  0.00  0.00    +0.000 C 
ATOM      8  O   UNL     1       1.282  10.468  21.950  0.00  0.00    +0.000 OA
ATOM      9  H   UNL     1      -0.583   9.882  19.454  0.00  0.00    +0.000 HD
BRANCH   6  13
ATOM     10  C   UNL     1       3.152   7.148  18.397  0.00  0.00    +0.000 A 
ATOM     11  C   UNL     1       2.639   6.883  19.665  0.00  0.00    +0.000 A 
ATOM     12  C   UNL     1       1.658   7.705  20.224  0.00  0.00    +0.000 A 
ATOM     13  C   UNL     1       1.189   8.817  19.525  0.00  0.00    +0.000 A 
ATOM     14  C   UNL     1       1.693   9.072  18.244  0.00  0.00    +0.000 A 
ATOM     15  C   UNL     1       2.678   8.249  17.686  0.00  0.00    +0.000 A 
BRANCH  10  17
ATOM     16  C   UNL     1       4.221   5.057  18.685  0.00  0.00    +0.000 C 
ATOM     17  O   UNL     1       4.134   6.292  17.984  0.00  0.00    +0.000 OA
ENDBRANCH  10  17
ENDBRANCH   6  13
ENDBRANCH   1   7
BRANCH   3  18
ATOM     18  N   UNL     1      -3.267  12.686  23.897  0.00  0.00    +0.000 N 
ATOM     19  O   UNL     1      -2.965  13.769  24.411  0.00  0.00    +0.000 OA
ATOM     20  O   UNL     1      -4.045  11.843  24.351  0.00  0.00    +0.000 OA
ENDBRANCH   3  18
BRANCH   4  21
ATOM     21  S   UNL     1      -4.132  13.859  20.891  0.00  0.00    +0.000 S 
BRANCH  21  22
ATOM     22  C   UNL     1      -5.597  12.809  20.895  0.00  0.00    +0.000 A 
ATOM     23  C   UNL     1      -6.521  12.887  21.952  0.00  0.00    +0.000 A 
ATOM     24 CL   UNL     1      -6.433  14.057  23.220  0.00  0.00    +0.000 Cl
ATOM     25  C   UNL     1      -7.628  12.044  21.946  0.00  0.00    +0.000 A 
ATOM     26  N   UNL     1      -7.916  11.179  20.950  0.00  0.00    +0.000 NA
ATOM     27  C   UNL     1      -7.073  11.181  19.896  0.00  0.00    +0.000 A 
ATOM     28  C   UNL     1      -5.924  11.966  19.816  0.00  0.00    +0.000 A 
ATOM     29 CL   UNL     1      -5.033  11.900  18.337  0.00  0.00    +0.000 Cl
ENDBRANCH  21  22
ENDBRANCH   4  21
TORSDOF 6
ENDMDL
