MODEL 1
REMARK VINA RESULT:      -6.8      0.000      0.000
REMARK  Name = 
REMARK  7 active torsions:
REMARK  status: ('A' for Active; 'I' for Inactive)
REMARK    1  A    between atoms: C_1  and  O_2
REMARK    2  A    between atoms: O_2  and  C_3
REMARK    3  A    between atoms: N_8  and  C_9
REMARK    4  A    between atoms: C_9  and  C_10
REMARK    5  A    between atoms: C_14  and  C_15
REMARK    6  A    between atoms: C_21  and  O_22
REMARK    7  A    between atoms: O_22  and  C_23
REMARK                            x       y       z     vdW  Elec       q    Type
REMARK                         _______ _______ _______ _____ _____    ______ ____
ROOT
ATOM      1  C   UNL     1       4.880   5.282  17.573  0.00  0.00    +0.000 A 
ATOM      2  C   UNL     1       4.229   6.440  17.123  0.00  0.00    +0.000 A 
ATOM      3  C   UNL     1       3.317   7.129  17.915  0.00  0.00    +0.000 A 
ATOM      4  N   UNL     1       2.754   8.249  17.440  0.00  0.00    +0.000 NA
ATOM      5  C   UNL     1       1.905   8.911  18.232  0.00  0.00    +0.000 A 
ATOM      6  N   UNL     1       1.433  10.115  17.732  0.00  0.00    +0.000 N 
ATOM      7  N   UNL     1       1.541   8.500  19.452  0.00  0.00    +0.000 NA
ATOM      8  C   UNL     1       2.111   7.378  19.914  0.00  0.00    +0.000 A 
ATOM      9  N   UNL     1       1.765   7.032  21.222  0.00  0.00    +0.000 N 
ATOM     10  C   UNL     1       3.037   6.632  19.184  0.00  0.00    +0.000 A 
ATOM     11  C   UNL     1       3.679   5.456  19.649  0.00  0.00    +0.000 A 
ATOM     12  C   UNL     1       4.593   4.771  18.847  0.00  0.00    +0.000 A 
ATOM     13  H   UNL     1       1.640  10.128  16.740  0.00  0.00    +0.000 HD
ATOM     14  H   UNL     1       1.049   7.682  21.535  0.00  0.00    +0.000 HD
ATOM     15  H   UNL     1       1.479   6.067  21.317  0.00  0.00    +0.000 HD
ENDROOT
BRANCH   1  17
ATOM     16  C   UNL     1       6.915   5.298  16.362  0.00  0.00    +0.000 C 
ATOM     17  O   UNL     1       5.769   4.574  16.800  0.00  0.00    +0.000 OA
ENDBRANCH   1  17
BRANCH  12  18
ATOM     18  O   UNL     1       5.246   3.626  19.224  0.00  0.00    +0.000 OA
ATOM     19  C   UNL     1       4.459   2.564  19.751  0.00  0.00    +0.000 C 
ENDBRANCH  12  18
BRANCH   6  20
ATOM     20  C   UNL     1       0.058  10.421  18.072  0.00  0.00    +0.000 C 
BRANCH  20  21
ATOM     21  C   UNL     1      -0.092  11.732  18.790  0.00  0.00    +0.000 A 
ATOM     22  S   UNL     1       1.286  12.659  19.232  0.00  0.00    +0.000 S 
ATOM     23  C   UNL     1       0.254  13.850  19.901  0.00  0.00    +0.000 A 
ATOM     24  N   UNL     1      -1.035  13.607  19.823  0.00  0.00    +0.000 NA
ATOM     25  C   UNL     1      -1.245  12.388  19.197  0.00  0.00    +0.000 A 
ATOM     26  C   UNL     1      -2.646  11.918  19.021  0.00  0.00    +0.000 C 
ENDBRANCH  20  21
ENDBRANCH   6  20
TORSDOF 4
ENDMDL
MODEL 2
REMARK VINA RESULT:      -6.8      0.929      1.016
REMARK  Name = 
REMARK  7 active torsions:
REMARK  status: ('A' for Active; 'I' for Inactive)
REMARK    1  A    between atoms: C_1  and  O_2
REMARK    2  A    between atoms: O_2  and  C_3
REMARK    3  A    between atoms: N_8  and  C_9
REMARK    4  A    between atoms: C_9  and  C_10
REMARK    5  A    between atoms: C_14  and  C_15
REMARK    6  A    between atoms: C_21  and  O_22
REMARK    7  A    between atoms: O_22  and  C_23
REMARK                            x       y       z     vdW  Elec       q    Type
REMARK                         _______ _______ _______ _____ _____    ______ ____
ROOT
ATOM      1  C   UNL     1       4.830   5.429  17.505  0.00  0.00    +0.000 A 
ATOM      2  C   UNL     1       4.156   6.594  17.110  0.00  0.00    +0.000 A 
ATOM      3  C   UNL     1       3.241   7.235  17.937  0.00  0.00    +0.000 A 
ATOM      4  N   UNL     1       2.655   8.364  17.515  0.00  0.00    +0.000 NA
ATOM      5  C   UNL     1       1.803   8.979  18.341  0.00  0.00    +0.000 A 
ATOM      6  N   UNL     1       1.308  10.195  17.895  0.00  0.00    +0.000 N 
ATOM      7  N   UNL     1       1.458   8.511  19.545  0.00  0.00    +0.000 NA
ATOM      8  C   UNL     1       2.049   7.381  19.955  0.00  0.00    +0.000 A 
ATOM      9  N   UNL     1       1.721   6.975  21.250  0.00  0.00    +0.000 N 
ATOM     10  C   UNL     1       2.980   6.681  19.187  0.00  0.00    +0.000 A 
ATOM     11  C   UNL     1       3.645   5.497  19.597  0.00  0.00    +0.000 A 
ATOM     12  C   UNL     1       4.563   4.861  18.759  0.00  0.00    +0.000 A 
ATOM     13  H   UNL     1       1.505  10.252  16.903  0.00  0.00    +0.000 HD
ATOM     14  H   UNL     1       0.997   7.599  21.596  0.00  0.00    +0.000 HD
ATOM     15  H   UNL     1       1.451   6.002  21.307  0.00  0.00    +0.000 HD
ENDROOT
BRANCH   1  17
ATOM     16  C   UNL     1       5.623   5.060  15.305  0.00  0.00    +0.000 C 
ATOM     17  O   UNL     1       5.722   4.769  16.696  0.00  0.00    +0.000 OA
ENDBRANCH   1  17
BRANCH  12  18
ATOM     18  O   UNL     1       5.237   3.712  19.082  0.00  0.00    +0.000 OA
ATOM     19  C   UNL     1       4.496   2.667  19.699  0.00  0.00    +0.000 C 
ENDBRANCH  12  18
BRANCH   6  20
ATOM     20  C   UNL     1      -0.069  10.464  18.259  0.00  0.00    +0.000 C 
BRANCH  20  21
ATOM     21  C   UNL     1      -0.224  11.697  19.103  0.00  0.00    +0.000 A 
ATOM     22  S   UNL     1      -0.198  13.262  18.392  0.00  0.00    +0.000 S 
ATOM     23  C   UNL     1      -0.439  13.955  19.938  0.00  0.00    +0.000 A 
ATOM     24  N   UNL     1      -0.532  13.111  20.941  0.00  0.00    +0.000 NA
ATOM     25  C   UNL     1      -0.399  11.812  20.474  0.00  0.00    +0.000 A 
ATOM     26  C   UNL     1      -0.462  10.699  21.459  0.00  0.00    +0.000 C 
ENDBRANCH  20  21
ENDBRANCH   6  20
TORSDOF 4
ENDMDL
MODEL 3
REMARK VINA RESULT:      -6.8      4.497      8.642
REMARK  Name = 
REMARK  7 active torsions:
REMARK  status: ('A' for Active; 'I' for Inactive)
REMARK    1  A    between atoms: C_1  and  O_2
REMARK    2  A    between atoms: O_2  and  C_3
REMARK    3  A    between atoms: N_8  and  C_9
REMARK    4  A    between atoms: C_9  and  C_10
REMARK    5  A    between atoms: C_14  and  C_15
REMARK    6  A    between atoms: C_21  and  O_22
REMARK    7  A    between atoms: O_22  and  C_23
REMARK                            x       y       z     vdW  Elec       q    Type
REMARK                         _______ _______ _______ _____ _____    ______ ____
ROOT
ATOM      1  C   UNL     1      -0.415  11.433  22.166  0.00  0.00    +0.000 A 
ATOM      2  C   UNL     1       0.083  10.125  22.261  0.00  0.00    +0.000 A 
ATOM      3  C   UNL     1       0.695   9.488  21.187  0.00  0.00    +0.000 A 
ATOM      4  N   UNL     1       1.181   8.250  21.352  0.00  0.00    +0.000 NA
ATOM      5  C   UNL     1       1.793   7.671  20.314  0.00  0.00    +0.000 A 
ATOM      6  N   UNL     1       2.368   6.435  20.570  0.00  0.00    +0.000 N 
ATOM      7  N   UNL     1       1.906   8.229  19.104  0.00  0.00    +0.000 NA
ATOM      8  C   UNL     1       1.414   9.466  18.952  0.00  0.00    +0.000 A 
ATOM      9  N   UNL     1       1.628  10.040  17.697  0.00  0.00    +0.000 N 
ATOM     10  C   UNL     1       0.791  10.174  19.980  0.00  0.00    +0.000 A 
ATOM     11  C   UNL     1       0.282  11.492  19.864  0.00  0.00    +0.000 A 
ATOM     12  C   UNL     1      -0.330  12.124  20.948  0.00  0.00    +0.000 A 
ATOM     13  H   UNL     1       1.984   6.104  21.447  0.00  0.00    +0.000 HD
ATOM     14  H   UNL     1       2.050   9.333  17.101  0.00  0.00    +0.000 HD
ATOM     15  H   UNL     1       0.790  10.436  17.292  0.00  0.00    +0.000 HD
ENDROOT
BRANCH   1  17
ATOM     16  C   UNL     1      -2.447  11.872  23.298  0.00  0.00    +0.000 C 
ATOM     17  O   UNL     1      -1.040  12.074  23.208  0.00  0.00    +0.000 OA
ENDBRANCH   1  17
BRANCH  12  18
ATOM     18  O   UNL     1      -0.852  13.392  20.911  0.00  0.00    +0.000 OA
ATOM     19  C   UNL     1      -1.056  13.980  19.632  0.00  0.00    +0.000 C 
ENDBRANCH  12  18
BRANCH   6  20
ATOM     20  C   UNL     1       2.294   5.488  19.475  0.00  0.00    +0.000 C 
BRANCH  20  21
ATOM     21  C   UNL     1       3.245   4.336  19.629  0.00  0.00    +0.000 A 
ATOM     22  S   UNL     1       2.714   2.832  20.269  0.00  0.00    +0.000 S 
ATOM     23  C   UNL     1       4.294   2.203  20.069  0.00  0.00    +0.000 A 
ATOM     24  N   UNL     1       5.184   3.029  19.567  0.00  0.00    +0.000 NA
ATOM     25  C   UNL     1       4.596   4.261  19.321  0.00  0.00    +0.000 A 
ATOM     26  C   UNL     1       5.443   5.347  18.760  0.00  0.00    +0.000 C 
ENDBRANCH  20  21
ENDBRANCH   6  20
TORSDOF 4
ENDMDL
MODEL 4
REMARK VINA RESULT:      -6.7      1.129      1.392
REMARK  Name = 
REMARK  7 active torsions:
REMARK  status: ('A' for Active; 'I' for Inactive)
REMARK    1  A    between atoms: C_1  and  O_2
REMARK    2  A    between atoms: O_2  and  C_3
REMARK    3  A    between atoms: N_8  and  C_9
REMARK    4  A    between atoms: C_9  and  C_10
REMARK    5  A    between atoms: C_14  and  C_15
REMARK    6  A    between atoms: C_21  and  O_22
REMARK    7  A    between atoms: O_22  and  C_23
REMARK                            x       y       z     vdW  Elec       q    Type
REMARK                         _______ _______ _______ _____ _____    ______ ____
ROOT
ATOM      1  C   UNL     1       4.887   4.894  17.619  0.00  0.00    +0.000 A 
ATOM      2  C   UNL     1       4.327   6.104  17.181  0.00  0.00    +0.000 A 
ATOM      3  C   UNL     1       3.442   6.835  17.965  0.00  0.00    +0.000 A 
ATOM      4  N   UNL     1       2.968   8.000  17.504  0.00  0.00    +0.000 NA
ATOM      5  C   UNL     1       2.143   8.700  18.289  0.00  0.00    +0.000 A 
ATOM      6  N   UNL     1       1.768   9.945  17.806  0.00  0.00    +0.000 N 
ATOM      7  N   UNL     1       1.718   8.285  19.487  0.00  0.00    +0.000 NA
ATOM      8  C   UNL     1       2.197   7.117  19.936  0.00  0.00    +0.000 A 
ATOM      9  N   UNL     1       1.791   6.765  21.225  0.00  0.00    +0.000 N 
ATOM     10  C   UNL     1       3.092   6.327  19.213  0.00  0.00    +0.000 A 
ATOM     11  C   UNL     1       3.640   5.100  19.665  0.00  0.00    +0.000 A 
ATOM     12  C   UNL     1       4.529   4.374  18.871  0.00  0.00    +0.000 A 
ATOM     13  H   UNL     1       2.003   9.966  16.821  0.00  0.00    +0.000 HD
ATOM     14  H   UNL     1       1.112   7.454  21.534  0.00  0.00    +0.000 HD
ATOM     15  H   UNL     1       1.438   5.819  21.287  0.00  0.00    +0.000 HD
ENDROOT
BRANCH   1  17
ATOM     16  C   UNL     1       7.074   4.653  16.746  0.00  0.00    +0.000 C 
ATOM     17  O   UNL     1       5.748   4.147  16.853  0.00  0.00    +0.000 OA
ENDBRANCH   1  17
BRANCH  12  18
ATOM     18  O   UNL     1       5.093   3.179  19.236  0.00  0.00    +0.000 OA
ATOM     19  C   UNL     1       4.314   2.305  20.044  0.00  0.00    +0.000 C 
ENDBRANCH  12  18
BRANCH   6  20
ATOM     20  C   UNL     1       0.406  10.335  18.116  0.00  0.00    +0.000 C 
BRANCH  20  21
ATOM     21  C   UNL     1       0.325  11.375  19.197  0.00  0.00    +0.000 A 
ATOM     22  S   UNL     1      -0.611  11.105  20.613  0.00  0.00    +0.000 S 
ATOM     23  C   UNL     1      -0.138  12.640  21.203  0.00  0.00    +0.000 A 
ATOM     24  N   UNL     1       0.658  13.338  20.424  0.00  0.00    +0.000 NA
ATOM     25  C   UNL     1       0.922  12.625  19.264  0.00  0.00    +0.000 A 
ATOM     26  C   UNL     1       1.800  13.249  18.238  0.00  0.00    +0.000 C 
ENDBRANCH  20  21
ENDBRANCH   6  20
TORSDOF 4
ENDMDL
MODEL 5
REMARK VINA RESULT:      -6.7      4.524      8.628
REMARK  Name = 
REMARK  7 active torsions:
REMARK  status: ('A' for Active; 'I' for Inactive)
REMARK    1  A    between atoms: C_1  and  O_2
REMARK    2  A    between atoms: O_2  and  C_3
REMARK    3  A    between atoms: N_8  and  C_9
REMARK    4  A    between atoms: C_9  and  C_10
REMARK    5  A    between atoms: C_14  and  C_15
REMARK    6  A    between atoms: C_21  and  O_22
REMARK    7  A    between atoms: O_22  and  C_23
REMARK                            x       y       z     vdW  Elec       q    Type
REMARK                         _______ _______ _______ _____ _____    ______ ____
ROOT
ATOM      1  C   UNL     1      -0.517  11.513  22.224  0.00  0.00    +0.000 A 
ATOM      2  C   UNL     1      -0.021  10.203  22.297  0.00  0.00    +0.000 A 
ATOM      3  C   UNL     1       0.610   9.591  21.220  0.00  0.00    +0.000 A 
ATOM      4  N   UNL     1       1.093   8.350  21.364  0.00  0.00    +0.000 NA
ATOM      5  C   UNL     1       1.723   7.795  20.325  0.00  0.00    +0.000 A 
ATOM      6  N   UNL     1       2.294   6.553  20.562  0.00  0.00    +0.000 N 
ATOM      7  N   UNL     1       1.859   8.381  19.130  0.00  0.00    +0.000 NA
ATOM      8  C   UNL     1       1.370   9.621  18.999  0.00  0.00    +0.000 A 
ATOM      9  N   UNL     1       1.606  10.225  17.762  0.00  0.00    +0.000 N 
ATOM     10  C   UNL     1       0.728  10.306  20.031  0.00  0.00    +0.000 A 
ATOM     11  C   UNL     1       0.221  11.626  19.937  0.00  0.00    +0.000 A 
ATOM     12  C   UNL     1      -0.410  12.233  21.025  0.00  0.00    +0.000 A 
ATOM     13  H   UNL     1       1.894   6.201  21.424  0.00  0.00    +0.000 HD
ATOM     14  H   UNL     1       2.040   9.532  17.157  0.00  0.00    +0.000 HD
ATOM     15  H   UNL     1       0.776  10.631  17.350  0.00  0.00    +0.000 HD
ENDROOT
BRANCH   1  17
ATOM     16  C   UNL     1      -2.557  11.863  23.374  0.00  0.00    +0.000 C 
ATOM     17  O   UNL     1      -1.162  12.130  23.269  0.00  0.00    +0.000 OA
ENDBRANCH   1  17
BRANCH  12  18
ATOM     18  O   UNL     1      -0.931  13.501  21.008  0.00  0.00    +0.000 OA
ATOM     19  C   UNL     1      -2.049  13.741  20.161  0.00  0.00    +0.000 C 
ENDBRANCH  12  18
BRANCH   6  20
ATOM     20  C   UNL     1       2.239   5.632  19.444  0.00  0.00    +0.000 C 
BRANCH  20  21
ATOM     21  C   UNL     1       2.989   4.355  19.697  0.00  0.00    +0.000 A 
ATOM     22  S   UNL     1       4.509   4.061  18.951  0.00  0.00    +0.000 S 
ATOM     23  C   UNL     1       4.597   2.552  19.753  0.00  0.00    +0.000 A 
ATOM     24  N   UNL     1       3.580   2.251  20.529  0.00  0.00    +0.000 NA
ATOM     25  C   UNL     1       2.645   3.274  20.496  0.00  0.00    +0.000 A 
ATOM     26  C   UNL     1       1.405   3.122  21.302  0.00  0.00    +0.000 C 
ENDBRANCH  20  21
ENDBRANCH   6  20
TORSDOF 4
ENDMDL
MODEL 6
REMARK VINA RESULT:      -6.7      4.135      7.523
REMARK  Name = 
REMARK  7 active torsions:
REMARK  status: ('A' for Active; 'I' for Inactive)
REMARK    1  A    between atoms: C_1  and  O_2
REMARK    2  A    between atoms: O_2  and  C_3
REMARK    3  A    between atoms: N_8  and  C_9
REMARK    4  A    between atoms: C_9  and  C_10
REMARK    5  A    between atoms: C_14  and  C_15
REMARK    6  A    between atoms: C_21  and  O_22
REMARK    7  A    between atoms: O_22  and  C_23
REMARK                            x       y       z     vdW  Elec       q    Type
REMARK                         _______ _______ _______ _____ _____    ______ ____
ROOT
ATOM      1  C   UNL     1       1.210   9.609  19.477  0.00  0.00    +0.000 A 
ATOM      2  C   UNL     1       1.699   8.738  18.492  0.00  0.00    +0.000 A 
ATOM      3  C   UNL     1       2.042   7.421  18.776  0.00  0.00    +0.000 A 
ATOM      4  N   UNL     1       2.471   6.628  17.784  0.00  0.00    +0.000 NA
ATOM      5  C   UNL     1       2.765   5.357  18.076  0.00  0.00    +0.000 A 
ATOM      6  N   UNL     1       3.102   4.557  16.995  0.00  0.00    +0.000 N 
ATOM      7  N   UNL     1       2.708   4.838  19.307  0.00  0.00    +0.000 NA
ATOM      8  C   UNL     1       2.279   5.642  20.290  0.00  0.00    +0.000 A 
ATOM      9  N   UNL     1       2.157   5.035  21.542  0.00  0.00    +0.000 N 
ATOM     10  C   UNL     1       1.911   6.973  20.087  0.00  0.00    +0.000 A 
ATOM     11  C   UNL     1       1.430   7.845  21.096  0.00  0.00    +0.000 A 
ATOM     12  C   UNL     1       1.087   9.165  20.801  0.00  0.00    +0.000 A 
ATOM     13  H   UNL     1       3.302   5.174  16.217  0.00  0.00    +0.000 HD
ATOM     14  H   UNL     1       2.523   4.090  21.465  0.00  0.00    +0.000 HD
ATOM     15  H   UNL     1       2.598   5.561  22.285  0.00  0.00    +0.000 HD
ENDROOT
BRANCH   1  17
ATOM     16  C   UNL     1       1.868  11.673  18.521  0.00  0.00    +0.000 C 
ATOM     17  O   UNL     1       0.884  10.919  19.222  0.00  0.00    +0.000 OA
ENDBRANCH   1  17
BRANCH  12  18
ATOM     18  O   UNL     1       0.623  10.068  21.723  0.00  0.00    +0.000 OA
ATOM     19  C   UNL     1      -0.350   9.612  22.656  0.00  0.00    +0.000 C 
ENDBRANCH  12  18
BRANCH   6  20
ATOM     20  C   UNL     1       4.124   3.565  17.265  0.00  0.00    +0.000 C 
BRANCH  20  21
ATOM     21  C   UNL     1       5.514   4.132  17.239  0.00  0.00    +0.000 A 
ATOM     22  S   UNL     1       6.251   4.729  18.672  0.00  0.00    +0.000 S 
ATOM     23  C   UNL     1       7.661   5.104  17.777  0.00  0.00    +0.000 A 
ATOM     24  N   UNL     1       7.621   4.823  16.494  0.00  0.00    +0.000 NA
ATOM     25  C   UNL     1       6.389   4.274  16.172  0.00  0.00    +0.000 A 
ATOM     26  C   UNL     1       6.135   3.896  14.756  0.00  0.00    +0.000 C 
ENDBRANCH  20  21
ENDBRANCH   6  20
TORSDOF 4
ENDMDL
MODEL 7
REMARK VINA RESULT:      -6.7      4.108      7.752
REMARK  Name = 
REMARK  7 active torsions:
REMARK  status: ('A' for Active; 'I' for Inactive)
REMARK    1  A    between atoms: C_1  and  O_2
REMARK    2  A    between atoms: O_2  and  C_3
REMARK    3  A    between atoms: N_8  and  C_9
REMARK    4  A    between atoms: C_9  and  C_10
REMARK    5  A    between atoms: C_14  and  C_15
REMARK    6  A    between atoms: C_21  and  O_22
REMARK    7  A    between atoms: O_22  and  C_23
REMARK                            x       y       z     vdW  Elec       q    Type
REMARK                         _______ _______ _______ _____ _____    ______ ____
ROOT
ATOM      1  C   UNL     1       1.092   9.587  19.662  0.00  0.00    +0.000 A 
ATOM      2  C   UNL     1       1.643   8.817  18.627  0.00  0.00    +0.000 A 
ATOM      3  C   UNL     1       2.099   7.520  18.834  0.00  0.00    +0.000 A 
ATOM      4  N   UNL     1       2.584   6.823  17.797  0.00  0.00    +0.000 NA
ATOM      5  C   UNL     1       2.986   5.567  18.015  0.00  0.00    +0.000 A 
ATOM      6  N   UNL     1       3.380   4.860  16.889  0.00  0.00    +0.000 N 
ATOM      7  N   UNL     1       2.985   4.977  19.216  0.00  0.00    +0.000 NA
ATOM      8  C   UNL     1       2.499   5.685  20.244  0.00  0.00    +0.000 A 
ATOM      9  N   UNL     1       2.440   5.001  21.460  0.00  0.00    +0.000 N 
ATOM     10  C   UNL     1       2.019   6.989  20.119  0.00  0.00    +0.000 A 
ATOM     11  C   UNL     1       1.475   7.759  21.178  0.00  0.00    +0.000 A 
ATOM     12  C   UNL     1       1.019   9.061  20.960  0.00  0.00    +0.000 A 
ATOM     13  H   UNL     1       3.520   5.534  16.147  0.00  0.00    +0.000 HD
ATOM     14  H   UNL     1       2.883   4.096  21.328  0.00  0.00    +0.000 HD
ATOM     15  H   UNL     1       2.842   5.519  22.230  0.00  0.00    +0.000 HD
ENDROOT
BRANCH   1  17
ATOM     16  C   UNL     1      -0.413  11.041  18.556  0.00  0.00    +0.000 C 
ATOM     17  O   UNL     1       0.655  10.877  19.484  0.00  0.00    +0.000 OA
ENDBRANCH   1  17
BRANCH  12  18
ATOM     18  O   UNL     1       0.489   9.868  21.933  0.00  0.00    +0.000 OA
ATOM     19  C   UNL     1      -0.480   9.296  22.804  0.00  0.00    +0.000 C 
ENDBRANCH  12  18
BRANCH   6  20
ATOM     20  C   UNL     1       4.484   3.944  17.098  0.00  0.00    +0.000 C 
BRANCH  20  21
ATOM     21  C   UNL     1       5.676   4.256  16.239  0.00  0.00    +0.000 A 
ATOM     22  S   UNL     1       5.562   4.216  14.524  0.00  0.00    +0.000 S 
ATOM     23  C   UNL     1       7.208   4.674  14.417  0.00  0.00    +0.000 A 
ATOM     24  N   UNL     1       7.834   4.848  15.559  0.00  0.00    +0.000 NA
ATOM     25  C   UNL     1       6.967   4.600  16.612  0.00  0.00    +0.000 A 
ATOM     26  C   UNL     1       7.487   4.731  17.999  0.00  0.00    +0.000 C 
ENDBRANCH  20  21
ENDBRANCH   6  20
TORSDOF 4
ENDMDL
MODEL 8
REMARK VINA RESULT:      -6.7      5.265      6.839
REMARK  Name = 
REMARK  7 active torsions:
REMARK  status: ('A' for Active; 'I' for Inactive)
REMARK    1  A    between atoms: C_1  and  O_2
REMARK    2  A    between atoms: O_2  and  C_3
REMARK    3  A    between atoms: N_8  and  C_9
REMARK    4  A    between atoms: C_9  and  C_10
REMARK    5  A    between atoms: C_14  and  C_15
REMARK    6  A    between atoms: C_21  and  O_22
REMARK    7  A    between atoms: O_22  and  C_23
REMARK                            x       y       z     vdW  Elec       q    Type
REMARK                         _______ _______ _______ _____ _____    ______ ____
ROOT
ATOM      1  C   UNL     1       4.136   4.777  17.508  0.00  0.00    +0.000 A 
ATOM      2  C   UNL     1       4.724   6.021  17.239  0.00  0.00    +0.000 A 
ATOM      3  C   UNL     1       5.939   6.400  17.798  0.00  0.00    +0.000 A 
ATOM      4  N   UNL     1       6.467   7.589  17.475  0.00  0.00    +0.000 NA
ATOM      5  C   UNL     1       7.651   7.916  18.000  0.00  0.00    +0.000 A 
ATOM      6  N   UNL     1       8.197   9.109  17.550  0.00  0.00    +0.000 N 
ATOM      7  N   UNL     1       8.321   7.154  18.871  0.00  0.00    +0.000 NA
ATOM      8  C   UNL     1       7.783   5.969  19.187  0.00  0.00    +0.000 A 
ATOM      9  N   UNL     1       8.556   5.172  20.034  0.00  0.00    +0.000 N 
ATOM     10  C   UNL     1       6.571   5.514  18.666  0.00  0.00    +0.000 A 
ATOM     11  C   UNL     1       5.983   4.257  18.957  0.00  0.00    +0.000 A 
ATOM     12  C   UNL     1       4.762   3.885  18.390  0.00  0.00    +0.000 A 
ATOM     13  H   UNL     1       7.455   9.623  17.091  0.00  0.00    +0.000 HD
ATOM     14  H   UNL     1       9.363   5.719  20.322  0.00  0.00    +0.000 HD
ATOM     15  H   UNL     1       8.038   4.805  20.820  0.00  0.00    +0.000 HD
ENDROOT
BRANCH   1  17
ATOM     16  C   UNL     1       1.785   4.700  17.775  0.00  0.00    +0.000 C 
ATOM     17  O   UNL     1       2.926   4.391  16.982  0.00  0.00    +0.000 OA
ENDBRANCH   1  17
BRANCH  12  18
ATOM     18  O   UNL     1       4.129   2.693  18.630  0.00  0.00    +0.000 OA
ATOM     19  C   UNL     1       3.933   2.315  19.987  0.00  0.00    +0.000 C 
ENDBRANCH  12  18
BRANCH   6  20
ATOM     20  C   UNL     1       8.930   9.861  18.551  0.00  0.00    +0.000 C 
BRANCH  20  21
ATOM     21  C   UNL     1       9.213  11.275  18.132  0.00  0.00    +0.000 A 
ATOM     22  S   UNL     1       7.966  12.276  17.502  0.00  0.00    +0.000 S 
ATOM     23  C   UNL     1       9.090  13.557  17.345  0.00  0.00    +0.000 A 
ATOM     24  N   UNL     1      10.322  13.293  17.720  0.00  0.00    +0.000 NA
ATOM     25  C   UNL     1      10.406  11.982  18.164  0.00  0.00    +0.000 A 
ATOM     26  C   UNL     1      11.728  11.478  18.625  0.00  0.00    +0.000 C 
ENDBRANCH  20  21
ENDBRANCH   6  20
TORSDOF 4
ENDMDL
MODEL 9
REMARK VINA RESULT:      -6.6      5.375      6.786
REMARK  Name = 
REMARK  7 active torsions:
REMARK  status: ('A' for Active; 'I' for Inactive)
REMARK    1  A    between atoms: C_1  and  O_2
REMARK    2  A    between atoms: O_2  and  C_3
REMARK    3  A    between atoms: N_8  and  C_9
REMARK    4  A    between atoms: C_9  and  C_10
REMARK    5  A    between atoms: C_14  and  C_15
REMARK    6  A    between atoms: C_21  and  O_22
REMARK    7  A    between atoms: O_22  and  C_23
REMARK                            x       y       z     vdW  Elec       q    Type
REMARK                         _______ _______ _______ _____ _____    ______ ____
ROOT
ATOM      1  C   UNL     1       4.204   4.887  17.514  0.00  0.00    +0.000 A 
ATOM      2  C   UNL     1       4.790   6.140  17.283  0.00  0.00    +0.000 A 
ATOM      3  C   UNL     1       6.004   6.505  17.853  0.00  0.00    +0.000 A 
ATOM      4  N   UNL     1       6.529   7.704  17.566  0.00  0.00    +0.000 NA
ATOM      5  C   UNL     1       7.712   8.018  18.100  0.00  0.00    +0.000 A 
ATOM      6  N   UNL     1       8.256   9.226  17.687  0.00  0.00    +0.000 N 
ATOM      7  N   UNL     1       8.385   7.231  18.947  0.00  0.00    +0.000 NA
ATOM      8  C   UNL     1       7.850   6.035  19.227  0.00  0.00    +0.000 A 
ATOM      9  N   UNL     1       8.626   5.215  20.048  0.00  0.00    +0.000 N 
ATOM     10  C   UNL     1       6.639   5.594  18.693  0.00  0.00    +0.000 A 
ATOM     11  C   UNL     1       6.054   4.327  18.946  0.00  0.00    +0.000 A 
ATOM     12  C   UNL     1       4.834   3.970  18.368  0.00  0.00    +0.000 A 
ATOM     13  H   UNL     1       7.512   9.751  17.244  0.00  0.00    +0.000 HD
ATOM     14  H   UNL     1       9.431   5.755  20.353  0.00  0.00    +0.000 HD
ATOM     15  H   UNL     1       8.109   4.822  20.823  0.00  0.00    +0.000 HD
ENDROOT
BRANCH   1  17
ATOM     16  C   UNL     1       1.850   4.838  17.759  0.00  0.00    +0.000 C 
ATOM     17  O   UNL     1       2.996   4.515  16.977  0.00  0.00    +0.000 OA
ENDBRANCH   1  17
BRANCH  12  18
ATOM     18  O   UNL     1       4.204   2.769  18.571  0.00  0.00    +0.000 OA
ATOM     19  C   UNL     1       4.039   2.334  19.915  0.00  0.00    +0.000 C 
ENDBRANCH  12  18
BRANCH   6  20
ATOM     20  C   UNL     1       8.987   9.948  18.710  0.00  0.00    +0.000 C 
BRANCH  20  21
ATOM     21  C   UNL     1       9.668  11.180  18.185  0.00  0.00    +0.000 A 
ATOM     22  S   UNL     1      11.374  11.359  18.292  0.00  0.00    +0.000 S 
ATOM     23  C   UNL     1      11.251  12.878  17.513  0.00  0.00    +0.000 A 
ATOM     24  N   UNL     1      10.037  13.262  17.186  0.00  0.00    +0.000 NA
ATOM     25  C   UNL     1       9.119  12.300  17.577  0.00  0.00    +0.000 A 
ATOM     26  C   UNL     1       7.677  12.549  17.307  0.00  0.00    +0.000 C 
ENDBRANCH  20  21
ENDBRANCH   6  20
TORSDOF 4
ENDMDL
