MODEL 1
REMARK VINA RESULT:      -7.8      0.000      0.000
REMARK  Name = 
REMARK  6 active torsions:
REMARK  status: ('A' for Active; 'I' for Inactive)
REMARK    1  A    between atoms: C_1  and  C_2
REMARK    2  A    between atoms: C_2  and  C_3
REMARK    3  A    between atoms: C_7  and  C_8
REMARK    4  A    between atoms: C_8  and  N_9
REMARK    5  A    between atoms: C_14  and  C_15
REMARK    6  A    between atoms: C_15  and  O_17
REMARK                            x       y       z     vdW  Elec       q    Type
REMARK                         _______ _______ _______ _____ _____    ______ ____
ROOT
ATOM      1  N   UNL     1       5.195   4.289  17.155  0.00  0.00    +0.000 NA
ATOM      2  C   UNL     1       6.144   4.083  16.040  0.00  0.00    +0.000 C 
ATOM      3  C   UNL     1       5.741   5.141  14.996  0.00  0.00    +0.000 C 
ATOM      4  C   UNL     1       5.222   6.302  15.859  0.00  0.00    +0.000 C 
ATOM      5  C   UNL     1       5.458   5.764  17.285  0.00  0.00    +0.000 C 
ATOM      6  C   UNL     1       6.989   5.810  17.475  0.00  0.00    +0.000 C 
ATOM      7  C   UNL     1       7.443   4.536  16.750  0.00  0.00    +0.000 C 
ENDROOT
BRANCH   6   8
ATOM      8  C   UNL     1       7.454   5.971  18.906  0.00  0.00    +0.000 C 
ATOM      9  O   UNL     1       6.980   5.336  19.834  0.00  0.00    +0.000 OA
BRANCH   8  10
ATOM     10  O   UNL     1       8.439   6.874  19.072  0.00  0.00    +0.000 OA
ATOM     11  H   UNL     1       8.683   7.308  18.227  0.00  0.00    +0.000 HD
ENDBRANCH   8  10
ENDBRANCH   6   8
BRANCH   1  12
ATOM     12  C   UNL     1       3.760   3.993  16.853  0.00  0.00    +0.000 C 
BRANCH  12  17
ATOM     13  C   UNL     1       1.686   4.838  19.989  0.00  0.00    +0.000 A 
ATOM     14  C   UNL     1       1.027   3.630  20.220  0.00  0.00    +0.000 A 
ATOM     15  C   UNL     1       1.243   2.535  19.374  0.00  0.00    +0.000 A 
ATOM     16  C   UNL     1       2.105   2.634  18.271  0.00  0.00    +0.000 A 
ATOM     17  C   UNL     1       2.788   3.824  18.016  0.00  0.00    +0.000 A 
ATOM     18  C   UNL     1       2.604   4.894  18.922  0.00  0.00    +0.000 A 
BRANCH  13  20
ATOM     19  C   UNL     1       1.992   7.404  20.230  0.00  0.00    +0.000 C 
ATOM     20  C   UNL     1       1.463   6.094  20.805  0.00  0.00    +0.000 C 
ENDBRANCH  13  20
ENDBRANCH  12  17
ENDBRANCH   1  12
TORSDOF 5
ENDMDL
MODEL 2
REMARK VINA RESULT:      -7.6      2.443      5.666
REMARK  Name = 
REMARK  6 active torsions:
REMARK  status: ('A' for Active; 'I' for Inactive)
REMARK    1  A    between atoms: C_1  and  C_2
REMARK    2  A    between atoms: C_2  and  C_3
REMARK    3  A    between atoms: C_7  and  C_8
REMARK    4  A    between atoms: C_8  and  N_9
REMARK    5  A    between atoms: C_14  and  C_15
REMARK    6  A    between atoms: C_15  and  O_17
REMARK                            x       y       z     vdW  Elec       q    Type
REMARK                         _______ _______ _______ _____ _____    ______ ____
ROOT
ATOM      1  N   UNL     1       3.464   3.567  18.873  0.00  0.00    +0.000 NA
ATOM      2  C   UNL     1       2.931   4.946  18.902  0.00  0.00    +0.000 C 
ATOM      3  C   UNL     1       1.758   4.923  17.904  0.00  0.00    +0.000 C 
ATOM      4  C   UNL     1       1.226   3.486  18.026  0.00  0.00    +0.000 C 
ATOM      5  C   UNL     1       2.137   2.905  19.126  0.00  0.00    +0.000 C 
ATOM      6  C   UNL     1       1.670   3.590  20.428  0.00  0.00    +0.000 C 
ATOM      7  C   UNL     1       2.372   4.952  20.345  0.00  0.00    +0.000 C 
ENDROOT
BRANCH   6   8
ATOM      8  C   UNL     1       1.899   2.791  21.692  0.00  0.00    +0.000 C 
ATOM      9  O   UNL     1       1.004   2.517  22.476  0.00  0.00    +0.000 OA
BRANCH   8  10
ATOM     10  O   UNL     1       3.175   2.406  21.883  0.00  0.00    +0.000 OA
ATOM     11  H   UNL     1       3.562   2.011  21.072  0.00  0.00    +0.000 HD
ENDBRANCH   8  10
ENDBRANCH   6   8
BRANCH   1  12
ATOM     12  C   UNL     1       4.077   3.132  17.580  0.00  0.00    +0.000 C 
BRANCH  12  17
ATOM     13  C   UNL     1       6.868   5.764  17.228  0.00  0.00    +0.000 A 
ATOM     14  C   UNL     1       7.100   5.742  15.852  0.00  0.00    +0.000 A 
ATOM     15  C   UNL     1       6.362   4.884  15.027  0.00  0.00    +0.000 A 
ATOM     16  C   UNL     1       5.396   4.020  15.563  0.00  0.00    +0.000 A 
ATOM     17  C   UNL     1       5.131   4.024  16.934  0.00  0.00    +0.000 A 
ATOM     18  C   UNL     1       5.842   4.944  17.738  0.00  0.00    +0.000 A 
BRANCH  13  20
ATOM     19  C   UNL     1       7.916   8.061  17.834  0.00  0.00    +0.000 C 
ATOM     20  C   UNL     1       7.663   6.603  18.207  0.00  0.00    +0.000 C 
ENDBRANCH  13  20
ENDBRANCH  12  17
ENDBRANCH   1  12
TORSDOF 5
ENDMDL
MODEL 3
REMARK VINA RESULT:      -7.6      2.525      6.164
REMARK  Name = 
REMARK  6 active torsions:
REMARK  status: ('A' for Active; 'I' for Inactive)
REMARK    1  A    between atoms: C_1  and  C_2
REMARK    2  A    between atoms: C_2  and  C_3
REMARK    3  A    between atoms: C_7  and  C_8
REMARK    4  A    between atoms: C_8  and  N_9
REMARK    5  A    between atoms: C_14  and  C_15
REMARK    6  A    between atoms: C_15  and  O_17
REMARK                            x       y       z     vdW  Elec       q    Type
REMARK                         _______ _______ _______ _____ _____    ______ ____
ROOT
ATOM      1  N   UNL     1       3.310   3.551  19.055  0.00  0.00    +0.000 NA
ATOM      2  C   UNL     1       2.475   4.764  18.926  0.00  0.00    +0.000 C 
ATOM      3  C   UNL     1       1.423   4.392  17.864  0.00  0.00    +0.000 C 
ATOM      4  C   UNL     1       1.227   2.883  18.084  0.00  0.00    +0.000 C 
ATOM      5  C   UNL     1       2.155   2.616  19.285  0.00  0.00    +0.000 C 
ATOM      6  C   UNL     1       1.440   3.267  20.489  0.00  0.00    +0.000 C 
ATOM      7  C   UNL     1       1.815   4.746  20.326  0.00  0.00    +0.000 C 
ENDROOT
BRANCH   6   8
ATOM      8  C   UNL     1       1.743   2.640  21.833  0.00  0.00    +0.000 C 
ATOM      9  O   UNL     1       0.885   2.421  22.672  0.00  0.00    +0.000 OA
BRANCH   8  10
ATOM     10  O   UNL     1       3.042   2.342  22.026  0.00  0.00    +0.000 OA
ATOM     11  H   UNL     1       3.478   2.983  22.629  0.00  0.00    +0.000 HD
ENDBRANCH   8  10
ENDBRANCH   6   8
BRANCH   1  12
ATOM     12  C   UNL     1       4.109   3.177  17.847  0.00  0.00    +0.000 C 
BRANCH  12  17
ATOM     13  C   UNL     1       6.636   4.901  15.504  0.00  0.00    +0.000 A 
ATOM     14  C   UNL     1       7.227   5.827  16.365  0.00  0.00    +0.000 A 
ATOM     15  C   UNL     1       6.821   5.904  17.703  0.00  0.00    +0.000 A 
ATOM     16  C   UNL     1       5.805   5.073  18.199  0.00  0.00    +0.000 A 
ATOM     17  C   UNL     1       5.200   4.129  17.368  0.00  0.00    +0.000 A 
ATOM     18  C   UNL     1       5.671   4.025  16.039  0.00  0.00    +0.000 A 
BRANCH  13  20
ATOM     19  C   UNL     1       6.167   3.772  13.215  0.00  0.00    +0.000 C 
ATOM     20  C   UNL     1       6.956   4.793  14.028  0.00  0.00    +0.000 C 
ENDBRANCH  13  20
ENDBRANCH  12  17
ENDBRANCH   1  12
TORSDOF 5
ENDMDL
MODEL 4
REMARK VINA RESULT:      -7.5      3.198      5.057
REMARK  Name = 
REMARK  6 active torsions:
REMARK  status: ('A' for Active; 'I' for Inactive)
REMARK    1  A    between atoms: C_1  and  C_2
REMARK    2  A    between atoms: C_2  and  C_3
REMARK    3  A    between atoms: C_7  and  C_8
REMARK    4  A    between atoms: C_8  and  N_9
REMARK    5  A    between atoms: C_14  and  C_15
REMARK    6  A    between atoms: C_15  and  O_17
REMARK                            x       y       z     vdW  Elec       q    Type
REMARK                         _______ _______ _______ _____ _____    ______ ____
ROOT
ATOM      1  N   UNL     1       2.615   4.973  18.578  0.00  0.00    +0.000 NA
ATOM      2  C   UNL     1       2.898   3.873  17.633  0.00  0.00    +0.000 C 
ATOM      3  C   UNL     1       4.431   3.728  17.664  0.00  0.00    +0.000 C 
ATOM      4  C   UNL     1       4.788   4.119  19.107  0.00  0.00    +0.000 C 
ATOM      5  C   UNL     1       3.396   4.377  19.717  0.00  0.00    +0.000 C 
ATOM      6  C   UNL     1       2.761   2.976  19.854  0.00  0.00    +0.000 C 
ATOM      7  C   UNL     1       2.260   2.708  18.428  0.00  0.00    +0.000 C 
ENDROOT
BRANCH   6   8
ATOM      8  C   UNL     1       1.739   2.840  20.962  0.00  0.00    +0.000 C 
ATOM      9  O   UNL     1       2.009   2.387  22.062  0.00  0.00    +0.000 OA
BRANCH   8  10
ATOM     10  O   UNL     1       0.503   3.261  20.633  0.00  0.00    +0.000 OA
ATOM     11  H   UNL     1       0.305   4.146  21.009  0.00  0.00    +0.000 HD
ENDBRANCH   8  10
ENDBRANCH   6   8
BRANCH   1  12
ATOM     12  C   UNL     1       3.129   6.321  18.184  0.00  0.00    +0.000 C 
BRANCH  12  17
ATOM     13  C   UNL     1       1.271   8.782  20.494  0.00  0.00    +0.000 A 
ATOM     14  C   UNL     1       0.917   9.792  19.598  0.00  0.00    +0.000 A 
ATOM     15  C   UNL     1       1.270   9.690  18.247  0.00  0.00    +0.000 A 
ATOM     16  C   UNL     1       1.999   8.590  17.771  0.00  0.00    +0.000 A 
ATOM     17  C   UNL     1       2.361   7.558  18.638  0.00  0.00    +0.000 A 
ATOM     18  C   UNL     1       1.937   7.651  19.983  0.00  0.00    +0.000 A 
BRANCH  13  20
ATOM     19  C   UNL     1      -0.363   9.367  22.424  0.00  0.00    +0.000 C 
ATOM     20  C   UNL     1       0.998   8.837  21.982  0.00  0.00    +0.000 C 
ENDBRANCH  13  20
ENDBRANCH  12  17
ENDBRANCH   1  12
TORSDOF 5
ENDMDL
MODEL 5
REMARK VINA RESULT:      -7.4      0.715      1.008
REMARK  Name = 
REMARK  6 active torsions:
REMARK  status: ('A' for Active; 'I' for Inactive)
REMARK    1  A    between atoms: C_1  and  C_2
REMARK    2  A    between atoms: C_2  and  C_3
REMARK    3  A    between atoms: C_7  and  C_8
REMARK    4  A    between atoms: C_8  and  N_9
REMARK    5  A    between atoms: C_14  and  C_15
REMARK    6  A    between atoms: C_15  and  O_17
REMARK                            x       y       z     vdW  Elec       q    Type
REMARK                         _______ _______ _______ _____ _____    ______ ____
ROOT
ATOM      1  N   UNL     1       5.235   4.469  17.488  0.00  0.00    +0.000 NA
ATOM      2  C   UNL     1       6.074   4.128  16.320  0.00  0.00    +0.000 C 
ATOM      3  C   UNL     1       5.654   5.141  15.239  0.00  0.00    +0.000 C 
ATOM      4  C   UNL     1       5.280   6.388  16.057  0.00  0.00    +0.000 C 
ATOM      5  C   UNL     1       5.599   5.928  17.494  0.00  0.00    +0.000 C 
ATOM      6  C   UNL     1       7.140   5.883  17.561  0.00  0.00    +0.000 C 
ATOM      7  C   UNL     1       7.453   4.537  16.893  0.00  0.00    +0.000 C 
ENDROOT
BRANCH   6   8
ATOM      8  C   UNL     1       7.731   6.103  18.937  0.00  0.00    +0.000 C 
ATOM      9  O   UNL     1       7.493   5.375  19.886  0.00  0.00    +0.000 OA
BRANCH   8  10
ATOM     10  O   UNL     1       8.544   7.173  19.027  0.00  0.00    +0.000 OA
ATOM     11  H   UNL     1       9.377   7.043  18.524  0.00  0.00    +0.000 HD
ENDBRANCH   8  10
ENDBRANCH   6   8
BRANCH   1  12
ATOM     12  C   UNL     1       3.765   4.252  17.320  0.00  0.00    +0.000 C 
BRANCH  12  17
ATOM     13  C   UNL     1       1.914   6.293  20.014  0.00  0.00    +0.000 A 
ATOM     14  C   UNL     1       1.177   5.299  20.659  0.00  0.00    +0.000 A 
ATOM     15  C   UNL     1       1.269   3.967  20.236  0.00  0.00    +0.000 A 
ATOM     16  C   UNL     1       2.082   3.608  19.151  0.00  0.00    +0.000 A 
ATOM     17  C   UNL     1       2.840   4.575  18.489  0.00  0.00    +0.000 A 
ATOM     18  C   UNL     1       2.781   5.902  18.975  0.00  0.00    +0.000 A 
BRANCH  13  20
ATOM     19  C   UNL     1       0.791   8.184  21.393  0.00  0.00    +0.000 C 
ATOM     20  C   UNL     1       1.825   7.766  20.352  0.00  0.00    +0.000 C 
ENDBRANCH  13  20
ENDBRANCH  12  17
ENDBRANCH   1  12
TORSDOF 5
ENDMDL
MODEL 6
REMARK VINA RESULT:      -7.4      2.622      5.590
REMARK  Name = 
REMARK  6 active torsions:
REMARK  status: ('A' for Active; 'I' for Inactive)
REMARK    1  A    between atoms: C_1  and  C_2
REMARK    2  A    between atoms: C_2  and  C_3
REMARK    3  A    between atoms: C_7  and  C_8
REMARK    4  A    between atoms: C_8  and  N_9
REMARK    5  A    between atoms: C_14  and  C_15
REMARK    6  A    between atoms: C_15  and  O_17
REMARK                            x       y       z     vdW  Elec       q    Type
REMARK                         _______ _______ _______ _____ _____    ______ ____
ROOT
ATOM      1  N   UNL     1       3.219   4.870  18.279  0.00  0.00    +0.000 NA
ATOM      2  C   UNL     1       2.035   4.237  17.661  0.00  0.00    +0.000 C 
ATOM      3  C   UNL     1       2.570   2.918  17.072  0.00  0.00    +0.000 C 
ATOM      4  C   UNL     1       3.697   2.535  18.045  0.00  0.00    +0.000 C 
ATOM      5  C   UNL     1       3.607   3.665  19.091  0.00  0.00    +0.000 C 
ATOM      6  C   UNL     1       2.313   3.369  19.880  0.00  0.00    +0.000 C 
ATOM      7  C   UNL     1       1.231   3.932  18.948  0.00  0.00    +0.000 C 
ENDROOT
BRANCH   6   8
ATOM      8  C   UNL     1       2.300   3.874  21.306  0.00  0.00    +0.000 C 
ATOM      9  O   UNL     1       2.113   3.146  22.267  0.00  0.00    +0.000 OA
BRANCH   8  10
ATOM     10  O   UNL     1       2.514   5.198  21.429  0.00  0.00    +0.000 OA
ATOM     11  H   UNL     1       2.136   5.701  20.676  0.00  0.00    +0.000 HD
ENDBRANCH   8  10
ENDBRANCH   6   8
BRANCH   1  12
ATOM     12  C   UNL     1       4.302   5.290  17.337  0.00  0.00    +0.000 C 
BRANCH  12  17
ATOM     13  C   UNL     1       7.478   7.391  17.919  0.00  0.00    +0.000 A 
ATOM     14  C   UNL     1       8.139   6.635  18.888  0.00  0.00    +0.000 A 
ATOM     15  C   UNL     1       7.571   5.445  19.361  0.00  0.00    +0.000 A 
ATOM     16  C   UNL     1       6.327   5.001  18.890  0.00  0.00    +0.000 A 
ATOM     17  C   UNL     1       5.644   5.728  17.913  0.00  0.00    +0.000 A 
ATOM     18  C   UNL     1       6.266   6.890  17.404  0.00  0.00    +0.000 A 
BRANCH  13  20
ATOM     19  C   UNL     1       8.622   9.669  18.408  0.00  0.00    +0.000 C 
ATOM     20  C   UNL     1       7.976   8.724  17.400  0.00  0.00    +0.000 C 
ENDBRANCH  13  20
ENDBRANCH  12  17
ENDBRANCH   1  12
TORSDOF 5
ENDMDL
MODEL 7
REMARK VINA RESULT:      -7.3      2.081      3.270
REMARK  Name = 
REMARK  6 active torsions:
REMARK  status: ('A' for Active; 'I' for Inactive)
REMARK    1  A    between atoms: C_1  and  C_2
REMARK    2  A    between atoms: C_2  and  C_3
REMARK    3  A    between atoms: C_7  and  C_8
REMARK    4  A    between atoms: C_8  and  N_9
REMARK    5  A    between atoms: C_14  and  C_15
REMARK    6  A    between atoms: C_15  and  O_17
REMARK                            x       y       z     vdW  Elec       q    Type
REMARK                         _______ _______ _______ _____ _____    ______ ____
ROOT
ATOM      1  N   UNL     1       4.980   5.902  18.136  0.00  0.00    +0.000 NA
ATOM      2  C   UNL     1       5.655   4.605  17.916  0.00  0.00    +0.000 C 
ATOM      3  C   UNL     1       5.361   4.267  16.442  0.00  0.00    +0.000 C 
ATOM      4  C   UNL     1       5.291   5.651  15.776  0.00  0.00    +0.000 C 
ATOM      5  C   UNL     1       5.616   6.586  16.958  0.00  0.00    +0.000 C 
ATOM      6  C   UNL     1       7.122   6.374  17.226  0.00  0.00    +0.000 C 
ATOM      7  C   UNL     1       7.123   5.077  18.047  0.00  0.00    +0.000 C 
ENDROOT
BRANCH   6   8
ATOM      8  C   UNL     1       7.839   7.557  17.838  0.00  0.00    +0.000 C 
ATOM      9  O   UNL     1       7.807   8.676  17.354  0.00  0.00    +0.000 OA
BRANCH   8  10
ATOM     10  O   UNL     1       8.518   7.273  18.967  0.00  0.00    +0.000 OA
ATOM     11  H   UNL     1       8.204   7.809  19.727  0.00  0.00    +0.000 HD
ENDBRANCH   8  10
ENDBRANCH   6   8
BRANCH   1  12
ATOM     12  C   UNL     1       3.488   5.885  18.044  0.00  0.00    +0.000 C 
BRANCH  12  17
ATOM     13  C   UNL     1       1.492   8.375  20.204  0.00  0.00    +0.000 A 
ATOM     14  C   UNL     1       1.255   9.406  19.293  0.00  0.00    +0.000 A 
ATOM     15  C   UNL     1       1.733   9.309  17.980  0.00  0.00    +0.000 A 
ATOM     16  C   UNL     1       2.471   8.193  17.559  0.00  0.00    +0.000 A 
ATOM     17  C   UNL     1       2.717   7.140  18.441  0.00  0.00    +0.000 A 
ATOM     18  C   UNL     1       2.170   7.230  19.742  0.00  0.00    +0.000 A 
BRANCH  13  20
ATOM     19  C   UNL     1       0.424   9.703  22.161  0.00  0.00    +0.000 C 
ATOM     20  C   UNL     1       1.080   8.421  21.660  0.00  0.00    +0.000 C 
ENDBRANCH  13  20
ENDBRANCH  12  17
ENDBRANCH   1  12
TORSDOF 5
ENDMDL
MODEL 8
REMARK VINA RESULT:      -7.3      2.473      5.744
REMARK  Name = 
REMARK  6 active torsions:
REMARK  status: ('A' for Active; 'I' for Inactive)
REMARK    1  A    between atoms: C_1  and  C_2
REMARK    2  A    between atoms: C_2  and  C_3
REMARK    3  A    between atoms: C_7  and  C_8
REMARK    4  A    between atoms: C_8  and  N_9
REMARK    5  A    between atoms: C_14  and  C_15
REMARK    6  A    between atoms: C_15  and  O_17
REMARK                            x       y       z     vdW  Elec       q    Type
REMARK                         _______ _______ _______ _____ _____    ______ ____
ROOT
ATOM      1  N   UNL     1       3.388   3.522  18.816  0.00  0.00    +0.000 NA
ATOM      2  C   UNL     1       2.668   4.812  18.783  0.00  0.00    +0.000 C 
ATOM      3  C   UNL     1       1.512   4.579  17.792  0.00  0.00    +0.000 C 
ATOM      4  C   UNL     1       1.185   3.089  17.984  0.00  0.00    +0.000 C 
ATOM      5  C   UNL     1       2.167   2.694  19.106  0.00  0.00    +0.000 C 
ATOM      6  C   UNL     1       1.605   3.368  20.377  0.00  0.00    +0.000 C 
ATOM      7  C   UNL     1       2.110   4.809  20.227  0.00  0.00    +0.000 C 
ENDROOT
BRANCH   6   8
ATOM      8  C   UNL     1       1.940   2.670  21.677  0.00  0.00    +0.000 C 
ATOM      9  O   UNL     1       3.074   2.330  21.975  0.00  0.00    +0.000 OA
BRANCH   8  10
ATOM     10  O   UNL     1       0.882   2.454  22.481  0.00  0.00    +0.000 OA
ATOM     11  H   UNL     1       0.754   1.499  22.669  0.00  0.00    +0.000 HD
ENDBRANCH   8  10
ENDBRANCH   6   8
BRANCH   1  12
ATOM     12  C   UNL     1       4.059   3.115  17.543  0.00  0.00    +0.000 C 
BRANCH  12  17
ATOM     13  C   UNL     1       6.847   5.761  17.273  0.00  0.00    +0.000 A 
ATOM     14  C   UNL     1       6.998   5.867  15.889  0.00  0.00    +0.000 A 
ATOM     15  C   UNL     1       6.205   5.092  15.034  0.00  0.00    +0.000 A 
ATOM     16  C   UNL     1       5.264   4.184  15.543  0.00  0.00    +0.000 A 
ATOM     17  C   UNL     1       5.081   4.061  16.922  0.00  0.00    +0.000 A 
ATOM     18  C   UNL     1       5.846   4.900  17.764  0.00  0.00    +0.000 A 
BRANCH  13  20
ATOM     19  C   UNL     1       8.071   5.766  19.562  0.00  0.00    +0.000 C 
ATOM     20  C   UNL     1       7.705   6.502  18.277  0.00  0.00    +0.000 C 
ENDBRANCH  13  20
ENDBRANCH  12  17
ENDBRANCH   1  12
TORSDOF 5
ENDMDL
MODEL 9
REMARK VINA RESULT:      -7.3      1.015      1.347
REMARK  Name = 
REMARK  6 active torsions:
REMARK  status: ('A' for Active; 'I' for Inactive)
REMARK    1  A    between atoms: C_1  and  C_2
REMARK    2  A    between atoms: C_2  and  C_3
REMARK    3  A    between atoms: C_7  and  C_8
REMARK    4  A    between atoms: C_8  and  N_9
REMARK    5  A    between atoms: C_14  and  C_15
REMARK    6  A    between atoms: C_15  and  O_17
REMARK                            x       y       z     vdW  Elec       q    Type
REMARK                         _______ _______ _______ _____ _____    ______ ____
ROOT
ATOM      1  N   UNL     1       5.175   5.153  17.420  0.00  0.00    +0.000 NA
ATOM      2  C   UNL     1       6.106   4.046  17.116  0.00  0.00    +0.000 C 
ATOM      3  C   UNL     1       6.033   3.896  15.585  0.00  0.00    +0.000 C 
ATOM      4  C   UNL     1       5.765   5.333  15.107  0.00  0.00    +0.000 C 
ATOM      5  C   UNL     1       5.782   6.114  16.437  0.00  0.00    +0.000 C 
ATOM      6  C   UNL     1       7.265   6.131  16.865  0.00  0.00    +0.000 C 
ATOM      7  C   UNL     1       7.434   4.743  17.497  0.00  0.00    +0.000 C 
ENDROOT
BRANCH   6   8
ATOM      8  C   UNL     1       7.675   7.312  17.718  0.00  0.00    +0.000 C 
ATOM      9  O   UNL     1       7.484   8.470  17.384  0.00  0.00    +0.000 OA
BRANCH   8  10
ATOM     10  O   UNL     1       8.268   6.980  18.880  0.00  0.00    +0.000 OA
ATOM     11  H   UNL     1       8.943   6.277  18.758  0.00  0.00    +0.000 HD
ENDBRANCH   8  10
ENDBRANCH   6   8
BRANCH   1  12
ATOM     12  C   UNL     1       3.731   4.888  17.136  0.00  0.00    +0.000 C 
BRANCH  12  17
ATOM     13  C   UNL     1       1.688   5.641  20.316  0.00  0.00    +0.000 A 
ATOM     14  C   UNL     1       1.057   4.416  20.537  0.00  0.00    +0.000 A 
ATOM     15  C   UNL     1       1.283   3.340  19.670  0.00  0.00    +0.000 A 
ATOM     16  C   UNL     1       2.125   3.473  18.557  0.00  0.00    +0.000 A 
ATOM     17  C   UNL     1       2.781   4.681  18.311  0.00  0.00    +0.000 A 
ATOM     18  C   UNL     1       2.589   5.733  19.236  0.00  0.00    +0.000 A 
BRANCH  13  20
ATOM     19  C   UNL     1       1.504   8.227  20.441  0.00  0.00    +0.000 C 
ATOM     20  C   UNL     1       1.452   6.880  21.154  0.00  0.00    +0.000 C 
ENDBRANCH  13  20
ENDBRANCH  12  17
ENDBRANCH   1  12
TORSDOF 5
ENDMDL
