MODEL 1
REMARK VINA RESULT:      -9.4      0.000      0.000
REMARK  Name = 
REMARK  7 active torsions:
REMARK  status: ('A' for Active; 'I' for Inactive)
REMARK    1  A    between atoms: C_1  and  C_2
REMARK    2  A    between atoms: C_8  and  C_9
REMARK    3  A    between atoms: C_12  and  C_13
REMARK    4  A    between atoms: C_17  and  C_18
REMARK    5  A    between atoms: C_18  and  N_19
REMARK    6  A    between atoms: N_19  and  C_20
REMARK    7  A    between atoms: C_20  and  C_21
REMARK                            x       y       z     vdW  Elec       q    Type
REMARK                         _______ _______ _______ _____ _____    ______ ____
ROOT
ATOM      1  C   UNL     1       2.296   7.721  18.937  0.00  0.00    +0.000 A 
ATOM      2  C   UNL     1       1.765   8.891  18.399  0.00  0.00    +0.000 A 
ATOM      3  C   UNL     1       0.938   9.709  19.169  0.00  0.00    +0.000 A 
ATOM      4  C   UNL     1       0.620   9.379  20.497  0.00  0.00    +0.000 A 
ATOM      5  C   UNL     1       1.171   8.200  21.026  0.00  0.00    +0.000 A 
ATOM      6  C   UNL     1       2.003   7.382  20.259  0.00  0.00    +0.000 A 
ENDROOT
BRANCH   1  14
ATOM      7  C   UNL     1       3.924   2.530  17.498  0.00  0.00    +0.000 C 
ATOM      8  C   UNL     1       4.506   3.773  16.899  0.00  0.00    +0.000 A 
ATOM      9  C   UNL     1       5.517   3.711  15.922  0.00  0.00    +0.000 A 
ATOM     10  C   UNL     1       6.077   4.861  15.357  0.00  0.00    +0.000 A 
ATOM     11  C   UNL     1       5.643   6.132  15.743  0.00  0.00    +0.000 A 
ATOM     12  C   UNL     1       4.633   6.224  16.705  0.00  0.00    +0.000 A 
ATOM     13  N   UNL     1       4.035   7.339  17.229  0.00  0.00    +0.000 NA
ATOM     14  C   UNL     1       3.170   6.898  18.116  0.00  0.00    +0.000 A 
ATOM     15  N   UNL     1       3.171   5.524  18.153  0.00  0.00    +0.000 N 
ATOM     16  C   UNL     1       4.102   5.066  17.258  0.00  0.00    +0.000 A 
ATOM     17  H   UNL     1       2.573   4.954  18.726  0.00  0.00    +0.000 HD
ENDBRANCH   1  14
BRANCH   4  18
ATOM     18  C   UNL     1      -0.224  10.271  21.313  0.00  0.00    +0.000 A 
ATOM     19  C   UNL     1      -0.459  10.007  22.675  0.00  0.00    +0.000 A 
ATOM     20  C   UNL     1      -1.317  10.807  23.425  0.00  0.00    +0.000 A 
ATOM     21  C   UNL     1      -1.953  11.893  22.833  0.00  0.00    +0.000 A 
ATOM     22  C   UNL     1      -1.728  12.204  21.487  0.00  0.00    +0.000 A 
ATOM     23  C   UNL     1      -0.859  11.391  20.747  0.00  0.00    +0.000 A 
BRANCH  22  24
ATOM     24  C   UNL     1      -2.449  13.355  20.828  0.00  0.00    +0.000 C 
BRANCH  24  25
ATOM     25  N   UNL     1      -2.669  13.104  19.408  0.00  0.00    +0.000 NA
ATOM     26  H   UNL     1      -1.805  12.765  18.988  0.00  0.00    +0.000 HD
BRANCH  25  27
ATOM     27  C   UNL     1      -3.722  12.110  19.203  0.00  0.00    +0.000 C 
BRANCH  27  28
ATOM     28  C   UNL     1      -3.457  11.304  17.954  0.00  0.00    +0.000 A 
ATOM     29  C   UNL     1      -2.406  10.378  17.911  0.00  0.00    +0.000 A 
ATOM     30  C   UNL     1      -2.113   9.695  16.729  0.00  0.00    +0.000 A 
ATOM     31  C   UNL     1      -2.877   9.918  15.585  0.00  0.00    +0.000 A 
ATOM     32  C   UNL     1      -3.954  10.801  15.629  0.00  0.00    +0.000 A 
ATOM     33  C   UNL     1      -4.246  11.486  16.808  0.00  0.00    +0.000 A 
ENDBRANCH  27  28
ENDBRANCH  25  27
ENDBRANCH  24  25
ENDBRANCH  22  24
ENDBRANCH   4  18
TORSDOF 6
ENDMDL
MODEL 2
REMARK VINA RESULT:      -9.1      2.191      9.530
REMARK  Name = 
REMARK  7 active torsions:
REMARK  status: ('A' for Active; 'I' for Inactive)
REMARK    1  A    between atoms: C_1  and  C_2
REMARK    2  A    between atoms: C_8  and  C_9
REMARK    3  A    between atoms: C_12  and  C_13
REMARK    4  A    between atoms: C_17  and  C_18
REMARK    5  A    between atoms: C_18  and  N_19
REMARK    6  A    between atoms: N_19  and  C_20
REMARK    7  A    between atoms: C_20  and  C_21
REMARK                            x       y       z     vdW  Elec       q    Type
REMARK                         _______ _______ _______ _____ _____    ______ ____
ROOT
ATOM      1  C   UNL     1       0.904   9.580  19.722  0.00  0.00    +0.000 A 
ATOM      2  C   UNL     1       1.383   8.445  20.373  0.00  0.00    +0.000 A 
ATOM      3  C   UNL     1       2.238   7.562  19.712  0.00  0.00    +0.000 A 
ATOM      4  C   UNL     1       2.636   7.790  18.385  0.00  0.00    +0.000 A 
ATOM      5  C   UNL     1       2.149   8.944  17.747  0.00  0.00    +0.000 A 
ATOM      6  C   UNL     1       1.298   9.831  18.407  0.00  0.00    +0.000 A 
ENDROOT
BRANCH   1  14
ATOM      7  C   UNL     1      -3.878  12.545  19.709  0.00  0.00    +0.000 C 
ATOM      8  C   UNL     1      -2.920  12.531  20.859  0.00  0.00    +0.000 A 
ATOM      9  C   UNL     1      -3.166  13.277  22.027  0.00  0.00    +0.000 A 
ATOM     10  C   UNL     1      -2.279  13.281  23.108  0.00  0.00    +0.000 A 
ATOM     11  C   UNL     1      -1.102  12.529  23.071  0.00  0.00    +0.000 A 
ATOM     12  C   UNL     1      -0.836  11.771  21.926  0.00  0.00    +0.000 A 
ATOM     13  N   UNL     1       0.228  10.950  21.659  0.00  0.00    +0.000 NA
ATOM     14  C   UNL     1       0.030  10.492  20.443  0.00  0.00    +0.000 A 
ATOM     15  N   UNL     1      -1.154  10.969  19.931  0.00  0.00    +0.000 N 
ATOM     16  C   UNL     1      -1.728  11.794  20.863  0.00  0.00    +0.000 A 
ATOM     17  H   UNL     1      -1.539  10.734  19.033  0.00  0.00    +0.000 HD
ENDBRANCH   1  14
BRANCH   4  18
ATOM     18  C   UNL     1       3.569   6.870  17.710  0.00  0.00    +0.000 A 
ATOM     19  C   UNL     1       4.345   7.292  16.615  0.00  0.00    +0.000 A 
ATOM     20  C   UNL     1       5.169   6.402  15.931  0.00  0.00    +0.000 A 
ATOM     21  C   UNL     1       5.242   5.072  16.331  0.00  0.00    +0.000 A 
ATOM     22  C   UNL     1       4.505   4.617  17.430  0.00  0.00    +0.000 A 
ATOM     23  C   UNL     1       3.683   5.525  18.110  0.00  0.00    +0.000 A 
BRANCH  22  24
ATOM     24  C   UNL     1       4.546   3.164  17.842  0.00  0.00    +0.000 C 
BRANCH  24  25
ATOM     25  N   UNL     1       5.250   2.988  19.107  0.00  0.00    +0.000 NA
ATOM     26  H   UNL     1       5.474   3.902  19.498  0.00  0.00    +0.000 HD
BRANCH  25  27
ATOM     27  C   UNL     1       4.435   2.244  20.066  0.00  0.00    +0.000 C 
BRANCH  27  28
ATOM     28  C   UNL     1       2.985   2.655  19.965  0.00  0.00    +0.000 A 
ATOM     29  C   UNL     1       2.466   3.656  20.798  0.00  0.00    +0.000 A 
ATOM     30  C   UNL     1       1.108   3.975  20.759  0.00  0.00    +0.000 A 
ATOM     31  C   UNL     1       0.260   3.311  19.875  0.00  0.00    +0.000 A 
ATOM     32  C   UNL     1       0.773   2.348  19.008  0.00  0.00    +0.000 A 
ATOM     33  C   UNL     1       2.129   2.026  19.048  0.00  0.00    +0.000 A 
ENDBRANCH  27  28
ENDBRANCH  25  27
ENDBRANCH  24  25
ENDBRANCH  22  24
ENDBRANCH   4  18
TORSDOF 6
ENDMDL
MODEL 3
REMARK VINA RESULT:      -9.1      2.948      9.578
REMARK  Name = 
REMARK  7 active torsions:
REMARK  status: ('A' for Active; 'I' for Inactive)
REMARK    1  A    between atoms: C_1  and  C_2
REMARK    2  A    between atoms: C_8  and  C_9
REMARK    3  A    between atoms: C_12  and  C_13
REMARK    4  A    between atoms: C_17  and  C_18
REMARK    5  A    between atoms: C_18  and  N_19
REMARK    6  A    between atoms: N_19  and  C_20
REMARK    7  A    between atoms: C_20  and  C_21
REMARK                            x       y       z     vdW  Elec       q    Type
REMARK                         _______ _______ _______ _____ _____    ______ ____
ROOT
ATOM      1  C   UNL     1       1.377   9.132  19.799  0.00  0.00    +0.000 A 
ATOM      2  C   UNL     1       1.781   7.915  20.345  0.00  0.00    +0.000 A 
ATOM      3  C   UNL     1       2.520   7.011  19.582  0.00  0.00    +0.000 A 
ATOM      4  C   UNL     1       2.875   7.299  18.254  0.00  0.00    +0.000 A 
ATOM      5  C   UNL     1       2.467   8.534  17.723  0.00  0.00    +0.000 A 
ATOM      6  C   UNL     1       1.732   9.443  18.485  0.00  0.00    +0.000 A 
ENDROOT
BRANCH   1  14
ATOM      7  C   UNL     1       0.307  14.502  21.098  0.00  0.00    +0.000 C 
ATOM      8  C   UNL     1      -0.365  13.342  21.766  0.00  0.00    +0.000 A 
ATOM      9  C   UNL     1      -1.323  13.534  22.779  0.00  0.00    +0.000 A 
ATOM     10  C   UNL     1      -1.955  12.463  23.418  0.00  0.00    +0.000 A 
ATOM     11  C   UNL     1      -1.661  11.144  23.064  0.00  0.00    +0.000 A 
ATOM     12  C   UNL     1      -0.720  10.923  22.053  0.00  0.00    +0.000 A 
ATOM     13  N   UNL     1      -0.279   9.738  21.524  0.00  0.00    +0.000 NA
ATOM     14  C   UNL     1       0.624  10.063  20.625  0.00  0.00    +0.000 A 
ATOM     15  N   UNL     1       0.752  11.429  20.536  0.00  0.00    +0.000 N 
ATOM     16  C   UNL     1      -0.099  12.004  21.444  0.00  0.00    +0.000 A 
ATOM     17  H   UNL     1       1.354  11.919  19.898  0.00  0.00    +0.000 HD
ENDBRANCH   1  14
BRANCH   4  18
ATOM     18  C   UNL     1       3.689   6.352  17.470  0.00  0.00    +0.000 A 
ATOM     19  C   UNL     1       4.709   6.803  16.614  0.00  0.00    +0.000 A 
ATOM     20  C   UNL     1       5.425   5.914  15.816  0.00  0.00    +0.000 A 
ATOM     21  C   UNL     1       5.143   4.553  15.864  0.00  0.00    +0.000 A 
ATOM     22  C   UNL     1       4.152   4.060  16.721  0.00  0.00    +0.000 A 
ATOM     23  C   UNL     1       3.443   4.967  17.519  0.00  0.00    +0.000 A 
BRANCH  22  24
ATOM     24  C   UNL     1       3.812   2.589  16.745  0.00  0.00    +0.000 C 
BRANCH  24  25
ATOM     25  N   UNL     1       4.463   1.908  17.858  0.00  0.00    +0.000 NA
ATOM     26  H   UNL     1       4.961   2.593  18.427  0.00  0.00    +0.000 HD
BRANCH  25  27
ATOM     27  C   UNL     1       3.489   1.210  18.695  0.00  0.00    +0.000 C 
BRANCH  27  28
ATOM     28  C   UNL     1       2.633   2.198  19.453  0.00  0.00    +0.000 A 
ATOM     29  C   UNL     1       3.152   2.896  20.552  0.00  0.00    +0.000 A 
ATOM     30  C   UNL     1       2.335   3.746  21.300  0.00  0.00    +0.000 A 
ATOM     31  C   UNL     1       0.998   3.920  20.946  0.00  0.00    +0.000 A 
ATOM     32  C   UNL     1       0.484   3.269  19.827  0.00  0.00    +0.000 A 
ATOM     33  C   UNL     1       1.298   2.417  19.081  0.00  0.00    +0.000 A 
ENDBRANCH  27  28
ENDBRANCH  25  27
ENDBRANCH  24  25
ENDBRANCH  22  24
ENDBRANCH   4  18
TORSDOF 6
ENDMDL
MODEL 4
REMARK VINA RESULT:      -9.0      3.225      9.419
REMARK  Name = 
REMARK  7 active torsions:
REMARK  status: ('A' for Active; 'I' for Inactive)
REMARK    1  A    between atoms: C_1  and  C_2
REMARK    2  A    between atoms: C_8  and  C_9
REMARK    3  A    between atoms: C_12  and  C_13
REMARK    4  A    between atoms: C_17  and  C_18
REMARK    5  A    between atoms: C_18  and  N_19
REMARK    6  A    between atoms: N_19  and  C_20
REMARK    7  A    between atoms: C_20  and  C_21
REMARK                            x       y       z     vdW  Elec       q    Type
REMARK                         _______ _______ _______ _____ _____    ______ ____
ROOT
ATOM      1  C   UNL     1       1.531  10.571  18.940  0.00  0.00    +0.000 A 
ATOM      2  C   UNL     1       1.131   9.916  20.103  0.00  0.00    +0.000 A 
ATOM      3  C   UNL     1       1.298   8.537  20.228  0.00  0.00    +0.000 A 
ATOM      4  C   UNL     1       1.870   7.776  19.195  0.00  0.00    +0.000 A 
ATOM      5  C   UNL     1       2.276   8.454  18.034  0.00  0.00    +0.000 A 
ATOM      6  C   UNL     1       2.114   9.835  17.907  0.00  0.00    +0.000 A 
ENDROOT
BRANCH   1  14
ATOM      7  C   UNL     1       3.900  15.545  17.793  0.00  0.00    +0.000 C 
ATOM      8  C   UNL     1       2.468  15.388  18.201  0.00  0.00    +0.000 A 
ATOM      9  C   UNL     1       1.615  16.501  18.325  0.00  0.00    +0.000 A 
ATOM     10  C   UNL     1       0.277  16.373  18.711  0.00  0.00    +0.000 A 
ATOM     11  C   UNL     1      -0.272  15.118  18.987  0.00  0.00    +0.000 A 
ATOM     12  C   UNL     1       0.549  13.993  18.863  0.00  0.00    +0.000 A 
ATOM     13  N   UNL     1       0.245  12.672  19.059  0.00  0.00    +0.000 NA
ATOM     14  C   UNL     1       1.362  12.012  18.846  0.00  0.00    +0.000 A 
ATOM     15  N   UNL     1       2.372  12.872  18.483  0.00  0.00    +0.000 N 
ATOM     16  C   UNL     1       1.877  14.149  18.488  0.00  0.00    +0.000 A 
ATOM     17  H   UNL     1       3.308  12.601  18.237  0.00  0.00    +0.000 HD
ENDBRANCH   1  14
BRANCH   4  18
ATOM     18  C   UNL     1       2.077   6.325  19.355  0.00  0.00    +0.000 A 
ATOM     19  C   UNL     1       1.949   5.704  20.611  0.00  0.00    +0.000 A 
ATOM     20  C   UNL     1       2.219   4.348  20.774  0.00  0.00    +0.000 A 
ATOM     21  C   UNL     1       2.615   3.580  19.684  0.00  0.00    +0.000 A 
ATOM     22  C   UNL     1       2.730   4.154  18.413  0.00  0.00    +0.000 A 
ATOM     23  C   UNL     1       2.452   5.519  18.264  0.00  0.00    +0.000 A 
BRANCH  22  24
ATOM     24  C   UNL     1       3.202   3.335  17.234  0.00  0.00    +0.000 C 
BRANCH  24  25
ATOM     25  N   UNL     1       4.652   3.177  17.241  0.00  0.00    +0.000 NA
ATOM     26  H   UNL     1       4.887   2.221  16.973  0.00  0.00    +0.000 HD
BRANCH  25  27
ATOM     27  C   UNL     1       5.290   4.105  16.311  0.00  0.00    +0.000 C 
BRANCH  27  28
ATOM     28  C   UNL     1       6.144   5.103  17.056  0.00  0.00    +0.000 A 
ATOM     29  C   UNL     1       6.140   6.458  16.695  0.00  0.00    +0.000 A 
ATOM     30  C   UNL     1       6.991   7.362  17.332  0.00  0.00    +0.000 A 
ATOM     31  C   UNL     1       7.842   6.926  18.346  0.00  0.00    +0.000 A 
ATOM     32  C   UNL     1       7.821   5.592  18.746  0.00  0.00    +0.000 A 
ATOM     33  C   UNL     1       6.973   4.686  18.109  0.00  0.00    +0.000 A 
ENDBRANCH  27  28
ENDBRANCH  25  27
ENDBRANCH  24  25
ENDBRANCH  22  24
ENDBRANCH   4  18
TORSDOF 6
ENDMDL
MODEL 5
REMARK VINA RESULT:      -8.9      2.717      9.923
REMARK  Name = 
REMARK  7 active torsions:
REMARK  status: ('A' for Active; 'I' for Inactive)
REMARK    1  A    between atoms: C_1  and  C_2
REMARK    2  A    between atoms: C_8  and  C_9
REMARK    3  A    between atoms: C_12  and  C_13
REMARK    4  A    between atoms: C_17  and  C_18
REMARK    5  A    between atoms: C_18  and  N_19
REMARK    6  A    between atoms: N_19  and  C_20
REMARK    7  A    between atoms: C_20  and  C_21
REMARK                            x       y       z     vdW  Elec       q    Type
REMARK                         _______ _______ _______ _____ _____    ______ ____
ROOT
ATOM      1  C   UNL     1       0.984   9.914  19.413  0.00  0.00    +0.000 A 
ATOM      2  C   UNL     1       1.106   9.023  20.478  0.00  0.00    +0.000 A 
ATOM      3  C   UNL     1       1.701   7.776  20.289  0.00  0.00    +0.000 A 
ATOM      4  C   UNL     1       2.192   7.387  19.032  0.00  0.00    +0.000 A 
ATOM      5  C   UNL     1       2.068   8.301  17.972  0.00  0.00    +0.000 A 
ATOM      6  C   UNL     1       1.477   9.551  18.159  0.00  0.00    +0.000 A 
ENDROOT
BRANCH   1  14
ATOM      7  C   UNL     1       1.354  15.490  18.760  0.00  0.00    +0.000 C 
ATOM      8  C   UNL     1       0.206  14.815  19.443  0.00  0.00    +0.000 A 
ATOM      9  C   UNL     1      -0.869  15.553  19.973  0.00  0.00    +0.000 A 
ATOM     10  C   UNL     1      -1.946  14.939  20.620  0.00  0.00    +0.000 A 
ATOM     11  C   UNL     1      -1.999  13.550  20.760  0.00  0.00    +0.000 A 
ATOM     12  C   UNL     1      -0.949  12.790  20.235  0.00  0.00    +0.000 A 
ATOM     13  N   UNL     1      -0.782  11.430  20.231  0.00  0.00    +0.000 NA
ATOM     14  C   UNL     1       0.375  11.214  19.645  0.00  0.00    +0.000 A 
ATOM     15  N   UNL     1       0.943  12.399  19.239  0.00  0.00    +0.000 N 
ATOM     16  C   UNL     1       0.113  13.426  19.607  0.00  0.00    +0.000 A 
ATOM     17  H   UNL     1       1.810  12.490  18.739  0.00  0.00    +0.000 HD
ENDBRANCH   1  14
BRANCH   4  18
ATOM     18  C   UNL     1       2.854   6.081  18.854  0.00  0.00    +0.000 A 
ATOM     19  C   UNL     1       3.099   5.233  19.948  0.00  0.00    +0.000 A 
ATOM     20  C   UNL     1       3.792   4.035  19.790  0.00  0.00    +0.000 A 
ATOM     21  C   UNL     1       4.249   3.656  18.532  0.00  0.00    +0.000 A 
ATOM     22  C   UNL     1       4.004   4.460  17.413  0.00  0.00    +0.000 A 
ATOM     23  C   UNL     1       3.303   5.660  17.588  0.00  0.00    +0.000 A 
BRANCH  22  24
ATOM     24  C   UNL     1       4.535   4.075  16.052  0.00  0.00    +0.000 C 
BRANCH  24  25
ATOM     25  N   UNL     1       5.814   3.381  16.156  0.00  0.00    +0.000 NA
ATOM     26  H   UNL     1       5.796   2.551  15.563  0.00  0.00    +0.000 HD
BRANCH  25  27
ATOM     27  C   UNL     1       6.919   4.242  15.739  0.00  0.00    +0.000 C 
BRANCH  27  28
ATOM     28  C   UNL     1       7.258   5.235  16.825  0.00  0.00    +0.000 A 
ATOM     29  C   UNL     1       7.200   6.614  16.575  0.00  0.00    +0.000 A 
ATOM     30  C   UNL     1       7.594   7.527  17.555  0.00  0.00    +0.000 A 
ATOM     31  C   UNL     1       8.031   7.073  18.798  0.00  0.00    +0.000 A 
ATOM     32  C   UNL     1       8.047   5.707  19.074  0.00  0.00    +0.000 A 
ATOM     33  C   UNL     1       7.658   4.794  18.096  0.00  0.00    +0.000 A 
ENDBRANCH  27  28
ENDBRANCH  25  27
ENDBRANCH  24  25
ENDBRANCH  22  24
ENDBRANCH   4  18
TORSDOF 6
ENDMDL
MODEL 6
REMARK VINA RESULT:      -8.9      2.534      9.546
REMARK  Name = 
REMARK  7 active torsions:
REMARK  status: ('A' for Active; 'I' for Inactive)
REMARK    1  A    between atoms: C_1  and  C_2
REMARK    2  A    between atoms: C_8  and  C_9
REMARK    3  A    between atoms: C_12  and  C_13
REMARK    4  A    between atoms: C_17  and  C_18
REMARK    5  A    between atoms: C_18  and  N_19
REMARK    6  A    between atoms: N_19  and  C_20
REMARK    7  A    between atoms: C_20  and  C_21
REMARK                            x       y       z     vdW  Elec       q    Type
REMARK                         _______ _______ _______ _____ _____    ______ ____
ROOT
ATOM      1  C   UNL     1       1.519   8.626  19.536  0.00  0.00    +0.000 A 
ATOM      2  C   UNL     1       1.999   7.424  20.051  0.00  0.00    +0.000 A 
ATOM      3  C   UNL     1       2.838   6.614  19.286  0.00  0.00    +0.000 A 
ATOM      4  C   UNL     1       3.221   6.985  17.986  0.00  0.00    +0.000 A 
ATOM      5  C   UNL     1       2.735   8.204  17.486  0.00  0.00    +0.000 A 
ATOM      6  C   UNL     1       1.899   9.019  18.251  0.00  0.00    +0.000 A 
ENDROOT
BRANCH   1  14
ATOM      7  C   UNL     1      -1.637  13.270  19.900  0.00  0.00    +0.000 C 
ATOM      8  C   UNL     1      -1.453  12.307  21.032  0.00  0.00    +0.000 A 
ATOM      9  C   UNL     1      -2.072  12.515  22.279  0.00  0.00    +0.000 A 
ATOM     10  C   UNL     1      -1.905  11.631  23.349  0.00  0.00    +0.000 A 
ATOM     11  C   UNL     1      -1.113  10.488  23.216  0.00  0.00    +0.000 A 
ATOM     12  C   UNL     1      -0.493  10.250  21.985  0.00  0.00    +0.000 A 
ATOM     13  N   UNL     1       0.309   9.206  21.605  0.00  0.00    +0.000 NA
ATOM     14  C   UNL     1       0.661   9.458  20.364  0.00  0.00    +0.000 A 
ATOM     15  N   UNL     1       0.078  10.622  19.921  0.00  0.00    +0.000 N 
ATOM     16  C   UNL     1      -0.666  11.151  20.943  0.00  0.00    +0.000 A 
ATOM     17  H   UNL     1       0.170  11.006  18.996  0.00  0.00    +0.000 HD
ENDBRANCH   1  14
BRANCH   4  18
ATOM     18  C   UNL     1       4.139   6.139  17.202  0.00  0.00    +0.000 A 
ATOM     19  C   UNL     1       5.084   6.706  16.327  0.00  0.00    +0.000 A 
ATOM     20  C   UNL     1       5.898   5.905  15.529  0.00  0.00    +0.000 A 
ATOM     21  C   UNL     1       5.791   4.520  15.595  0.00  0.00    +0.000 A 
ATOM     22  C   UNL     1       4.882   3.916  16.471  0.00  0.00    +0.000 A 
ATOM     23  C   UNL     1       4.072   4.735  17.268  0.00  0.00    +0.000 A 
BRANCH  22  24
ATOM     24  C   UNL     1       4.731   2.414  16.515  0.00  0.00    +0.000 C 
BRANCH  24  25
ATOM     25  N   UNL     1       4.328   1.956  17.839  0.00  0.00    +0.000 NA
ATOM     26  H   UNL     1       4.623   2.639  18.536  0.00  0.00    +0.000 HD
BRANCH  25  27
ATOM     27  C   UNL     1       2.878   1.786  17.921  0.00  0.00    +0.000 C 
BRANCH  27  28
ATOM     28  C   UNL     1       2.332   2.466  19.155  0.00  0.00    +0.000 A 
ATOM     29  C   UNL     1       1.093   3.122  19.119  0.00  0.00    +0.000 A 
ATOM     30  C   UNL     1       0.630   3.819  20.236  0.00  0.00    +0.000 A 
ATOM     31  C   UNL     1       1.390   3.852  21.404  0.00  0.00    +0.000 A 
ATOM     32  C   UNL     1       2.599   3.164  21.467  0.00  0.00    +0.000 A 
ATOM     33  C   UNL     1       3.066   2.470  20.351  0.00  0.00    +0.000 A 
ENDBRANCH  27  28
ENDBRANCH  25  27
ENDBRANCH  24  25
ENDBRANCH  22  24
ENDBRANCH   4  18
TORSDOF 6
ENDMDL
MODEL 7
REMARK VINA RESULT:      -8.8      2.076      9.500
REMARK  Name = 
REMARK  7 active torsions:
REMARK  status: ('A' for Active; 'I' for Inactive)
REMARK    1  A    between atoms: C_1  and  C_2
REMARK    2  A    between atoms: C_8  and  C_9
REMARK    3  A    between atoms: C_12  and  C_13
REMARK    4  A    between atoms: C_17  and  C_18
REMARK    5  A    between atoms: C_18  and  N_19
REMARK    6  A    between atoms: N_19  and  C_20
REMARK    7  A    between atoms: C_20  and  C_21
REMARK                            x       y       z     vdW  Elec       q    Type
REMARK                         _______ _______ _______ _____ _____    ______ ____
ROOT
ATOM      1  C   UNL     1       0.863   9.579  19.410  0.00  0.00    +0.000 A 
ATOM      2  C   UNL     1       1.378   9.772  18.129  0.00  0.00    +0.000 A 
ATOM      3  C   UNL     1       2.306   8.874  17.600  0.00  0.00    +0.000 A 
ATOM      4  C   UNL     1       2.742   7.760  18.336  0.00  0.00    +0.000 A 
ATOM      5  C   UNL     1       2.205   7.577  19.621  0.00  0.00    +0.000 A 
ATOM      6  C   UNL     1       1.274   8.470  20.152  0.00  0.00    +0.000 A 
ENDROOT
BRANCH   1  14
ATOM      7  C   UNL     1      -4.160  12.024  18.736  0.00  0.00    +0.000 C 
ATOM      8  C   UNL     1      -3.250  12.314  19.889  0.00  0.00    +0.000 A 
ATOM      9  C   UNL     1      -3.608  13.235  20.891  0.00  0.00    +0.000 A 
ATOM     10  C   UNL     1      -2.768  13.522  21.971  0.00  0.00    +0.000 A 
ATOM     11  C   UNL     1      -1.527  12.892  22.101  0.00  0.00    +0.000 A 
ATOM     12  C   UNL     1      -1.150  11.964  21.125  0.00  0.00    +0.000 A 
ATOM     13  N   UNL     1      -0.007  11.213  21.040  0.00  0.00    +0.000 NA
ATOM     14  C   UNL     1      -0.116  10.521  19.927  0.00  0.00    +0.000 A 
ATOM     15  N   UNL     1      -1.317  10.782  19.309  0.00  0.00    +0.000 N 
ATOM     16  C   UNL     1      -1.998  11.706  20.057  0.00  0.00    +0.000 A 
ATOM     17  H   UNL     1      -1.644  10.349  18.463  0.00  0.00    +0.000 HD
ENDBRANCH   1  14
BRANCH   4  18
ATOM     18  C   UNL     1       3.693   6.797  17.751  0.00  0.00    +0.000 A 
ATOM     19  C   UNL     1       4.338   7.061  16.529  0.00  0.00    +0.000 A 
ATOM     20  C   UNL     1       5.177   6.118  15.940  0.00  0.00    +0.000 A 
ATOM     21  C   UNL     1       5.396   4.895  16.564  0.00  0.00    +0.000 A 
ATOM     22  C   UNL     1       4.794   4.603  17.792  0.00  0.00    +0.000 A 
ATOM     23  C   UNL     1       3.954   5.563  18.373  0.00  0.00    +0.000 A 
BRANCH  22  24
ATOM     24  C   UNL     1       4.993   3.260  18.453  0.00  0.00    +0.000 C 
BRANCH  24  25
ATOM     25  N   UNL     1       4.348   2.192  17.697  0.00  0.00    +0.000 NA
ATOM     26  H   UNL     1       5.060   1.571  17.315  0.00  0.00    +0.000 HD
BRANCH  25  27
ATOM     27  C   UNL     1       3.442   1.417  18.543  0.00  0.00    +0.000 C 
BRANCH  27  28
ATOM     28  C   UNL     1       2.596   2.333  19.395  0.00  0.00    +0.000 A 
ATOM     29  C   UNL     1       1.454   2.950  18.865  0.00  0.00    +0.000 A 
ATOM     30  C   UNL     1       0.722   3.859  19.630  0.00  0.00    +0.000 A 
ATOM     31  C   UNL     1       1.112   4.147  20.936  0.00  0.00    +0.000 A 
ATOM     32  C   UNL     1       2.217   3.505  21.491  0.00  0.00    +0.000 A 
ATOM     33  C   UNL     1       2.952   2.598  20.727  0.00  0.00    +0.000 A 
ENDBRANCH  27  28
ENDBRANCH  25  27
ENDBRANCH  24  25
ENDBRANCH  22  24
ENDBRANCH   4  18
TORSDOF 6
ENDMDL
MODEL 8
REMARK VINA RESULT:      -8.8      1.129      1.552
REMARK  Name = 
REMARK  7 active torsions:
REMARK  status: ('A' for Active; 'I' for Inactive)
REMARK    1  A    between atoms: C_1  and  C_2
REMARK    2  A    between atoms: C_8  and  C_9
REMARK    3  A    between atoms: C_12  and  C_13
REMARK    4  A    between atoms: C_17  and  C_18
REMARK    5  A    between atoms: C_18  and  N_19
REMARK    6  A    between atoms: N_19  and  C_20
REMARK    7  A    between atoms: C_20  and  C_21
REMARK                            x       y       z     vdW  Elec       q    Type
REMARK                         _______ _______ _______ _____ _____    ______ ____
ROOT
ATOM      1  C   UNL     1       1.926   8.513  18.867  0.00  0.00    +0.000 A 
ATOM      2  C   UNL     1       1.491   8.390  20.185  0.00  0.00    +0.000 A 
ATOM      3  C   UNL     1       0.743   9.407  20.778  0.00  0.00    +0.000 A 
ATOM      4  C   UNL     1       0.410  10.573  20.070  0.00  0.00    +0.000 A 
ATOM      5  C   UNL     1       0.849  10.676  18.739  0.00  0.00    +0.000 A 
ATOM      6  C   UNL     1       1.594   9.658  18.141  0.00  0.00    +0.000 A 
ENDROOT
BRANCH   1  14
ATOM      7  C   UNL     1       2.428   2.964  18.079  0.00  0.00    +0.000 C 
ATOM      8  C   UNL     1       3.385   3.966  17.515  0.00  0.00    +0.000 A 
ATOM      9  C   UNL     1       4.490   3.569  16.739  0.00  0.00    +0.000 A 
ATOM     10  C   UNL     1       5.398   4.491  16.210  0.00  0.00    +0.000 A 
ATOM     11  C   UNL     1       5.236   5.861  16.429  0.00  0.00    +0.000 A 
ATOM     12  C   UNL     1       4.142   6.287  17.188  0.00  0.00    +0.000 A 
ATOM     13  N   UNL     1       3.762   7.560  17.524  0.00  0.00    +0.000 NA
ATOM     14  C   UNL     1       2.688   7.427  18.269  0.00  0.00    +0.000 A 
ATOM     15  N   UNL     1       2.344   6.102  18.395  0.00  0.00    +0.000 N 
ATOM     16  C   UNL     1       3.262   5.349  17.711  0.00  0.00    +0.000 A 
ATOM     17  H   UNL     1       1.541   5.751  18.889  0.00  0.00    +0.000 HD
ENDBRANCH   1  14
BRANCH   4  18
ATOM     18  C   UNL     1      -0.414  11.624  20.695  0.00  0.00    +0.000 A 
ATOM     19  C   UNL     1       0.117  12.475  21.681  0.00  0.00    +0.000 A 
ATOM     20  C   UNL     1      -0.682  13.417  22.325  0.00  0.00    +0.000 A 
ATOM     21  C   UNL     1      -2.027  13.533  21.992  0.00  0.00    +0.000 A 
ATOM     22  C   UNL     1      -2.588  12.723  20.999  0.00  0.00    +0.000 A 
ATOM     23  C   UNL     1      -1.771  11.782  20.359  0.00  0.00    +0.000 A 
BRANCH  22  24
ATOM     24  C   UNL     1      -4.058  12.815  20.664  0.00  0.00    +0.000 C 
BRANCH  24  25
ATOM     25  N   UNL     1      -4.274  12.872  19.223  0.00  0.00    +0.000 NA
ATOM     26  H   UNL     1      -3.377  12.981  18.752  0.00  0.00    +0.000 HD
BRANCH  25  27
ATOM     27  C   UNL     1      -4.925  11.657  18.737  0.00  0.00    +0.000 C 
BRANCH  27  28
ATOM     28  C   UNL     1      -4.125  11.037  17.616  0.00  0.00    +0.000 A 
ATOM     29  C   UNL     1      -3.062  10.166  17.893  0.00  0.00    +0.000 A 
ATOM     30  C   UNL     1      -2.273   9.660  16.858  0.00  0.00    +0.000 A 
ATOM     31  C   UNL     1      -2.549  10.005  15.537  0.00  0.00    +0.000 A 
ATOM     32  C   UNL     1      -3.632  10.832  15.245  0.00  0.00    +0.000 A 
ATOM     33  C   UNL     1      -4.419  11.341  16.277  0.00  0.00    +0.000 A 
ENDBRANCH  27  28
ENDBRANCH  25  27
ENDBRANCH  24  25
ENDBRANCH  22  24
ENDBRANCH   4  18
TORSDOF 6
ENDMDL
MODEL 9
REMARK VINA RESULT:      -8.8      0.895      1.250
REMARK  Name = 
REMARK  7 active torsions:
REMARK  status: ('A' for Active; 'I' for Inactive)
REMARK    1  A    between atoms: C_1  and  C_2
REMARK    2  A    between atoms: C_8  and  C_9
REMARK    3  A    between atoms: C_12  and  C_13
REMARK    4  A    between atoms: C_17  and  C_18
REMARK    5  A    between atoms: C_18  and  N_19
REMARK    6  A    between atoms: N_19  and  C_20
REMARK    7  A    between atoms: C_20  and  C_21
REMARK                            x       y       z     vdW  Elec       q    Type
REMARK                         _______ _______ _______ _____ _____    ______ ____
ROOT
ATOM      1  C   UNL     1       1.946   8.190  18.908  0.00  0.00    +0.000 A 
ATOM      2  C   UNL     1       1.398   9.265  18.211  0.00  0.00    +0.000 A 
ATOM      3  C   UNL     1       0.557  10.171  18.858  0.00  0.00    +0.000 A 
ATOM      4  C   UNL     1       0.242  10.026  20.219  0.00  0.00    +0.000 A 
ATOM      5  C   UNL     1       0.809   8.941  20.908  0.00  0.00    +0.000 A 
ATOM      6  C   UNL     1       1.655   8.036  20.264  0.00  0.00    +0.000 A 
ENDROOT
BRANCH   1  14
ATOM      7  C   UNL     1       3.220   2.845  17.698  0.00  0.00    +0.000 C 
ATOM      8  C   UNL     1       3.999   4.015  17.182  0.00  0.00    +0.000 A 
ATOM      9  C   UNL     1       5.119   3.840  16.348  0.00  0.00    +0.000 A 
ATOM     10  C   UNL     1       5.862   4.921  15.864  0.00  0.00    +0.000 A 
ATOM     11  C   UNL     1       5.511   6.234  16.188  0.00  0.00    +0.000 A 
ATOM     12  C   UNL     1       4.396   6.439  17.007  0.00  0.00    +0.000 A 
ATOM     13  N   UNL     1       3.848   7.615  17.447  0.00  0.00    +0.000 NA
ATOM     14  C   UNL     1       2.834   7.274  18.210  0.00  0.00    +0.000 A 
ATOM     15  N   UNL     1       2.692   5.907  18.247  0.00  0.00    +0.000 N 
ATOM     16  C   UNL     1       3.683   5.347  17.484  0.00  0.00    +0.000 A 
ATOM     17  H   UNL     1       1.969   5.407  18.736  0.00  0.00    +0.000 HD
ENDBRANCH   1  14
BRANCH   4  18
ATOM     18  C   UNL     1      -0.618  11.011  20.901  0.00  0.00    +0.000 A 
ATOM     19  C   UNL     1      -0.411  11.345  22.252  0.00  0.00    +0.000 A 
ATOM     20  C   UNL     1      -1.270  12.217  22.916  0.00  0.00    +0.000 A 
ATOM     21  C   UNL     1      -2.349  12.780  22.243  0.00  0.00    +0.000 A 
ATOM     22  C   UNL     1      -2.575  12.492  20.892  0.00  0.00    +0.000 A 
ATOM     23  C   UNL     1      -1.701  11.615  20.237  0.00  0.00    +0.000 A 
BRANCH  22  24
ATOM     24  C   UNL     1      -3.770  13.066  20.168  0.00  0.00    +0.000 C 
BRANCH  24  25
ATOM     25  N   UNL     1      -4.725  12.025  19.805  0.00  0.00    +0.000 NA
ATOM     26  H   UNL     1      -5.537  12.084  20.419  0.00  0.00    +0.000 HD
BRANCH  25  27
ATOM     27  C   UNL     1      -5.161  12.168  18.418  0.00  0.00    +0.000 C 
BRANCH  27  28
ATOM     28  C   UNL     1      -4.275  11.364  17.496  0.00  0.00    +0.000 A 
ATOM     29  C   UNL     1      -4.231  11.646  16.123  0.00  0.00    +0.000 A 
ATOM     30  C   UNL     1      -3.475  10.849  15.262  0.00  0.00    +0.000 A 
ATOM     31  C   UNL     1      -2.742   9.776  15.765  0.00  0.00    +0.000 A 
ATOM     32  C   UNL     1      -2.740   9.515  17.134  0.00  0.00    +0.000 A 
ATOM     33  C   UNL     1      -3.497  10.308  17.996  0.00  0.00    +0.000 A 
ENDBRANCH  27  28
ENDBRANCH  25  27
ENDBRANCH  24  25
ENDBRANCH  22  24
ENDBRANCH   4  18
TORSDOF 6
ENDMDL
