MODEL 1
REMARK VINA RESULT:      -7.5      0.000      0.000
REMARK  Name = 
REMARK  2 active torsions:
REMARK  status: ('A' for Active; 'I' for Inactive)
REMARK    1  A    between atoms: N_1  and  C_2
REMARK    2  A    between atoms: C_10  and  C_11
REMARK                            x       y       z     vdW  Elec       q    Type
REMARK                         _______ _______ _______ _____ _____    ______ ____
ROOT
ATOM      1  C   UNL     1       2.611   6.026  19.694  0.00  0.00    +0.000 A 
ATOM      2  C   UNL     1       2.682   7.205  18.924  0.00  0.00    +0.000 A 
ATOM      3  C   UNL     1       3.443   7.260  17.752  0.00  0.00    +0.000 A 
ATOM      4  C   UNL     1       4.088   6.105  17.354  0.00  0.00    +0.000 A 
ATOM      5  C   UNL     1       3.993   4.918  18.070  0.00  0.00    +0.000 A 
ATOM      6  C   UNL     1       3.242   4.863  19.235  0.00  0.00    +0.000 A 
ATOM      7  C   UNL     1       4.741   3.809  17.410  0.00  0.00    +0.000 C 
ATOM      8  C   UNL     1       5.331   4.444  16.165  0.00  0.00    +0.000 C 
ATOM      9  C   UNL     1       6.061   3.738  15.291  0.00  0.00    +0.000 C 
ATOM     10  C   UNL     1       4.899   5.883  16.154  0.00  0.00    +0.000 C 
ATOM     11  O   UNL     1       5.117   6.740  15.319  0.00  0.00    +0.000 OA
ENDROOT
BRANCH   9  12
ATOM     12  C   UNL     1       6.710   4.221  14.126  0.00  0.00    +0.000 A 
ATOM     13  C   UNL     1       6.537   3.932  12.778  0.00  0.00    +0.000 A 
ATOM     14  C   UNL     1       7.426   4.740  12.032  0.00  0.00    +0.000 A 
ATOM     15  C   UNL     1       8.081   5.515  12.949  0.00  0.00    +0.000 A 
ATOM     16  O   UNL     1       7.655   5.227  14.202  0.00  0.00    +0.000 OA
ENDBRANCH   9  12
BRANCH   1  17
ATOM     17  N   UNL     1       1.726   5.949  20.777  0.00  0.00    +0.000 N 
ATOM     18  H   UNL     1       0.802   5.606  20.533  0.00  0.00    +0.000 HD
ATOM     19  H   UNL     1       1.689   6.790  21.343  0.00  0.00    +0.000 HD
ENDBRANCH   1  17
TORSDOF 2
ENDMDL
MODEL 2
REMARK VINA RESULT:      -7.2      3.439      6.627
REMARK  Name = 
REMARK  2 active torsions:
REMARK  status: ('A' for Active; 'I' for Inactive)
REMARK    1  A    between atoms: N_1  and  C_2
REMARK    2  A    between atoms: C_10  and  C_11
REMARK                            x       y       z     vdW  Elec       q    Type
REMARK                         _______ _______ _______ _____ _____    ______ ____
ROOT
ATOM      1  C   UNL     1       7.190   5.050  14.562  0.00  0.00    +0.000 A 
ATOM      2  C   UNL     1       6.208   4.150  14.102  0.00  0.00    +0.000 A 
ATOM      3  C   UNL     1       5.184   3.702  14.943  0.00  0.00    +0.000 A 
ATOM      4  C   UNL     1       5.145   4.208  16.228  0.00  0.00    +0.000 A 
ATOM      5  C   UNL     1       6.072   5.134  16.688  0.00  0.00    +0.000 A 
ATOM      6  C   UNL     1       7.091   5.575  15.858  0.00  0.00    +0.000 A 
ATOM      7  C   UNL     1       5.787   5.556  18.090  0.00  0.00    +0.000 C 
ATOM      8  C   UNL     1       4.542   4.776  18.471  0.00  0.00    +0.000 C 
ATOM      9  C   UNL     1       3.963   4.914  19.671  0.00  0.00    +0.000 C 
ATOM     10  C   UNL     1       4.160   3.944  17.280  0.00  0.00    +0.000 C 
ATOM     11  O   UNL     1       3.206   3.202  17.141  0.00  0.00    +0.000 OA
ENDROOT
BRANCH   9  12
ATOM     12  C   UNL     1       2.837   4.208  20.167  0.00  0.00    +0.000 A 
ATOM     13  C   UNL     1       1.473   4.370  19.960  0.00  0.00    +0.000 A 
ATOM     14  C   UNL     1       0.791   3.353  20.668  0.00  0.00    +0.000 A 
ATOM     15  C   UNL     1       1.766   2.590  21.250  0.00  0.00    +0.000 A 
ATOM     16  O   UNL     1       2.992   3.078  20.949  0.00  0.00    +0.000 OA
ENDBRANCH   9  12
BRANCH   1  17
ATOM     17  N   UNL     1       8.113   5.599  13.665  0.00  0.00    +0.000 N 
ATOM     18  H   UNL     1       8.984   5.896  14.096  0.00  0.00    +0.000 HD
ATOM     19  H   UNL     1       7.725   6.309  13.052  0.00  0.00    +0.000 HD
ENDBRANCH   1  17
TORSDOF 2
ENDMDL
MODEL 3
REMARK VINA RESULT:      -6.5      3.638      6.558
REMARK  Name = 
REMARK  2 active torsions:
REMARK  status: ('A' for Active; 'I' for Inactive)
REMARK    1  A    between atoms: N_1  and  C_2
REMARK    2  A    between atoms: C_10  and  C_11
REMARK                            x       y       z     vdW  Elec       q    Type
REMARK                         _______ _______ _______ _____ _____    ______ ____
ROOT
ATOM      1  C   UNL     1       6.972   5.290  14.895  0.00  0.00    +0.000 A 
ATOM      2  C   UNL     1       7.362   5.877  16.116  0.00  0.00    +0.000 A 
ATOM      3  C   UNL     1       6.642   5.648  17.292  0.00  0.00    +0.000 A 
ATOM      4  C   UNL     1       5.560   4.792  17.224  0.00  0.00    +0.000 A 
ATOM      5  C   UNL     1       5.186   4.164  16.043  0.00  0.00    +0.000 A 
ATOM      6  C   UNL     1       5.896   4.393  14.874  0.00  0.00    +0.000 A 
ATOM      7  C   UNL     1       4.017   3.257  16.242  0.00  0.00    +0.000 C 
ATOM      8  C   UNL     1       3.690   3.386  17.718  0.00  0.00    +0.000 C 
ATOM      9  C   UNL     1       2.696   2.689  18.284  0.00  0.00    +0.000 C 
ATOM     10  C   UNL     1       4.679   4.351  18.309  0.00  0.00    +0.000 C 
ATOM     11  O   UNL     1       4.800   4.710  19.465  0.00  0.00    +0.000 OA
ENDROOT
BRANCH   9  12
ATOM     12  C   UNL     1       2.256   2.759  19.630  0.00  0.00    +0.000 A 
ATOM     13  C   UNL     1       1.016   3.043  20.189  0.00  0.00    +0.000 A 
ATOM     14  C   UNL     1       1.124   2.929  21.594  0.00  0.00    +0.000 A 
ATOM     15  C   UNL     1       2.415   2.547  21.836  0.00  0.00    +0.000 A 
ATOM     16  O   UNL     1       3.099   2.427  20.674  0.00  0.00    +0.000 OA
ENDBRANCH   9  12
BRANCH   1  17
ATOM     17  N   UNL     1       7.790   5.410  13.766  0.00  0.00    +0.000 N 
ATOM     18  H   UNL     1       8.758   5.635  13.977  0.00  0.00    +0.000 HD
ATOM     19  H   UNL     1       7.406   6.003  13.037  0.00  0.00    +0.000 HD
ENDBRANCH   1  17
TORSDOF 2
ENDMDL
MODEL 4
REMARK VINA RESULT:      -6.5      3.049      4.171
REMARK  Name = 
REMARK  2 active torsions:
REMARK  status: ('A' for Active; 'I' for Inactive)
REMARK    1  A    between atoms: N_1  and  C_2
REMARK    2  A    between atoms: C_10  and  C_11
REMARK                            x       y       z     vdW  Elec       q    Type
REMARK                         _______ _______ _______ _____ _____    ______ ____
ROOT
ATOM      1  C   UNL     1       1.545   2.277  18.724  0.00  0.00    +0.000 A 
ATOM      2  C   UNL     1       1.627   3.063  19.892  0.00  0.00    +0.000 A 
ATOM      3  C   UNL     1       2.619   4.036  20.043  0.00  0.00    +0.000 A 
ATOM      4  C   UNL     1       3.490   4.231  18.988  0.00  0.00    +0.000 A 
ATOM      5  C   UNL     1       3.398   3.503  17.808  0.00  0.00    +0.000 A 
ATOM      6  C   UNL     1       2.418   2.534  17.658  0.00  0.00    +0.000 A 
ATOM      7  C   UNL     1       4.422   3.932  16.810  0.00  0.00    +0.000 C 
ATOM      8  C   UNL     1       5.186   5.040  17.510  0.00  0.00    +0.000 C 
ATOM      9  C   UNL     1       6.185   5.698  16.907  0.00  0.00    +0.000 C 
ATOM     10  C   UNL     1       4.575   5.209  18.872  0.00  0.00    +0.000 C 
ATOM     11  O   UNL     1       4.856   6.010  19.743  0.00  0.00    +0.000 OA
ENDROOT
BRANCH   9  12
ATOM     12  C   UNL     1       7.009   6.708  17.466  0.00  0.00    +0.000 A 
ATOM     13  C   UNL     1       7.953   6.680  18.485  0.00  0.00    +0.000 A 
ATOM     14  C   UNL     1       8.517   7.971  18.605  0.00  0.00    +0.000 A 
ATOM     15  C   UNL     1       7.923   8.727  17.632  0.00  0.00    +0.000 A 
ATOM     16  O   UNL     1       7.031   7.984  16.935  0.00  0.00    +0.000 OA
ENDBRANCH   9  12
BRANCH   1  17
ATOM     17  N   UNL     1       0.458   1.417  18.532  0.00  0.00    +0.000 N 
ATOM     18  H   UNL     1       0.407   0.657  19.204  0.00  0.00    +0.000 HD
ATOM     19  H   UNL     1       0.348   1.095  17.576  0.00  0.00    +0.000 HD
ENDBRANCH   1  17
TORSDOF 2
ENDMDL
MODEL 5
REMARK VINA RESULT:      -6.5      4.214      5.469
REMARK  Name = 
REMARK  2 active torsions:
REMARK  status: ('A' for Active; 'I' for Inactive)
REMARK    1  A    between atoms: N_1  and  C_2
REMARK    2  A    between atoms: C_10  and  C_11
REMARK                            x       y       z     vdW  Elec       q    Type
REMARK                         _______ _______ _______ _____ _____    ______ ____
ROOT
ATOM      1  C   UNL     1       0.914  10.414  19.979  0.00  0.00    +0.000 A 
ATOM      2  C   UNL     1       0.777   9.662  21.163  0.00  0.00    +0.000 A 
ATOM      3  C   UNL     1       1.128   8.309  21.208  0.00  0.00    +0.000 A 
ATOM      4  C   UNL     1       1.654   7.747  20.061  0.00  0.00    +0.000 A 
ATOM      5  C   UNL     1       1.844   8.480  18.897  0.00  0.00    +0.000 A 
ATOM      6  C   UNL     1       1.493   9.820  18.849  0.00  0.00    +0.000 A 
ATOM      7  C   UNL     1       2.467   7.658  17.818  0.00  0.00    +0.000 C 
ATOM      8  C   UNL     1       2.656   6.292  18.449  0.00  0.00    +0.000 C 
ATOM      9  C   UNL     1       3.220   5.277  17.781  0.00  0.00    +0.000 C 
ATOM     10  C   UNL     1       2.142   6.380  19.859  0.00  0.00    +0.000 C 
ATOM     11  O   UNL     1       2.138   5.527  20.726  0.00  0.00    +0.000 OA
ENDROOT
BRANCH   9  12
ATOM     12  C   UNL     1       3.403   3.946  18.235  0.00  0.00    +0.000 A 
ATOM     13  C   UNL     1       2.882   2.735  17.796  0.00  0.00    +0.000 A 
ATOM     14  C   UNL     1       3.437   1.700  18.583  0.00  0.00    +0.000 A 
ATOM     15  C   UNL     1       4.301   2.315  19.448  0.00  0.00    +0.000 A 
ATOM     16  O   UNL     1       4.303   3.653  19.243  0.00  0.00    +0.000 OA
ENDBRANCH   9  12
BRANCH   1  17
ATOM     17  N   UNL     1       0.700  11.797  19.997  0.00  0.00    +0.000 N 
ATOM     18  H   UNL     1       1.540  12.344  20.159  0.00  0.00    +0.000 HD
ATOM     19  H   UNL     1      -0.071  12.089  20.589  0.00  0.00    +0.000 HD
ENDBRANCH   1  17
TORSDOF 2
ENDMDL
MODEL 6
REMARK VINA RESULT:      -6.4      3.680      7.283
REMARK  Name = 
REMARK  2 active torsions:
REMARK  status: ('A' for Active; 'I' for Inactive)
REMARK    1  A    between atoms: N_1  and  C_2
REMARK    2  A    between atoms: C_10  and  C_11
REMARK                            x       y       z     vdW  Elec       q    Type
REMARK                         _______ _______ _______ _____ _____    ______ ____
ROOT
ATOM      1  C   UNL     1       4.599   4.728  18.587  0.00  0.00    +0.000 A 
ATOM      2  C   UNL     1       4.742   5.478  17.401  0.00  0.00    +0.000 A 
ATOM      3  C   UNL     1       3.994   6.639  17.184  0.00  0.00    +0.000 A 
ATOM      4  C   UNL     1       3.142   7.050  18.191  0.00  0.00    +0.000 A 
ATOM      5  C   UNL     1       3.021   6.355  19.388  0.00  0.00    +0.000 A 
ATOM      6  C   UNL     1       3.758   5.200  19.604  0.00  0.00    +0.000 A 
ATOM      7  C   UNL     1       2.074   7.025  20.326  0.00  0.00    +0.000 C 
ATOM      8  C   UNL     1       1.602   8.252  19.569  0.00  0.00    +0.000 C 
ATOM      9  C   UNL     1       0.746   9.129  20.110  0.00  0.00    +0.000 C 
ATOM     10  C   UNL     1       2.294   8.244  18.235  0.00  0.00    +0.000 C 
ATOM     11  O   UNL     1       2.233   9.061  17.337  0.00  0.00    +0.000 OA
ENDROOT
BRANCH   9  12
ATOM     12  C   UNL     1       0.188  10.278  19.493  0.00  0.00    +0.000 A 
ATOM     13  C   UNL     1      -0.939  10.452  18.699  0.00  0.00    +0.000 A 
ATOM     14  C   UNL     1      -1.056  11.826  18.388  0.00  0.00    +0.000 A 
ATOM     15  C   UNL     1      -0.018  12.442  19.032  0.00  0.00    +0.000 A 
ATOM     16  O   UNL     1       0.726  11.533  19.706  0.00  0.00    +0.000 OA
ENDBRANCH   9  12
BRANCH   1  17
ATOM     17  N   UNL     1       5.462   3.658  18.848  0.00  0.00    +0.000 N 
ATOM     18  H   UNL     1       5.802   3.187  18.015  0.00  0.00    +0.000 HD
ATOM     19  H   UNL     1       5.116   3.007  19.545  0.00  0.00    +0.000 HD
ENDBRANCH   1  17
TORSDOF 2
ENDMDL
MODEL 7
REMARK VINA RESULT:      -6.4      4.212      5.598
REMARK  Name = 
REMARK  2 active torsions:
REMARK  status: ('A' for Active; 'I' for Inactive)
REMARK    1  A    between atoms: N_1  and  C_2
REMARK    2  A    between atoms: C_10  and  C_11
REMARK                            x       y       z     vdW  Elec       q    Type
REMARK                         _______ _______ _______ _____ _____    ______ ____
ROOT
ATOM      1  C   UNL     1       1.139  10.739  18.795  0.00  0.00    +0.000 A 
ATOM      2  C   UNL     1       0.771  10.171  20.032  0.00  0.00    +0.000 A 
ATOM      3  C   UNL     1       1.082   8.844  20.342  0.00  0.00    +0.000 A 
ATOM      4  C   UNL     1       1.801   8.121  19.409  0.00  0.00    +0.000 A 
ATOM      5  C   UNL     1       2.217   8.673  18.205  0.00  0.00    +0.000 A 
ATOM      6  C   UNL     1       1.906   9.988  17.893  0.00  0.00    +0.000 A 
ATOM      7  C   UNL     1       3.013   7.705  17.395  0.00  0.00    +0.000 C 
ATOM      8  C   UNL     1       3.055   6.450  18.247  0.00  0.00    +0.000 C 
ATOM      9  C   UNL     1       3.714   5.352  17.854  0.00  0.00    +0.000 C 
ATOM     10  C   UNL     1       2.291   6.744  19.507  0.00  0.00    +0.000 C 
ATOM     11  O   UNL     1       2.110   6.030  20.475  0.00  0.00    +0.000 OA
ENDROOT
BRANCH   9  12
ATOM     12  C   UNL     1       3.784   4.105  18.526  0.00  0.00    +0.000 A 
ATOM     13  C   UNL     1       4.747   3.554  19.363  0.00  0.00    +0.000 A 
ATOM     14  C   UNL     1       4.287   2.289  19.797  0.00  0.00    +0.000 A 
ATOM     15  C   UNL     1       3.048   2.133  19.238  0.00  0.00    +0.000 A 
ATOM     16  O   UNL     1       2.728   3.214  18.488  0.00  0.00    +0.000 OA
ENDBRANCH   9  12
BRANCH   1  17
ATOM     17  N   UNL     1       0.952  12.107  18.567  0.00  0.00    +0.000 N 
ATOM     18  H   UNL     1       0.132  12.495  19.025  0.00  0.00    +0.000 HD
ATOM     19  H   UNL     1       1.012  12.377  17.591  0.00  0.00    +0.000 HD
ENDBRANCH   1  17
TORSDOF 2
ENDMDL
MODEL 8
REMARK VINA RESULT:      -6.4      3.806      7.319
REMARK  Name = 
REMARK  2 active torsions:
REMARK  status: ('A' for Active; 'I' for Inactive)
REMARK    1  A    between atoms: N_1  and  C_2
REMARK    2  A    between atoms: C_10  and  C_11
REMARK                            x       y       z     vdW  Elec       q    Type
REMARK                         _______ _______ _______ _____ _____    ______ ____
ROOT
ATOM      1  C   UNL     1       3.807   3.415  18.572  0.00  0.00    +0.000 A 
ATOM      2  C   UNL     1       4.158   4.346  17.572  0.00  0.00    +0.000 A 
ATOM      3  C   UNL     1       3.705   5.667  17.621  0.00  0.00    +0.000 A 
ATOM      4  C   UNL     1       2.936   6.040  18.706  0.00  0.00    +0.000 A 
ATOM      5  C   UNL     1       2.618   5.154  19.728  0.00  0.00    +0.000 A 
ATOM      6  C   UNL     1       3.062   3.842  19.680  0.00  0.00    +0.000 A 
ATOM      7  C   UNL     1       1.818   5.811  20.803  0.00  0.00    +0.000 C 
ATOM      8  C   UNL     1       1.666   7.246  20.335  0.00  0.00    +0.000 C 
ATOM      9  C   UNL     1       1.016   8.161  21.065  0.00  0.00    +0.000 C 
ATOM     10  C   UNL     1       2.383   7.361  19.019  0.00  0.00    +0.000 C 
ATOM     11  O   UNL     1       2.541   8.342  18.318  0.00  0.00    +0.000 OA
ENDROOT
BRANCH   9  12
ATOM     12  C   UNL     1       0.758   9.512  20.717  0.00  0.00    +0.000 A 
ATOM     13  C   UNL     1      -0.004  10.082  19.704  0.00  0.00    +0.000 A 
ATOM     14  C   UNL     1       0.047  11.488  19.846  0.00  0.00    +0.000 A 
ATOM     15  C   UNL     1       0.809  11.721  20.959  0.00  0.00    +0.000 A 
ATOM     16  O   UNL     1       1.229  10.551  21.498  0.00  0.00    +0.000 OA
ENDBRANCH   9  12
BRANCH   1  17
ATOM     17  N   UNL     1       4.392   2.144  18.584  0.00  0.00    +0.000 N 
ATOM     18  H   UNL     1       3.723   1.380  18.615  0.00  0.00    +0.000 HD
ATOM     19  H   UNL     1       5.134   2.035  19.268  0.00  0.00    +0.000 HD
ENDBRANCH   1  17
TORSDOF 2
ENDMDL
MODEL 9
REMARK VINA RESULT:      -6.3      4.401      7.656
REMARK  Name = 
REMARK  2 active torsions:
REMARK  status: ('A' for Active; 'I' for Inactive)
REMARK    1  A    between atoms: N_1  and  C_2
REMARK    2  A    between atoms: C_10  and  C_11
REMARK                            x       y       z     vdW  Elec       q    Type
REMARK                         _______ _______ _______ _____ _____    ______ ____
ROOT
ATOM      1  C   UNL     1       4.125   4.467  18.300  0.00  0.00    +0.000 A 
ATOM      2  C   UNL     1       3.573   4.312  19.588  0.00  0.00    +0.000 A 
ATOM      3  C   UNL     1       2.834   5.336  20.188  0.00  0.00    +0.000 A 
ATOM      4  C   UNL     1       2.629   6.490  19.456  0.00  0.00    +0.000 A 
ATOM      5  C   UNL     1       3.122   6.647  18.167  0.00  0.00    +0.000 A 
ATOM      6  C   UNL     1       3.858   5.634  17.571  0.00  0.00    +0.000 A 
ATOM      7  C   UNL     1       2.727   7.959  17.577  0.00  0.00    +0.000 C 
ATOM      8  C   UNL     1       1.906   8.627  18.664  0.00  0.00    +0.000 C 
ATOM      9  C   UNL     1       1.351   9.833  18.489  0.00  0.00    +0.000 C 
ATOM     10  C   UNL     1       1.858   7.679  19.829  0.00  0.00    +0.000 C 
ATOM     11  O   UNL     1       1.276   7.800  20.890  0.00  0.00    +0.000 OA
ENDROOT
BRANCH   9  12
ATOM     12  C   UNL     1       0.613  10.586  19.438  0.00  0.00    +0.000 A 
ATOM     13  C   UNL     1      -0.741  10.619  19.748  0.00  0.00    +0.000 A 
ATOM     14  C   UNL     1      -0.931  11.524  20.819  0.00  0.00    +0.000 A 
ATOM     15  C   UNL     1       0.318  11.981  21.143  0.00  0.00    +0.000 A 
ATOM     16  O   UNL     1       1.251  11.420  20.338  0.00  0.00    +0.000 OA
ENDBRANCH   9  12
BRANCH   1  17
ATOM     17  N   UNL     1       4.730   3.379  17.660  0.00  0.00    +0.000 N 
ATOM     18  H   UNL     1       5.106   2.681  18.296  0.00  0.00    +0.000 HD
ATOM     19  H   UNL     1       5.393   3.639  16.937  0.00  0.00    +0.000 HD
ENDBRANCH   1  17
TORSDOF 2
ENDMDL
