MODEL 1
REMARK VINA RESULT:      -7.8      0.000      0.000
REMARK  Name = 
REMARK  8 active torsions:
REMARK  status: ('A' for Active; 'I' for Inactive)
REMARK    1  A    between atoms: C_1  and  S_2
REMARK    2  A    between atoms: S_2  and  C_5
REMARK    3  A    between atoms: C_8  and  C_9
REMARK    4  A    between atoms: C_9  and  C_10
REMARK    5  A    between atoms: C_10  and  C_11
REMARK    6  A    between atoms: C_11  and  O_12
REMARK    7  A    between atoms: C_14  and  C_15
REMARK    8  A    between atoms: N_25  and  C_26
REMARK                            x       y       z     vdW  Elec       q    Type
REMARK                         _______ _______ _______ _____ _____    ______ ____
ROOT
ATOM      1  C   UNL     1      -0.054  11.211  19.510  0.00  0.00    +0.000 C 
ATOM      2  C   UNL     1      -0.990  11.077  20.737  0.00  0.00    +0.000 C 
ATOM      3  C   UNL     1      -0.749  12.402  21.421  0.00  0.00    +0.000 C 
ATOM      4  N   UNL     1       0.277  13.070  20.987  0.00  0.00    +0.000 NA
ATOM      5  N   UNL     1       0.778  12.376  19.906  0.00  0.00    +0.000 N 
ATOM      6  C   UNL     1       1.923  12.823  19.238  0.00  0.00    +0.000 C 
ATOM      7  O   UNL     1       2.296  12.345  18.171  0.00  0.00    +0.000 OA
ATOM      8  N   UNL     1       2.592  13.801  19.961  0.00  0.00    +0.000 N 
ATOM      9  H   UNL     1       2.150  13.981  20.854  0.00  0.00    +0.000 HD
ENDROOT
BRANCH   8  10
ATOM     10  C   UNL     1       3.836  14.386  19.659  0.00  0.00    +0.000 A 
ATOM     11  C   UNL     1       4.272  14.609  18.346  0.00  0.00    +0.000 A 
ATOM     12  C   UNL     1       5.528  15.165  18.094  0.00  0.00    +0.000 A 
ATOM     13  C   UNL     1       6.358  15.494  19.155  0.00  0.00    +0.000 A 
ATOM     14  F   UNL     1       7.570  16.010  18.911  0.00  0.00    +0.000 F 
ATOM     15  C   UNL     1       5.944  15.296  20.466  0.00  0.00    +0.000 A 
ATOM     16  C   UNL     1       4.679  14.749  20.720  0.00  0.00    +0.000 A 
ENDBRANCH   8  10
BRANCH   1  20
ATOM     17  C   UNL     1       2.233   7.526  18.909  0.00  0.00    +0.000 A 
ATOM     18  C   UNL     1       1.848   7.897  20.191  0.00  0.00    +0.000 A 
ATOM     19  C   UNL     1       1.173   9.106  20.380  0.00  0.00    +0.000 A 
ATOM     20  C   UNL     1       0.857   9.968  19.305  0.00  0.00    +0.000 A 
ATOM     21  C   UNL     1       1.282   9.564  18.022  0.00  0.00    +0.000 A 
ATOM     22  C   UNL     1       1.982   8.367  17.827  0.00  0.00    +0.000 A 
BRANCH  17  24
ATOM     23  C   UNL     1       4.415   6.378  17.618  0.00  0.00    +0.000 C 
ATOM     24  S   UNL     1       3.037   5.964  18.656  0.00  0.00    +0.000 S 
ATOM     25  O   UNL     1       2.135   5.123  17.893  0.00  0.00    +0.000 OA
ATOM     26  O   UNL     1       3.558   5.535  19.938  0.00  0.00    +0.000 OA
ENDBRANCH  17  24
ENDBRANCH   1  20
BRANCH   3  27
ATOM     27  C   UNL     1      -1.608  12.881  22.529  0.00  0.00    +0.000 A 
ATOM     28  C   UNL     1      -2.793  12.222  22.868  0.00  0.00    +0.000 A 
ATOM     29  C   UNL     1      -3.583  12.700  23.916  0.00  0.00    +0.000 A 
ATOM     30  C   UNL     1      -3.194  13.835  24.627  0.00  0.00    +0.000 A 
ATOM     31  C   UNL     1      -2.016  14.498  24.291  0.00  0.00    +0.000 A 
ATOM     32  C   UNL     1      -1.224  14.024  23.244  0.00  0.00    +0.000 A 
ENDBRANCH   3  27
BRANCH   1  33
ATOM     33  C   UNL     1      -0.918  11.514  18.245  0.00  0.00    +0.000 C 
BRANCH  33  34
ATOM     34  C   UNL     1      -2.400  11.154  18.298  0.00  0.00    +0.000 C 
BRANCH  34  35
ATOM     35  O   UNL     1      -3.105  11.962  17.356  0.00  0.00    +0.000 OA
ATOM     36  H   UNL     1      -3.620  11.368  16.781  0.00  0.00    +0.000 HD
ENDBRANCH  34  35
ENDBRANCH  33  34
ENDBRANCH   1  33
TORSDOF 7
ENDMDL
MODEL 2
REMARK VINA RESULT:      -7.7      0.583      1.468
REMARK  Name = 
REMARK  8 active torsions:
REMARK  status: ('A' for Active; 'I' for Inactive)
REMARK    1  A    between atoms: C_1  and  S_2
REMARK    2  A    between atoms: S_2  and  C_5
REMARK    3  A    between atoms: C_8  and  C_9
REMARK    4  A    between atoms: C_9  and  C_10
REMARK    5  A    between atoms: C_10  and  C_11
REMARK    6  A    between atoms: C_11  and  O_12
REMARK    7  A    between atoms: C_14  and  C_15
REMARK    8  A    between atoms: N_25  and  C_26
REMARK                            x       y       z     vdW  Elec       q    Type
REMARK                         _______ _______ _______ _____ _____    ______ ____
ROOT
ATOM      1  C   UNL     1      -0.074  11.166  19.565  0.00  0.00    +0.000 C 
ATOM      2  C   UNL     1      -1.008  11.071  20.797  0.00  0.00    +0.000 C 
ATOM      3  C   UNL     1      -0.757  12.413  21.444  0.00  0.00    +0.000 C 
ATOM      4  N   UNL     1       0.272  13.062  20.990  0.00  0.00    +0.000 NA
ATOM      5  N   UNL     1       0.766  12.336  19.927  0.00  0.00    +0.000 N 
ATOM      6  C   UNL     1       1.913  12.757  19.245  0.00  0.00    +0.000 C 
ATOM      7  O   UNL     1       2.279  12.248  18.190  0.00  0.00    +0.000 OA
ATOM      8  N   UNL     1       2.589  13.750  19.939  0.00  0.00    +0.000 N 
ATOM      9  H   UNL     1       2.150  13.957  20.828  0.00  0.00    +0.000 HD
ENDROOT
BRANCH   8  10
ATOM     10  C   UNL     1       3.837  14.318  19.619  0.00  0.00    +0.000 A 
ATOM     11  C   UNL     1       4.758  14.726  20.592  0.00  0.00    +0.000 A 
ATOM     12  C   UNL     1       5.972  15.314  20.227  0.00  0.00    +0.000 A 
ATOM     13  C   UNL     1       6.267  15.502  18.885  0.00  0.00    +0.000 A 
ATOM     14  F   UNL     1       7.422  16.082  18.537  0.00  0.00    +0.000 F 
ATOM     15  C   UNL     1       5.376  15.093  17.900  0.00  0.00    +0.000 A 
ATOM     16  C   UNL     1       4.163  14.494  18.266  0.00  0.00    +0.000 A 
ENDBRANCH   8  10
BRANCH   1  20
ATOM     17  C   UNL     1       2.187   7.451  19.063  0.00  0.00    +0.000 A 
ATOM     18  C   UNL     1       1.818   7.866  20.336  0.00  0.00    +0.000 A 
ATOM     19  C   UNL     1       1.152   9.085  20.491  0.00  0.00    +0.000 A 
ATOM     20  C   UNL     1       0.828   9.912  19.392  0.00  0.00    +0.000 A 
ATOM     21  C   UNL     1       1.236   9.462  18.119  0.00  0.00    +0.000 A 
ATOM     22  C   UNL     1       1.928   8.256  17.956  0.00  0.00    +0.000 A 
BRANCH  17  24
ATOM     23  C   UNL     1       2.603   5.025  20.364  0.00  0.00    +0.000 C 
ATOM     24  S   UNL     1       2.980   5.877  18.853  0.00  0.00    +0.000 S 
ATOM     25  O   UNL     1       4.411   6.106  18.810  0.00  0.00    +0.000 OA
ATOM     26  O   UNL     1       2.296   5.191  17.774  0.00  0.00    +0.000 OA
ENDBRANCH  17  24
ENDBRANCH   1  20
BRANCH   3  27
ATOM     27  C   UNL     1      -1.610  12.928  22.540  0.00  0.00    +0.000 A 
ATOM     28  C   UNL     1      -1.243  14.056  23.280  0.00  0.00    +0.000 A 
ATOM     29  C   UNL     1      -2.067  14.515  24.309  0.00  0.00    +0.000 A 
ATOM     30  C   UNL     1      -3.257  13.850  24.606  0.00  0.00    +0.000 A 
ATOM     31  C   UNL     1      -3.625  12.723  23.875  0.00  0.00    +0.000 A 
ATOM     32  C   UNL     1      -2.805  12.260  22.845  0.00  0.00    +0.000 A 
ENDBRANCH   3  27
BRANCH   1  33
ATOM     33  C   UNL     1      -0.940  11.440  18.294  0.00  0.00    +0.000 C 
BRANCH  33  34
ATOM     34  C   UNL     1      -2.444  11.204  18.398  0.00  0.00    +0.000 C 
BRANCH  34  35
ATOM     35  O   UNL     1      -3.101  11.964  17.384  0.00  0.00    +0.000 OA
ATOM     36  H   UNL     1      -2.672  12.838  17.341  0.00  0.00    +0.000 HD
ENDBRANCH  34  35
ENDBRANCH  33  34
ENDBRANCH   1  33
TORSDOF 7
ENDMDL
MODEL 3
REMARK VINA RESULT:      -7.6      3.660      6.719
REMARK  Name = 
REMARK  8 active torsions:
REMARK  status: ('A' for Active; 'I' for Inactive)
REMARK    1  A    between atoms: C_1  and  S_2
REMARK    2  A    between atoms: S_2  and  C_5
REMARK    3  A    between atoms: C_8  and  C_9
REMARK    4  A    between atoms: C_9  and  C_10
REMARK    5  A    between atoms: C_10  and  C_11
REMARK    6  A    between atoms: C_11  and  O_12
REMARK    7  A    between atoms: C_14  and  C_15
REMARK    8  A    between atoms: N_25  and  C_26
REMARK                            x       y       z     vdW  Elec       q    Type
REMARK                         _______ _______ _______ _____ _____    ______ ____
ROOT
ATOM      1  C   UNL     1      -0.766  13.103  20.921  0.00  0.00    +0.000 C 
ATOM      2  C   UNL     1      -2.113  13.609  20.347  0.00  0.00    +0.000 C 
ATOM      3  C   UNL     1      -2.673  12.329  19.774  0.00  0.00    +0.000 C 
ATOM      4  N   UNL     1      -1.826  11.348  19.680  0.00  0.00    +0.000 NA
ATOM      5  N   UNL     1      -0.655  11.772  20.270  0.00  0.00    +0.000 N 
ATOM      6  C   UNL     1       0.474  10.948  20.292  0.00  0.00    +0.000 C 
ATOM      7  O   UNL     1       1.470  11.207  20.960  0.00  0.00    +0.000 OA
ATOM      8  N   UNL     1       0.340   9.869  19.430  0.00  0.00    +0.000 N 
ATOM      9  H   UNL     1      -0.532   9.900  18.916  0.00  0.00    +0.000 HD
ENDROOT
BRANCH   8  10
ATOM     10  C   UNL     1       1.318   8.910  19.102  0.00  0.00    +0.000 A 
ATOM     11  C   UNL     1       2.030   8.932  17.897  0.00  0.00    +0.000 A 
ATOM     12  C   UNL     1       2.970   7.942  17.601  0.00  0.00    +0.000 A 
ATOM     13  C   UNL     1       3.196   6.919  18.509  0.00  0.00    +0.000 A 
ATOM     14  F   UNL     1       4.083   5.959  18.217  0.00  0.00    +0.000 F 
ATOM     15  C   UNL     1       2.512   6.881  19.719  0.00  0.00    +0.000 A 
ATOM     16  C   UNL     1       1.578   7.881  20.020  0.00  0.00    +0.000 A 
ENDBRANCH   8  10
BRANCH   1  20
ATOM     17  C   UNL     1       2.815  15.315  19.719  0.00  0.00    +0.000 A 
ATOM     18  C   UNL     1       2.594  15.041  21.062  0.00  0.00    +0.000 A 
ATOM     19  C   UNL     1       1.417  14.390  21.442  0.00  0.00    +0.000 A 
ATOM     20  C   UNL     1       0.441  13.988  20.501  0.00  0.00    +0.000 A 
ATOM     21  C   UNL     1       0.696  14.302  19.150  0.00  0.00    +0.000 A 
ATOM     22  C   UNL     1       1.859  14.979  18.763  0.00  0.00    +0.000 A 
BRANCH  17  24
ATOM     23  C   UNL     1       5.060  14.898  18.126  0.00  0.00    +0.000 C 
ATOM     24  S   UNL     1       4.335  16.088  19.224  0.00  0.00    +0.000 S 
ATOM     25  O   UNL     1       5.180  16.192  20.398  0.00  0.00    +0.000 OA
ATOM     26  O   UNL     1       3.987  17.259  18.444  0.00  0.00    +0.000 OA
ENDBRANCH  17  24
ENDBRANCH   1  20
BRANCH   3  27
ATOM     27  C   UNL     1      -4.080  12.220  19.322  0.00  0.00    +0.000 A 
ATOM     28  C   UNL     1      -5.122  12.815  20.040  0.00  0.00    +0.000 A 
ATOM     29  C   UNL     1      -6.439  12.692  19.590  0.00  0.00    +0.000 A 
ATOM     30  C   UNL     1      -6.719  11.976  18.427  0.00  0.00    +0.000 A 
ATOM     31  C   UNL     1      -5.685  11.378  17.710  0.00  0.00    +0.000 A 
ATOM     32  C   UNL     1      -4.368  11.497  18.156  0.00  0.00    +0.000 A 
ENDBRANCH   3  27
BRANCH   1  33
ATOM     33  C   UNL     1      -0.890  12.986  22.473  0.00  0.00    +0.000 C 
BRANCH  33  34
ATOM     34  C   UNL     1      -1.504  11.709  23.040  0.00  0.00    +0.000 C 
BRANCH  34  35
ATOM     35  O   UNL     1      -0.454  10.819  23.416  0.00  0.00    +0.000 OA
ATOM     36  H   UNL     1      -0.344  10.169  22.699  0.00  0.00    +0.000 HD
ENDBRANCH  34  35
ENDBRANCH  33  34
ENDBRANCH   1  33
TORSDOF 7
ENDMDL
MODEL 4
REMARK VINA RESULT:      -7.6      3.716      6.961
REMARK  Name = 
REMARK  8 active torsions:
REMARK  status: ('A' for Active; 'I' for Inactive)
REMARK    1  A    between atoms: C_1  and  S_2
REMARK    2  A    between atoms: S_2  and  C_5
REMARK    3  A    between atoms: C_8  and  C_9
REMARK    4  A    between atoms: C_9  and  C_10
REMARK    5  A    between atoms: C_10  and  C_11
REMARK    6  A    between atoms: C_11  and  O_12
REMARK    7  A    between atoms: C_14  and  C_15
REMARK    8  A    between atoms: N_25  and  C_26
REMARK                            x       y       z     vdW  Elec       q    Type
REMARK                         _______ _______ _______ _____ _____    ______ ____
ROOT
ATOM      1  C   UNL     1      -0.617  12.939  20.834  0.00  0.00    +0.000 C 
ATOM      2  C   UNL     1      -1.934  13.469  20.215  0.00  0.00    +0.000 C 
ATOM      3  C   UNL     1      -2.504  12.196  19.635  0.00  0.00    +0.000 C 
ATOM      4  N   UNL     1      -1.677  11.196  19.576  0.00  0.00    +0.000 NA
ATOM      5  N   UNL     1      -0.516  11.600  20.199  0.00  0.00    +0.000 N 
ATOM      6  C   UNL     1       0.594  10.751  20.262  0.00  0.00    +0.000 C 
ATOM      7  O   UNL     1       1.575  10.995  20.958  0.00  0.00    +0.000 OA
ATOM      8  N   UNL     1       0.463   9.668  19.405  0.00  0.00    +0.000 N 
ATOM      9  H   UNL     1      -0.393   9.714  18.865  0.00  0.00    +0.000 HD
ENDROOT
BRANCH   8  10
ATOM     10  C   UNL     1       1.428   8.684  19.116  0.00  0.00    +0.000 A 
ATOM     11  C   UNL     1       1.745   7.647  20.003  0.00  0.00    +0.000 A 
ATOM     12  C   UNL     1       2.732   6.711  19.687  0.00  0.00    +0.000 A 
ATOM     13  C   UNL     1       3.413   6.813  18.483  0.00  0.00    +0.000 A 
ATOM     14  F   UNL     1       4.372   5.926  18.189  0.00  0.00    +0.000 F 
ATOM     15  C   UNL     1       3.108   7.824  17.580  0.00  0.00    +0.000 A 
ATOM     16  C   UNL     1       2.110   8.757  17.893  0.00  0.00    +0.000 A 
ENDBRANCH   8  10
BRANCH   1  20
ATOM     17  C   UNL     1       2.664  15.605  19.696  0.00  0.00    +0.000 A 
ATOM     18  C   UNL     1       1.960  14.921  18.713  0.00  0.00    +0.000 A 
ATOM     19  C   UNL     1       0.956  14.025  19.090  0.00  0.00    +0.000 A 
ATOM     20  C   UNL     1       0.622  13.794  20.444  0.00  0.00    +0.000 A 
ATOM     21  C   UNL     1       1.373  14.494  21.411  0.00  0.00    +0.000 A 
ATOM     22  C   UNL     1       2.399  15.374  21.044  0.00  0.00    +0.000 A 
BRANCH  17  24
ATOM     23  C   UNL     1       5.405  15.854  19.282  0.00  0.00    +0.000 C 
ATOM     24  S   UNL     1       3.898  16.789  19.221  0.00  0.00    +0.000 S 
ATOM     25  O   UNL     1       3.956  17.804  20.255  0.00  0.00    +0.000 OA
ATOM     26  O   UNL     1       3.648  17.141  17.838  0.00  0.00    +0.000 OA
ENDBRANCH  17  24
ENDBRANCH   1  20
BRANCH   3  27
ATOM     27  C   UNL     1      -3.898  12.114  19.141  0.00  0.00    +0.000 A 
ATOM     28  C   UNL     1      -4.199  11.548  17.898  0.00  0.00    +0.000 A 
ATOM     29  C   UNL     1      -5.523  11.488  17.460  0.00  0.00    +0.000 A 
ATOM     30  C   UNL     1      -6.550  11.993  18.257  0.00  0.00    +0.000 A 
ATOM     31  C   UNL     1      -6.256  12.562  19.494  0.00  0.00    +0.000 A 
ATOM     32  C   UNL     1      -4.934  12.625  19.937  0.00  0.00    +0.000 A 
ENDBRANCH   3  27
BRANCH   1  33
ATOM     33  C   UNL     1      -0.791  12.839  22.383  0.00  0.00    +0.000 C 
BRANCH  33  34
ATOM     34  C   UNL     1      -1.422  11.568  22.944  0.00  0.00    +0.000 C 
BRANCH  34  35
ATOM     35  O   UNL     1      -0.387  10.714  23.431  0.00  0.00    +0.000 OA
ATOM     36  H   UNL     1      -0.725  10.258  24.222  0.00  0.00    +0.000 HD
ENDBRANCH  34  35
ENDBRANCH  33  34
ENDBRANCH   1  33
TORSDOF 7
ENDMDL
MODEL 5
REMARK VINA RESULT:      -7.6      0.927      1.130
REMARK  Name = 
REMARK  8 active torsions:
REMARK  status: ('A' for Active; 'I' for Inactive)
REMARK    1  A    between atoms: C_1  and  S_2
REMARK    2  A    between atoms: S_2  and  C_5
REMARK    3  A    between atoms: C_8  and  C_9
REMARK    4  A    between atoms: C_9  and  C_10
REMARK    5  A    between atoms: C_10  and  C_11
REMARK    6  A    between atoms: C_11  and  O_12
REMARK    7  A    between atoms: C_14  and  C_15
REMARK    8  A    between atoms: N_25  and  C_26
REMARK                            x       y       z     vdW  Elec       q    Type
REMARK                         _______ _______ _______ _____ _____    ______ ____
ROOT
ATOM      1  C   UNL     1      -0.154  10.929  19.228  0.00  0.00    +0.000 C 
ATOM      2  C   UNL     1      -1.211  10.834  20.357  0.00  0.00    +0.000 C 
ATOM      3  C   UNL     1      -1.094  12.210  20.968  0.00  0.00    +0.000 C 
ATOM      4  N   UNL     1      -0.053  12.893  20.599  0.00  0.00    +0.000 NA
ATOM      5  N   UNL     1       0.587  12.152  19.628  0.00  0.00    +0.000 N 
ATOM      6  C   UNL     1       1.780  12.605  19.055  0.00  0.00    +0.000 C 
ATOM      7  O   UNL     1       2.283  12.075  18.068  0.00  0.00    +0.000 OA
ATOM      8  N   UNL     1       2.331  13.655  19.774  0.00  0.00    +0.000 N 
ATOM      9  H   UNL     1       1.789  13.874  20.602  0.00  0.00    +0.000 HD
ENDROOT
BRANCH   8  10
ATOM     10  C   UNL     1       3.579  14.274  19.565  0.00  0.00    +0.000 A 
ATOM     11  C   UNL     1       4.078  14.564  18.288  0.00  0.00    +0.000 A 
ATOM     12  C   UNL     1       5.335  15.150  18.128  0.00  0.00    +0.000 A 
ATOM     13  C   UNL     1       6.103  15.444  19.245  0.00  0.00    +0.000 A 
ATOM     14  F   UNL     1       7.316  15.989  19.089  0.00  0.00    +0.000 F 
ATOM     15  C   UNL     1       5.625  15.179  20.522  0.00  0.00    +0.000 A 
ATOM     16  C   UNL     1       4.359  14.600  20.684  0.00  0.00    +0.000 A 
ENDBRANCH   8  10
BRANCH   1  20
ATOM     17  C   UNL     1       2.315   7.315  19.144  0.00  0.00    +0.000 A 
ATOM     18  C   UNL     1       1.830   7.789  20.356  0.00  0.00    +0.000 A 
ATOM     19  C   UNL     1       1.096   8.978  20.380  0.00  0.00    +0.000 A 
ATOM     20  C   UNL     1       0.818   9.716  19.206  0.00  0.00    +0.000 A 
ATOM     21  C   UNL     1       1.345   9.210  18.000  0.00  0.00    +0.000 A 
ATOM     22  C   UNL     1       2.105   8.034  17.970  0.00  0.00    +0.000 A 
BRANCH  17  24
ATOM     23  C   UNL     1       2.302   4.827  17.895  0.00  0.00    +0.000 C 
ATOM     24  S   UNL     1       3.197   5.775  19.099  0.00  0.00    +0.000 S 
ATOM     25  O   UNL     1       3.033   5.135  20.390  0.00  0.00    +0.000 OA
ATOM     26  O   UNL     1       4.514   6.050  18.560  0.00  0.00    +0.000 OA
ENDBRANCH  17  24
ENDBRANCH   1  20
BRANCH   3  27
ATOM     27  C   UNL     1      -2.084  12.722  21.944  0.00  0.00    +0.000 A 
ATOM     28  C   UNL     1      -2.672  13.981  21.792  0.00  0.00    +0.000 A 
ATOM     29  C   UNL     1      -3.601  14.436  22.731  0.00  0.00    +0.000 A 
ATOM     30  C   UNL     1      -3.943  13.640  23.823  0.00  0.00    +0.000 A 
ATOM     31  C   UNL     1      -3.357  12.386  23.982  0.00  0.00    +0.000 A 
ATOM     32  C   UNL     1      -2.428  11.927  23.047  0.00  0.00    +0.000 A 
ENDBRANCH   3  27
BRANCH   1  33
ATOM     33  C   UNL     1      -0.888  11.111  17.862  0.00  0.00    +0.000 C 
BRANCH  33  34
ATOM     34  C   UNL     1      -2.379  10.793  17.811  0.00  0.00    +0.000 C 
BRANCH  34  35
ATOM     35  O   UNL     1      -3.075  11.921  17.282  0.00  0.00    +0.000 OA
ATOM     36  H   UNL     1      -3.146  11.801  16.318  0.00  0.00    +0.000 HD
ENDBRANCH  34  35
ENDBRANCH  33  34
ENDBRANCH   1  33
TORSDOF 7
ENDMDL
MODEL 6
REMARK VINA RESULT:      -7.6      1.167      1.573
REMARK  Name = 
REMARK  8 active torsions:
REMARK  status: ('A' for Active; 'I' for Inactive)
REMARK    1  A    between atoms: C_1  and  S_2
REMARK    2  A    between atoms: S_2  and  C_5
REMARK    3  A    between atoms: C_8  and  C_9
REMARK    4  A    between atoms: C_9  and  C_10
REMARK    5  A    between atoms: C_10  and  C_11
REMARK    6  A    between atoms: C_11  and  O_12
REMARK    7  A    between atoms: C_14  and  C_15
REMARK    8  A    between atoms: N_25  and  C_26
REMARK                            x       y       z     vdW  Elec       q    Type
REMARK                         _______ _______ _______ _____ _____    ______ ____
ROOT
ATOM      1  C   UNL     1      -0.060  10.386  19.099  0.00  0.00    +0.000 C 
ATOM      2  C   UNL     1      -1.170  10.263  20.173  0.00  0.00    +0.000 C 
ATOM      3  C   UNL     1      -1.180  11.667  20.729  0.00  0.00    +0.000 C 
ATOM      4  N   UNL     1      -0.168  12.405  20.386  0.00  0.00    +0.000 NA
ATOM      5  N   UNL     1       0.574  11.673  19.484  0.00  0.00    +0.000 N 
ATOM      6  C   UNL     1       1.765  12.184  18.956  0.00  0.00    +0.000 C 
ATOM      7  O   UNL     1       2.356  11.652  18.022  0.00  0.00    +0.000 OA
ATOM      8  N   UNL     1       2.202  13.299  19.658  0.00  0.00    +0.000 N 
ATOM      9  H   UNL     1       1.601  13.512  20.445  0.00  0.00    +0.000 HD
ENDROOT
BRANCH   8  10
ATOM     10  C   UNL     1       3.415  13.993  19.488  0.00  0.00    +0.000 A 
ATOM     11  C   UNL     1       4.213  14.402  20.565  0.00  0.00    +0.000 A 
ATOM     12  C   UNL     1       5.394  15.115  20.350  0.00  0.00    +0.000 A 
ATOM     13  C   UNL     1       5.779  15.431  19.056  0.00  0.00    +0.000 A 
ATOM     14  F   UNL     1       6.902  16.132  18.852  0.00  0.00    +0.000 F 
ATOM     15  C   UNL     1       5.012  15.026  17.970  0.00  0.00    +0.000 A 
ATOM     16  C   UNL     1       3.833  14.300  18.185  0.00  0.00    +0.000 A 
ENDBRANCH   8  10
BRANCH   1  20
ATOM     17  C   UNL     1       2.649   6.953  19.303  0.00  0.00    +0.000 A 
ATOM     18  C   UNL     1       2.060   7.435  20.465  0.00  0.00    +0.000 A 
ATOM     19  C   UNL     1       1.247   8.570  20.398  0.00  0.00    +0.000 A 
ATOM     20  C   UNL     1       0.992   9.244  19.182  0.00  0.00    +0.000 A 
ATOM     21  C   UNL     1       1.624   8.733  18.030  0.00  0.00    +0.000 A 
ATOM     22  C   UNL     1       2.462   7.613  18.090  0.00  0.00    +0.000 A 
BRANCH  17  24
ATOM     23  C   UNL     1       3.542   4.849  17.714  0.00  0.00    +0.000 C 
ATOM     24  S   UNL     1       3.634   5.478  19.371  0.00  0.00    +0.000 S 
ATOM     25  O   UNL     1       2.962   4.538  20.247  0.00  0.00    +0.000 OA
ATOM     26  O   UNL     1       5.003   5.885  19.616  0.00  0.00    +0.000 OA
ENDBRANCH  17  24
ENDBRANCH   1  20
BRANCH   3  27
ATOM     27  C   UNL     1      -2.256  12.147  21.627  0.00  0.00    +0.000 A 
ATOM     28  C   UNL     1      -2.216  11.906  23.004  0.00  0.00    +0.000 A 
ATOM     29  C   UNL     1      -3.247  12.370  23.824  0.00  0.00    +0.000 A 
ATOM     30  C   UNL     1      -4.319  13.072  23.275  0.00  0.00    +0.000 A 
ATOM     31  C   UNL     1      -4.366  13.311  21.903  0.00  0.00    +0.000 A 
ATOM     32  C   UNL     1      -3.338  12.850  21.080  0.00  0.00    +0.000 A 
ENDBRANCH   3  27
BRANCH   1  33
ATOM     33  C   UNL     1      -0.726  10.462  17.689  0.00  0.00    +0.000 C 
BRANCH  33  34
ATOM     34  C   UNL     1      -1.883  11.439  17.504  0.00  0.00    +0.000 C 
BRANCH  34  35
ATOM     35  O   UNL     1      -1.355  12.753  17.326  0.00  0.00    +0.000 OA
ATOM     36  H   UNL     1      -2.086  13.386  17.441  0.00  0.00    +0.000 HD
ENDBRANCH  34  35
ENDBRANCH  33  34
ENDBRANCH   1  33
TORSDOF 7
ENDMDL
MODEL 7
REMARK VINA RESULT:      -7.6      1.206      1.583
REMARK  Name = 
REMARK  8 active torsions:
REMARK  status: ('A' for Active; 'I' for Inactive)
REMARK    1  A    between atoms: C_1  and  S_2
REMARK    2  A    between atoms: S_2  and  C_5
REMARK    3  A    between atoms: C_8  and  C_9
REMARK    4  A    between atoms: C_9  and  C_10
REMARK    5  A    between atoms: C_10  and  C_11
REMARK    6  A    between atoms: C_11  and  O_12
REMARK    7  A    between atoms: C_14  and  C_15
REMARK    8  A    between atoms: N_25  and  C_26
REMARK                            x       y       z     vdW  Elec       q    Type
REMARK                         _______ _______ _______ _____ _____    ______ ____
ROOT
ATOM      1  C   UNL     1      -0.222  11.002  19.230  0.00  0.00    +0.000 C 
ATOM      2  C   UNL     1      -1.425  10.746  20.171  0.00  0.00    +0.000 C 
ATOM      3  C   UNL     1      -1.424  12.021  20.981  0.00  0.00    +0.000 C 
ATOM      4  N   UNL     1      -0.356  12.750  20.864  0.00  0.00    +0.000 NA
ATOM      5  N   UNL     1       0.430  12.157  19.899  0.00  0.00    +0.000 N 
ATOM      6  C   UNL     1       1.682  12.687  19.571  0.00  0.00    +0.000 C 
ATOM      7  O   UNL     1       2.329  12.305  18.601  0.00  0.00    +0.000 OA
ATOM      8  N   UNL     1       2.104  13.625  20.503  0.00  0.00    +0.000 N 
ATOM      9  H   UNL     1       1.446  13.723  21.267  0.00  0.00    +0.000 HD
ENDROOT
BRANCH   8  10
ATOM     10  C   UNL     1       3.355  14.268  20.562  0.00  0.00    +0.000 A 
ATOM     11  C   UNL     1       4.254  14.084  21.621  0.00  0.00    +0.000 A 
ATOM     12  C   UNL     1       5.472  14.766  21.653  0.00  0.00    +0.000 A 
ATOM     13  C   UNL     1       5.794  15.643  20.628  0.00  0.00    +0.000 A 
ATOM     14  F   UNL     1       6.954  16.311  20.668  0.00  0.00    +0.000 F 
ATOM     15  C   UNL     1       4.925  15.833  19.559  0.00  0.00    +0.000 A 
ATOM     16  C   UNL     1       3.709  15.140  19.522  0.00  0.00    +0.000 A 
ENDBRANCH   8  10
BRANCH   1  20
ATOM     17  C   UNL     1       2.305   7.432  19.038  0.00  0.00    +0.000 A 
ATOM     18  C   UNL     1       1.783   7.842  20.258  0.00  0.00    +0.000 A 
ATOM     19  C   UNL     1       1.030   9.017  20.319  0.00  0.00    +0.000 A 
ATOM     20  C   UNL     1       0.770   9.806  19.175  0.00  0.00    +0.000 A 
ATOM     21  C   UNL     1       1.333   9.365  17.960  0.00  0.00    +0.000 A 
ATOM     22  C   UNL     1       2.112   8.203  17.893  0.00  0.00    +0.000 A 
BRANCH  17  24
ATOM     23  C   UNL     1       2.190   4.890  17.910  0.00  0.00    +0.000 C 
ATOM     24  S   UNL     1       3.211   5.909  18.943  0.00  0.00    +0.000 S 
ATOM     25  O   UNL     1       3.234   5.325  20.270  0.00  0.00    +0.000 OA
ATOM     26  O   UNL     1       4.439   6.183  18.223  0.00  0.00    +0.000 OA
ENDBRANCH  17  24
ENDBRANCH   1  20
BRANCH   3  27
ATOM     27  C   UNL     1      -2.552  12.387  21.869  0.00  0.00    +0.000 A 
ATOM     28  C   UNL     1      -3.648  13.112  21.391  0.00  0.00    +0.000 A 
ATOM     29  C   UNL     1      -4.695  13.444  22.254  0.00  0.00    +0.000 A 
ATOM     30  C   UNL     1      -4.651  13.058  23.593  0.00  0.00    +0.000 A 
ATOM     31  C   UNL     1      -3.559  12.339  24.075  0.00  0.00    +0.000 A 
ATOM     32  C   UNL     1      -2.511  12.005  23.217  0.00  0.00    +0.000 A 
ENDBRANCH   3  27
BRANCH   1  33
ATOM     33  C   UNL     1      -0.760  11.377  17.812  0.00  0.00    +0.000 C 
BRANCH  33  34
ATOM     34  C   UNL     1      -2.123  10.827  17.404  0.00  0.00    +0.000 C 
BRANCH  34  35
ATOM     35  O   UNL     1      -2.976  11.917  17.056  0.00  0.00    +0.000 OA
ATOM     36  H   UNL     1      -2.452  12.550  16.534  0.00  0.00    +0.000 HD
ENDBRANCH  34  35
ENDBRANCH  33  34
ENDBRANCH   1  33
TORSDOF 7
ENDMDL
MODEL 8
REMARK VINA RESULT:      -7.5      3.635      6.711
REMARK  Name = 
REMARK  8 active torsions:
REMARK  status: ('A' for Active; 'I' for Inactive)
REMARK    1  A    between atoms: C_1  and  S_2
REMARK    2  A    between atoms: S_2  and  C_5
REMARK    3  A    between atoms: C_8  and  C_9
REMARK    4  A    between atoms: C_9  and  C_10
REMARK    5  A    between atoms: C_10  and  C_11
REMARK    6  A    between atoms: C_11  and  O_12
REMARK    7  A    between atoms: C_14  and  C_15
REMARK    8  A    between atoms: N_25  and  C_26
REMARK                            x       y       z     vdW  Elec       q    Type
REMARK                         _______ _______ _______ _____ _____    ______ ____
ROOT
ATOM      1  C   UNL     1      -0.787  13.003  20.946  0.00  0.00    +0.000 C 
ATOM      2  C   UNL     1      -2.116  13.527  20.347  0.00  0.00    +0.000 C 
ATOM      3  C   UNL     1      -2.682  12.254  19.762  0.00  0.00    +0.000 C 
ATOM      4  N   UNL     1      -1.847  11.262  19.684  0.00  0.00    +0.000 NA
ATOM      5  N   UNL     1      -0.682  11.671  20.297  0.00  0.00    +0.000 N 
ATOM      6  C   UNL     1       0.435  10.830  20.339  0.00  0.00    +0.000 C 
ATOM      7  O   UNL     1       1.422  11.076  21.026  0.00  0.00    +0.000 OA
ATOM      8  N   UNL     1       0.303   9.754  19.474  0.00  0.00    +0.000 N 
ATOM      9  H   UNL     1      -0.559   9.797  18.944  0.00  0.00    +0.000 HD
ENDROOT
BRANCH   8  10
ATOM     10  C   UNL     1       1.273   8.781  19.165  0.00  0.00    +0.000 A 
ATOM     11  C   UNL     1       1.601   7.732  20.034  0.00  0.00    +0.000 A 
ATOM     12  C   UNL     1       2.593   6.808  19.698  0.00  0.00    +0.000 A 
ATOM     13  C   UNL     1       3.267   6.933  18.493  0.00  0.00    +0.000 A 
ATOM     14  F   UNL     1       4.230   6.057  18.180  0.00  0.00    +0.000 F 
ATOM     15  C   UNL     1       2.951   7.957  17.607  0.00  0.00    +0.000 A 
ATOM     16  C   UNL     1       1.949   8.877  17.939  0.00  0.00    +0.000 A 
ENDBRANCH   8  10
BRANCH   1  20
ATOM     17  C   UNL     1       2.851  15.168  19.833  0.00  0.00    +0.000 A 
ATOM     18  C   UNL     1       2.557  14.960  21.174  0.00  0.00    +0.000 A 
ATOM     19  C   UNL     1       1.362  14.323  21.520  0.00  0.00    +0.000 A 
ATOM     20  C   UNL     1       0.440  13.872  20.549  0.00  0.00    +0.000 A 
ATOM     21  C   UNL     1       0.768  14.119  19.200  0.00  0.00    +0.000 A 
ATOM     22  C   UNL     1       1.949  14.781  18.844  0.00  0.00    +0.000 A 
BRANCH  17  24
ATOM     23  C   UNL     1       4.904  14.993  17.961  0.00  0.00    +0.000 C 
ATOM     24  S   UNL     1       4.394  15.923  19.384  0.00  0.00    +0.000 S 
ATOM     25  O   UNL     1       5.339  15.665  20.453  0.00  0.00    +0.000 OA
ATOM     26  O   UNL     1       4.102  17.275  18.951  0.00  0.00    +0.000 OA
ENDBRANCH  17  24
ENDBRANCH   1  20
BRANCH   3  27
ATOM     27  C   UNL     1      -4.082  12.165  19.284  0.00  0.00    +0.000 A 
ATOM     28  C   UNL     1      -4.394  11.587  18.050  0.00  0.00    +0.000 A 
ATOM     29  C   UNL     1      -5.723  11.520  17.626  0.00  0.00    +0.000 A 
ATOM     30  C   UNL     1      -6.742  12.030  18.429  0.00  0.00    +0.000 A 
ATOM     31  C   UNL     1      -6.436  12.611  19.658  0.00  0.00    +0.000 A 
ATOM     32  C   UNL     1      -5.110  12.681  20.086  0.00  0.00    +0.000 A 
ENDBRANCH   3  27
BRANCH   1  33
ATOM     33  C   UNL     1      -0.942  12.887  22.495  0.00  0.00    +0.000 C 
BRANCH  33  34
ATOM     34  C   UNL     1      -1.503  11.583  23.056  0.00  0.00    +0.000 C 
BRANCH  34  35
ATOM     35  O   UNL     1      -0.417  10.745  23.450  0.00  0.00    +0.000 OA
ATOM     36  H   UNL     1      -0.504  10.575  24.405  0.00  0.00    +0.000 HD
ENDBRANCH  34  35
ENDBRANCH  33  34
ENDBRANCH   1  33
TORSDOF 7
ENDMDL
MODEL 9
REMARK VINA RESULT:      -7.5      3.740      6.964
REMARK  Name = 
REMARK  8 active torsions:
REMARK  status: ('A' for Active; 'I' for Inactive)
REMARK    1  A    between atoms: C_1  and  S_2
REMARK    2  A    between atoms: S_2  and  C_5
REMARK    3  A    between atoms: C_8  and  C_9
REMARK    4  A    between atoms: C_9  and  C_10
REMARK    5  A    between atoms: C_10  and  C_11
REMARK    6  A    between atoms: C_11  and  O_12
REMARK    7  A    between atoms: C_14  and  C_15
REMARK    8  A    between atoms: N_25  and  C_26
REMARK                            x       y       z     vdW  Elec       q    Type
REMARK                         _______ _______ _______ _____ _____    ______ ____
ROOT
ATOM      1  C   UNL     1      -0.419  12.710  20.702  0.00  0.00    +0.000 C 
ATOM      2  C   UNL     1      -1.697  13.251  20.015  0.00  0.00    +0.000 C 
ATOM      3  C   UNL     1      -2.259  11.979  19.425  0.00  0.00    +0.000 C 
ATOM      4  N   UNL     1      -1.446  10.967  19.417  0.00  0.00    +0.000 NA
ATOM      5  N   UNL     1      -0.309  11.361  20.089  0.00  0.00    +0.000 N 
ATOM      6  C   UNL     1       0.783  10.497  20.215  0.00  0.00    +0.000 C 
ATOM      7  O   UNL     1       1.734  10.735  20.953  0.00  0.00    +0.000 OA
ATOM      8  N   UNL     1       0.675   9.404  19.366  0.00  0.00    +0.000 N 
ATOM      9  H   UNL     1      -0.153   9.455  18.786  0.00  0.00    +0.000 HD
ENDROOT
BRANCH   8  10
ATOM     10  C   UNL     1       1.638   8.403  19.136  0.00  0.00    +0.000 A 
ATOM     11  C   UNL     1       2.459   8.385  18.001  0.00  0.00    +0.000 A 
ATOM     12  C   UNL     1       3.379   7.355  17.799  0.00  0.00    +0.000 A 
ATOM     13  C   UNL     1       3.478   6.331  18.729  0.00  0.00    +0.000 A 
ATOM     14  F   UNL     1       4.347   5.333  18.525  0.00  0.00    +0.000 F 
ATOM     15  C   UNL     1       2.684   6.332  19.870  0.00  0.00    +0.000 A 
ATOM     16  C   UNL     1       1.768   7.372  20.078  0.00  0.00    +0.000 A 
ENDBRANCH   8  10
BRANCH   1  20
ATOM     17  C   UNL     1       2.953  15.311  19.686  0.00  0.00    +0.000 A 
ATOM     18  C   UNL     1       2.284  14.625  18.680  0.00  0.00    +0.000 A 
ATOM     19  C   UNL     1       1.251  13.749  19.021  0.00  0.00    +0.000 A 
ATOM     20  C   UNL     1       0.850  13.541  20.360  0.00  0.00    +0.000 A 
ATOM     21  C   UNL     1       1.566  14.242  21.352  0.00  0.00    +0.000 A 
ATOM     22  C   UNL     1       2.622  15.101  21.023  0.00  0.00    +0.000 A 
BRANCH  17  24
ATOM     23  C   UNL     1       4.309  17.532  20.675  0.00  0.00    +0.000 C 
ATOM     24  S   UNL     1       4.226  16.470  19.256  0.00  0.00    +0.000 S 
ATOM     25  O   UNL     1       3.748  17.254  18.134  0.00  0.00    +0.000 OA
ATOM     26  O   UNL     1       5.472  15.732  19.179  0.00  0.00    +0.000 OA
ENDBRANCH  17  24
ENDBRANCH   1  20
BRANCH   3  27
ATOM     27  C   UNL     1      -3.630  11.912  18.867  0.00  0.00    +0.000 A 
ATOM     28  C   UNL     1      -3.860  11.518  17.545  0.00  0.00    +0.000 A 
ATOM     29  C   UNL     1      -5.164  11.467  17.048  0.00  0.00    +0.000 A 
ATOM     30  C   UNL     1      -6.240  11.810  17.865  0.00  0.00    +0.000 A 
ATOM     31  C   UNL     1      -6.017  12.209  19.182  0.00  0.00    +0.000 A 
ATOM     32  C   UNL     1      -4.716  12.261  19.683  0.00  0.00    +0.000 A 
ENDBRANCH   3  27
BRANCH   1  33
ATOM     33  C   UNL     1      -0.666  12.633  22.242  0.00  0.00    +0.000 C 
BRANCH  33  34
ATOM     34  C   UNL     1      -1.319  11.368  22.792  0.00  0.00    +0.000 C 
BRANCH  34  35
ATOM     35  O   UNL     1      -0.317  10.563  23.412  0.00  0.00    +0.000 OA
ATOM     36  H   UNL     1       0.369  10.377  22.747  0.00  0.00    +0.000 HD
ENDBRANCH  34  35
ENDBRANCH  33  34
ENDBRANCH   1  33
TORSDOF 7
ENDMDL
