MODEL 1
REMARK VINA RESULT:      -8.4      0.000      0.000
REMARK  Name = 
REMARK  14 active torsions:
REMARK  status: ('A' for Active; 'I' for Inactive)
REMARK    1  A    between atoms: C_1  and  N_2
REMARK    2  A    between atoms: N_2  and  C_3
REMARK    3  A    between atoms: C_3  and  C_4
REMARK    4  A    between atoms: C_4  and  C_5
REMARK    5  A    between atoms: C_4  and  N_12
REMARK    6  A    between atoms: C_5  and  C_6
REMARK    7  A    between atoms: N_12  and  C_13
REMARK    8  A    between atoms: C_13  and  C_14
REMARK    9  A    between atoms: C_14  and  C_15
REMARK   10  A    between atoms: C_14  and  N_26
REMARK   11  A    between atoms: C_15  and  C_16
REMARK   12  A    between atoms: N_26  and  C_27
REMARK   13  A    between atoms: C_27  and  C_28
REMARK   14  A    between atoms: C_31  and  C_32
REMARK                            x       y       z     vdW  Elec       q    Type
REMARK                         _______ _______ _______ _____ _____    ______ ____
ROOT
ATOM      1  C   UNL     1       2.518   6.490  18.434  0.00  0.00    +0.000 C 
ENDROOT
BRANCH   1   2
ATOM      2  N   UNL     1       1.730   5.294  18.025  0.00  0.00    +0.000 NA
ATOM      3  H   UNL     1       1.117   5.550  17.255  0.00  0.00    +0.000 HD
BRANCH   2   4
ATOM      4  C   UNL     1       2.598   4.184  17.641  0.00  0.00    +0.000 C 
BRANCH   4   5
ATOM      5  C   UNL     1       2.303   2.865  18.384  0.00  0.00    +0.000 C 
ATOM      6  C   UNL     1       3.347   2.509  19.458  0.00  0.00    +0.000 C 
ATOM      7  C   UNL     1       3.305   3.450  20.662  0.00  0.00    +0.000 C 
ATOM      8  C   UNL     1       1.910   3.527  21.297  0.00  0.00    +0.000 C 
ATOM      9  C   UNL     1       1.554   2.229  22.028  0.00  0.00    +0.000 C 
ATOM     10  C   UNL     1       0.849   3.878  20.245  0.00  0.00    +0.000 C 
ATOM     11  C   UNL     1       0.899   2.960  19.017  0.00  0.00    +0.000 C 
ENDBRANCH   4   5
ENDBRANCH   2   4
ENDBRANCH   1   2
BRANCH   1  12
ATOM     12  C   UNL     1       4.026   6.209  18.191  0.00  0.00    +0.000 C 
BRANCH  12  13
ATOM     13  N   UNL     1       4.483   6.850  16.964  0.00  0.00    +0.000 NA
ATOM     14  H   UNL     1       3.731   6.868  16.276  0.00  0.00    +0.000 HD
BRANCH  13  15
ATOM     15  C   UNL     1       5.744   6.315  16.425  0.00  0.00    +0.000 C 
BRANCH  15  16
ATOM     16  C   UNL     1       6.477   5.457  17.499  0.00  0.00    +0.000 C 
BRANCH  16  18
ATOM     17  C   UNL     1       7.948   5.804  19.410  0.00  0.00    +0.000 C 
ATOM     18  N   UNL     1       7.816   5.854  17.957  0.00  0.00    +0.000 NA
ATOM     19  H   UNL     1       8.482   5.189  17.557  0.00  0.00    +0.000 HD
ENDBRANCH  16  18
ENDBRANCH  15  16
BRANCH  15  20
ATOM     20  C   UNL     1       5.383   5.629  15.065  0.00  0.00    +0.000 C 
BRANCH  20  21
ATOM     21  C   UNL     1       6.507   4.622  14.621  0.00  0.00    +0.000 C 
ATOM     22  C   UNL     1       5.925   3.346  13.991  0.00  0.00    +0.000 C 
ATOM     23  C   UNL     1       5.606   3.534  12.516  0.00  0.00    +0.000 C 
ATOM     24  C   UNL     1       6.899   3.797  11.765  0.00  0.00    +0.000 C 
ATOM     25  C   UNL     1       7.537   5.094  12.247  0.00  0.00    +0.000 C 
ATOM     26  C   UNL     1       7.664   5.195  13.770  0.00  0.00    +0.000 C 
ENDBRANCH  20  21
ENDBRANCH  15  20
ENDBRANCH  13  15
ENDBRANCH  12  13
ENDBRANCH   1  12
BRANCH   1  27
ATOM     27  C   UNL     1       2.297   6.863  19.925  0.00  0.00    +0.000 C 
BRANCH  27  28
ATOM     28  C   UNL     1       1.486   8.116  20.142  0.00  0.00    +0.000 A 
ATOM     29  C   UNL     1       1.349   9.068  19.128  0.00  0.00    +0.000 A 
ATOM     30  C   UNL     1       0.636  10.243  19.356  0.00  0.00    +0.000 A 
ATOM     31  C   UNL     1       0.024  10.481  20.587  0.00  0.00    +0.000 A 
ATOM     32  C   UNL     1      -0.671  11.668  20.857  0.00  0.00    +0.000 A 
ATOM     33  C   UNL     1      -1.274  11.886  22.098  0.00  0.00    +0.000 A 
ATOM     34  C   UNL     1      -1.184  10.916  23.095  0.00  0.00    +0.000 A 
ATOM     35  C   UNL     1      -0.485   9.737  22.857  0.00  0.00    +0.000 A 
ATOM     36  C   UNL     1       0.134   9.507  21.619  0.00  0.00    +0.000 A 
ATOM     37  C   UNL     1       0.860   8.335  21.380  0.00  0.00    +0.000 A 
ENDBRANCH  27  28
ENDBRANCH   1  27
TORSDOF 12
ENDMDL
MODEL 2
REMARK VINA RESULT:      -8.3      1.229      1.636
REMARK  Name = 
REMARK  14 active torsions:
REMARK  status: ('A' for Active; 'I' for Inactive)
REMARK    1  A    between atoms: C_1  and  N_2
REMARK    2  A    between atoms: N_2  and  C_3
REMARK    3  A    between atoms: C_3  and  C_4
REMARK    4  A    between atoms: C_4  and  C_5
REMARK    5  A    between atoms: C_4  and  N_12
REMARK    6  A    between atoms: C_5  and  C_6
REMARK    7  A    between atoms: N_12  and  C_13
REMARK    8  A    between atoms: C_13  and  C_14
REMARK    9  A    between atoms: C_14  and  C_15
REMARK   10  A    between atoms: C_14  and  N_26
REMARK   11  A    between atoms: C_15  and  C_16
REMARK   12  A    between atoms: N_26  and  C_27
REMARK   13  A    between atoms: C_27  and  C_28
REMARK   14  A    between atoms: C_31  and  C_32
REMARK                            x       y       z     vdW  Elec       q    Type
REMARK                         _______ _______ _______ _____ _____    ______ ____
ROOT
ATOM      1  C   UNL     1       4.044   5.602  18.363  0.00  0.00    +0.000 C 
ENDROOT
BRANCH   1   2
ATOM      2  N   UNL     1       3.524   4.375  17.698  0.00  0.00    +0.000 NA
ATOM      3  H   UNL     1       3.977   3.561  18.107  0.00  0.00    +0.000 HD
BRANCH   2   4
ATOM      4  C   UNL     1       2.073   4.269  17.821  0.00  0.00    +0.000 C 
BRANCH   4   5
ATOM      5  C   UNL     1       1.589   2.963  18.483  0.00  0.00    +0.000 C 
ATOM      6  C   UNL     1       2.699   2.184  19.212  0.00  0.00    +0.000 C 
ATOM      7  C   UNL     1       3.194   2.895  20.471  0.00  0.00    +0.000 C 
ATOM      8  C   UNL     1       2.054   3.215  21.449  0.00  0.00    +0.000 C 
ATOM      9  C   UNL     1       1.516   1.945  22.117  0.00  0.00    +0.000 C 
ATOM     10  C   UNL     1       0.930   3.988  20.746  0.00  0.00    +0.000 C 
ATOM     11  C   UNL     1       0.445   3.302  19.463  0.00  0.00    +0.000 C 
ENDBRANCH   4   5
ENDBRANCH   2   4
ENDBRANCH   1   2
BRANCH   1  12
ATOM     12  C   UNL     1       5.482   5.326  18.879  0.00  0.00    +0.000 C 
BRANCH  12  13
ATOM     13  N   UNL     1       6.470   5.625  17.851  0.00  0.00    +0.000 NA
ATOM     14  H   UNL     1       7.403   5.669  18.262  0.00  0.00    +0.000 HD
BRANCH  13  15
ATOM     15  C   UNL     1       6.154   6.795  17.017  0.00  0.00    +0.000 C 
BRANCH  15  16
ATOM     16  C   UNL     1       7.293   7.854  17.106  0.00  0.00    +0.000 C 
BRANCH  16  18
ATOM     17  C   UNL     1       8.709   9.249  18.515  0.00  0.00    +0.000 C 
ATOM     18  N   UNL     1       8.127   7.925  18.314  0.00  0.00    +0.000 NA
ATOM     19  H   UNL     1       7.521   7.723  19.113  0.00  0.00    +0.000 HD
ENDBRANCH  16  18
ENDBRANCH  15  16
BRANCH  15  20
ATOM     20  C   UNL     1       5.784   6.238  15.602  0.00  0.00    +0.000 C 
BRANCH  20  21
ATOM     21  C   UNL     1       6.733   5.052  15.194  0.00  0.00    +0.000 C 
ATOM     22  C   UNL     1       5.955   3.749  14.943  0.00  0.00    +0.000 C 
ATOM     23  C   UNL     1       5.386   3.688  13.534  0.00  0.00    +0.000 C 
ATOM     24  C   UNL     1       6.535   3.665  12.542  0.00  0.00    +0.000 C 
ATOM     25  C   UNL     1       7.341   4.954  12.637  0.00  0.00    +0.000 C 
ATOM     26  C   UNL     1       7.753   5.326  14.064  0.00  0.00    +0.000 C 
ENDBRANCH  20  21
ENDBRANCH  15  20
ENDBRANCH  13  15
ENDBRANCH  12  13
ENDBRANCH   1  12
BRANCH   1  27
ATOM     27  C   UNL     1       3.149   6.058  19.546  0.00  0.00    +0.000 C 
BRANCH  27  28
ATOM     28  C   UNL     1       2.411   7.352  19.311  0.00  0.00    +0.000 A 
ATOM     29  C   UNL     1       2.518   8.028  18.093  0.00  0.00    +0.000 A 
ATOM     30  C   UNL     1       1.869   9.246  17.903  0.00  0.00    +0.000 A 
ATOM     31  C   UNL     1       1.080   9.801  18.912  0.00  0.00    +0.000 A 
ATOM     32  C   UNL     1       0.442  11.040  18.763  0.00  0.00    +0.000 A 
ATOM     33  C   UNL     1      -0.342  11.577  19.787  0.00  0.00    +0.000 A 
ATOM     34  C   UNL     1      -0.494  10.880  20.984  0.00  0.00    +0.000 A 
ATOM     35  C   UNL     1       0.143   9.656  21.163  0.00  0.00    +0.000 A 
ATOM     36  C   UNL     1       0.941   9.108  20.147  0.00  0.00    +0.000 A 
ATOM     37  C   UNL     1       1.606   7.890  20.328  0.00  0.00    +0.000 A 
ENDBRANCH  27  28
ENDBRANCH   1  27
TORSDOF 12
ENDMDL
MODEL 3
REMARK VINA RESULT:      -8.2      2.544      8.353
REMARK  Name = 
REMARK  14 active torsions:
REMARK  status: ('A' for Active; 'I' for Inactive)
REMARK    1  A    between atoms: C_1  and  N_2
REMARK    2  A    between atoms: N_2  and  C_3
REMARK    3  A    between atoms: C_3  and  C_4
REMARK    4  A    between atoms: C_4  and  C_5
REMARK    5  A    between atoms: C_4  and  N_12
REMARK    6  A    between atoms: C_5  and  C_6
REMARK    7  A    between atoms: N_12  and  C_13
REMARK    8  A    between atoms: C_13  and  C_14
REMARK    9  A    between atoms: C_14  and  C_15
REMARK   10  A    between atoms: C_14  and  N_26
REMARK   11  A    between atoms: C_15  and  C_16
REMARK   12  A    between atoms: N_26  and  C_27
REMARK   13  A    between atoms: C_27  and  C_28
REMARK   14  A    between atoms: C_31  and  C_32
REMARK                            x       y       z     vdW  Elec       q    Type
REMARK                         _______ _______ _______ _____ _____    ______ ____
ROOT
ATOM      1  C   UNL     1       2.029   7.342  20.145  0.00  0.00    +0.000 C 
ENDROOT
BRANCH   1   2
ATOM      2  N   UNL     1       1.221   6.111  20.376  0.00  0.00    +0.000 NA
ATOM      3  H   UNL     1       0.879   5.769  19.481  0.00  0.00    +0.000 HD
BRANCH   2   4
ATOM      4  C   UNL     1       1.997   5.078  21.057  0.00  0.00    +0.000 C 
BRANCH   4   5
ATOM      5  C   UNL     1       1.602   3.638  20.676  0.00  0.00    +0.000 C 
ATOM      6  C   UNL     1       1.240   3.462  19.190  0.00  0.00    +0.000 C 
ATOM      7  C   UNL     1       2.448   3.607  18.265  0.00  0.00    +0.000 C 
ATOM      8  C   UNL     1       3.590   2.652  18.639  0.00  0.00    +0.000 C 
ATOM      9  C   UNL     1       3.238   1.200  18.305  0.00  0.00    +0.000 C 
ATOM     10  C   UNL     1       3.968   2.805  20.118  0.00  0.00    +0.000 C 
ATOM     11  C   UNL     1       2.760   2.692  21.058  0.00  0.00    +0.000 C 
ENDBRANCH   4   5
ENDBRANCH   2   4
ENDBRANCH   1   2
BRANCH   1  12
ATOM     12  C   UNL     1       1.202   8.579  20.591  0.00  0.00    +0.000 C 
BRANCH  12  13
ATOM     13  N   UNL     1       1.115   9.561  19.518  0.00  0.00    +0.000 NA
ATOM     14  H   UNL     1       2.035   9.961  19.332  0.00  0.00    +0.000 HD
BRANCH  13  15
ATOM     15  C   UNL     1       0.070  10.581  19.701  0.00  0.00    +0.000 C 
BRANCH  15  16
ATOM     16  C   UNL     1       0.654  12.007  19.475  0.00  0.00    +0.000 C 
BRANCH  16  18
ATOM     17  C   UNL     1       2.618  12.802  18.271  0.00  0.00    +0.000 C 
ATOM     18  N   UNL     1       1.230  12.359  18.169  0.00  0.00    +0.000 NA
ATOM     19  H   UNL     1       1.211  11.514  17.593  0.00  0.00    +0.000 HD
ENDBRANCH  16  18
ENDBRANCH  15  16
BRANCH  15  20
ATOM     20  C   UNL     1      -1.138  10.136  18.811  0.00  0.00    +0.000 C 
BRANCH  20  21
ATOM     21  C   UNL     1      -1.863  11.380  18.177  0.00  0.00    +0.000 C 
ATOM     22  C   UNL     1      -2.194  11.162  16.691  0.00  0.00    +0.000 C 
ATOM     23  C   UNL     1      -3.493  10.394  16.504  0.00  0.00    +0.000 C 
ATOM     24  C   UNL     1      -4.638  11.229  17.049  0.00  0.00    +0.000 C 
ATOM     25  C   UNL     1      -4.466  11.447  18.547  0.00  0.00    +0.000 C 
ATOM     26  C   UNL     1      -3.076  11.952  18.946  0.00  0.00    +0.000 C 
ENDBRANCH  20  21
ENDBRANCH  15  20
ENDBRANCH  13  15
ENDBRANCH  12  13
ENDBRANCH   1  12
BRANCH   1  27
ATOM     27  C   UNL     1       2.443   7.507  18.658  0.00  0.00    +0.000 C 
BRANCH  27  28
ATOM     28  C   UNL     1       3.673   6.728  18.262  0.00  0.00    +0.000 A 
ATOM     29  C   UNL     1       4.554   6.236  19.229  0.00  0.00    +0.000 A 
ATOM     30  C   UNL     1       5.710   5.558  18.849  0.00  0.00    +0.000 A 
ATOM     31  C   UNL     1       5.998   5.334  17.503  0.00  0.00    +0.000 A 
ATOM     32  C   UNL     1       7.169   4.685  17.088  0.00  0.00    +0.000 A 
ATOM     33  C   UNL     1       7.438   4.473  15.734  0.00  0.00    +0.000 A 
ATOM     34  C   UNL     1       6.536   4.915  14.769  0.00  0.00    +0.000 A 
ATOM     35  C   UNL     1       5.374   5.577  15.153  0.00  0.00    +0.000 A 
ATOM     36  C   UNL     1       5.095   5.806  16.509  0.00  0.00    +0.000 A 
ATOM     37  C   UNL     1       3.941   6.494  16.904  0.00  0.00    +0.000 A 
ENDBRANCH  27  28
ENDBRANCH   1  27
TORSDOF 12
ENDMDL
MODEL 4
REMARK VINA RESULT:      -8.1      2.665      7.001
REMARK  Name = 
REMARK  14 active torsions:
REMARK  status: ('A' for Active; 'I' for Inactive)
REMARK    1  A    between atoms: C_1  and  N_2
REMARK    2  A    between atoms: N_2  and  C_3
REMARK    3  A    between atoms: C_3  and  C_4
REMARK    4  A    between atoms: C_4  and  C_5
REMARK    5  A    between atoms: C_4  and  N_12
REMARK    6  A    between atoms: C_5  and  C_6
REMARK    7  A    between atoms: N_12  and  C_13
REMARK    8  A    between atoms: C_13  and  C_14
REMARK    9  A    between atoms: C_14  and  C_15
REMARK   10  A    between atoms: C_14  and  N_26
REMARK   11  A    between atoms: C_15  and  C_16
REMARK   12  A    between atoms: N_26  and  C_27
REMARK   13  A    between atoms: C_27  and  C_28
REMARK   14  A    between atoms: C_31  and  C_32
REMARK                            x       y       z     vdW  Elec       q    Type
REMARK                         _______ _______ _______ _____ _____    ______ ____
ROOT
ATOM      1  C   UNL     1       1.503   9.754  18.224  0.00  0.00    +0.000 C 
ENDROOT
BRANCH   1   2
ATOM      2  N   UNL     1       2.127  10.944  17.579  0.00  0.00    +0.000 NA
ATOM      3  H   UNL     1       1.525  11.262  16.823  0.00  0.00    +0.000 HD
BRANCH   2   4
ATOM      4  C   UNL     1       2.353  12.020  18.540  0.00  0.00    +0.000 C 
BRANCH   4   5
ATOM      5  C   UNL     1       1.902  13.410  18.049  0.00  0.00    +0.000 C 
ATOM      6  C   UNL     1       0.660  13.957  18.777  0.00  0.00    +0.000 C 
ATOM      7  C   UNL     1       0.940  14.322  20.234  0.00  0.00    +0.000 C 
ATOM      8  C   UNL     1       2.105  15.312  20.377  0.00  0.00    +0.000 C 
ATOM      9  C   UNL     1       1.719  16.707  19.877  0.00  0.00    +0.000 C 
ATOM     10  C   UNL     1       3.356  14.792  19.656  0.00  0.00    +0.000 C 
ATOM     11  C   UNL     1       3.083  14.393  18.200  0.00  0.00    +0.000 C 
ENDBRANCH   4   5
ENDBRANCH   2   4
ENDBRANCH   1   2
BRANCH   1  12
ATOM     12  C   UNL     1       2.179   8.469  17.672  0.00  0.00    +0.000 C 
BRANCH  12  13
ATOM     13  N   UNL     1       2.586   7.588  18.758  0.00  0.00    +0.000 NA
ATOM     14  H   UNL     1       3.105   8.113  19.462  0.00  0.00    +0.000 HD
BRANCH  13  15
ATOM     15  C   UNL     1       3.280   6.363  18.328  0.00  0.00    +0.000 C 
BRANCH  15  16
ATOM     16  C   UNL     1       4.410   6.703  17.312  0.00  0.00    +0.000 C 
BRANCH  16  18
ATOM     17  C   UNL     1       6.809   7.120  17.396  0.00  0.00    +0.000 C 
ATOM     18  N   UNL     1       5.748   6.122  17.489  0.00  0.00    +0.000 NA
ATOM     19  H   UNL     1       5.779   5.716  18.428  0.00  0.00    +0.000 HD
ENDBRANCH  16  18
ENDBRANCH  15  16
BRANCH  15  20
ATOM     20  C   UNL     1       3.680   5.603  19.637  0.00  0.00    +0.000 C 
BRANCH  20  21
ATOM     21  C   UNL     1       3.430   4.056  19.494  0.00  0.00    +0.000 C 
ATOM     22  C   UNL     1       2.730   3.466  20.730  0.00  0.00    +0.000 C 
ATOM     23  C   UNL     1       1.222   3.647  20.670  0.00  0.00    +0.000 C 
ATOM     24  C   UNL     1       0.681   2.858  19.490  0.00  0.00    +0.000 C 
ATOM     25  C   UNL     1       1.242   3.408  18.185  0.00  0.00    +0.000 C 
ATOM     26  C   UNL     1       2.765   3.572  18.185  0.00  0.00    +0.000 C 
ENDBRANCH  20  21
ENDBRANCH  15  20
ENDBRANCH  13  15
ENDBRANCH  12  13
ENDBRANCH   1  12
BRANCH   1  27
ATOM     27  C   UNL     1      -0.027   9.680  17.975  0.00  0.00    +0.000 C 
BRANCH  27  28
ATOM     28  C   UNL     1      -0.850  10.577  18.866  0.00  0.00    +0.000 A 
ATOM     29  C   UNL     1      -1.937  11.292  18.357  0.00  0.00    +0.000 A 
ATOM     30  C   UNL     1      -2.661  12.153  19.180  0.00  0.00    +0.000 A 
ATOM     31  C   UNL     1      -2.334  12.298  20.528  0.00  0.00    +0.000 A 
ATOM     32  C   UNL     1      -3.023  13.181  21.372  0.00  0.00    +0.000 A 
ATOM     33  C   UNL     1      -2.677  13.311  22.719  0.00  0.00    +0.000 A 
ATOM     34  C   UNL     1      -1.627  12.559  23.243  0.00  0.00    +0.000 A 
ATOM     35  C   UNL     1      -0.917  11.688  22.422  0.00  0.00    +0.000 A 
ATOM     36  C   UNL     1      -1.246  11.554  21.065  0.00  0.00    +0.000 A 
ATOM     37  C   UNL     1      -0.521  10.699  20.226  0.00  0.00    +0.000 A 
ENDBRANCH  27  28
ENDBRANCH   1  27
TORSDOF 12
ENDMDL
MODEL 5
REMARK VINA RESULT:      -8.0      0.819      1.637
REMARK  Name = 
REMARK  14 active torsions:
REMARK  status: ('A' for Active; 'I' for Inactive)
REMARK    1  A    between atoms: C_1  and  N_2
REMARK    2  A    between atoms: N_2  and  C_3
REMARK    3  A    between atoms: C_3  and  C_4
REMARK    4  A    between atoms: C_4  and  C_5
REMARK    5  A    between atoms: C_4  and  N_12
REMARK    6  A    between atoms: C_5  and  C_6
REMARK    7  A    between atoms: N_12  and  C_13
REMARK    8  A    between atoms: C_13  and  C_14
REMARK    9  A    between atoms: C_14  and  C_15
REMARK   10  A    between atoms: C_14  and  N_26
REMARK   11  A    between atoms: C_15  and  C_16
REMARK   12  A    between atoms: N_26  and  C_27
REMARK   13  A    between atoms: C_27  and  C_28
REMARK   14  A    between atoms: C_31  and  C_32
REMARK                            x       y       z     vdW  Elec       q    Type
REMARK                         _______ _______ _______ _____ _____    ______ ____
ROOT
ATOM      1  C   UNL     1       2.648   7.050  18.477  0.00  0.00    +0.000 C 
ENDROOT
BRANCH   1   2
ATOM      2  N   UNL     1       1.766   6.010  17.876  0.00  0.00    +0.000 NA
ATOM      3  H   UNL     1       1.616   6.232  16.895  0.00  0.00    +0.000 HD
BRANCH   2   4
ATOM      4  C   UNL     1       2.337   4.673  18.018  0.00  0.00    +0.000 C 
BRANCH   4   5
ATOM      5  C   UNL     1       1.401   3.657  18.702  0.00  0.00    +0.000 C 
ATOM      6  C   UNL     1       2.069   2.304  19.009  0.00  0.00    +0.000 C 
ATOM      7  C   UNL     1       3.127   2.399  20.108  0.00  0.00    +0.000 C 
ATOM      8  C   UNL     1       2.573   3.012  21.402  0.00  0.00    +0.000 C 
ATOM      9  C   UNL     1       1.614   2.051  22.111  0.00  0.00    +0.000 C 
ATOM     10  C   UNL     1       1.898   4.362  21.123  0.00  0.00    +0.000 C 
ATOM     11  C   UNL     1       0.855   4.287  20.001  0.00  0.00    +0.000 C 
ENDBRANCH   4   5
ENDBRANCH   2   4
ENDBRANCH   1   2
BRANCH   1  12
ATOM     12  C   UNL     1       4.128   6.594  18.346  0.00  0.00    +0.000 C 
BRANCH  12  13
ATOM     13  N   UNL     1       4.643   6.878  17.013  0.00  0.00    +0.000 NA
ATOM     14  H   UNL     1       3.888   6.840  16.328  0.00  0.00    +0.000 HD
BRANCH  13  15
ATOM     15  C   UNL     1       5.814   6.077  16.623  0.00  0.00    +0.000 C 
BRANCH  15  16
ATOM     16  C   UNL     1       6.027   4.901  17.622  0.00  0.00    +0.000 C 
BRANCH  16  18
ATOM     17  C   UNL     1       7.733   5.795  19.115  0.00  0.00    +0.000 C 
ATOM     18  N   UNL     1       7.348   4.696  18.234  0.00  0.00    +0.000 NA
ATOM     19  H   UNL     1       7.291   3.845  18.799  0.00  0.00    +0.000 HD
ENDBRANCH  16  18
ENDBRANCH  15  16
BRANCH  15  20
ATOM     20  C   UNL     1       5.619   5.724  15.111  0.00  0.00    +0.000 C 
BRANCH  20  21
ATOM     21  C   UNL     1       6.718   4.711  14.619  0.00  0.00    +0.000 C 
ATOM     22  C   UNL     1       6.104   3.402  14.092  0.00  0.00    +0.000 C 
ATOM     23  C   UNL     1       5.664   3.524  12.642  0.00  0.00    +0.000 C 
ATOM     24  C   UNL     1       6.888   3.767  11.777  0.00  0.00    +0.000 C 
ATOM     25  C   UNL     1       7.544   5.091  12.151  0.00  0.00    +0.000 C 
ATOM     26  C   UNL     1       7.794   5.258  13.652  0.00  0.00    +0.000 C 
ENDBRANCH  20  21
ENDBRANCH  15  20
ENDBRANCH  13  15
ENDBRANCH  12  13
ENDBRANCH   1  12
BRANCH   1  27
ATOM     27  C   UNL     1       2.320   7.312  19.971  0.00  0.00    +0.000 C 
BRANCH  27  28
ATOM     28  C   UNL     1       1.397   8.481  20.213  0.00  0.00    +0.000 A 
ATOM     29  C   UNL     1       1.041   8.857  21.511  0.00  0.00    +0.000 A 
ATOM     30  C   UNL     1       0.152   9.909  21.721  0.00  0.00    +0.000 A 
ATOM     31  C   UNL     1      -0.379  10.622  20.646  0.00  0.00    +0.000 A 
ATOM     32  C   UNL     1      -1.301  11.662  20.823  0.00  0.00    +0.000 A 
ATOM     33  C   UNL     1      -1.821  12.362  19.731  0.00  0.00    +0.000 A 
ATOM     34  C   UNL     1      -1.427  12.024  18.438  0.00  0.00    +0.000 A 
ATOM     35  C   UNL     1      -0.526  10.984  18.234  0.00  0.00    +0.000 A 
ATOM     36  C   UNL     1      -0.002  10.266  19.320  0.00  0.00    +0.000 A 
ATOM     37  C   UNL     1       0.885   9.202  19.123  0.00  0.00    +0.000 A 
ENDBRANCH  27  28
ENDBRANCH   1  27
TORSDOF 12
ENDMDL
MODEL 6
REMARK VINA RESULT:      -7.9      1.112      1.443
REMARK  Name = 
REMARK  14 active torsions:
REMARK  status: ('A' for Active; 'I' for Inactive)
REMARK    1  A    between atoms: C_1  and  N_2
REMARK    2  A    between atoms: N_2  and  C_3
REMARK    3  A    between atoms: C_3  and  C_4
REMARK    4  A    between atoms: C_4  and  C_5
REMARK    5  A    between atoms: C_4  and  N_12
REMARK    6  A    between atoms: C_5  and  C_6
REMARK    7  A    between atoms: N_12  and  C_13
REMARK    8  A    between atoms: C_13  and  C_14
REMARK    9  A    between atoms: C_14  and  C_15
REMARK   10  A    between atoms: C_14  and  N_26
REMARK   11  A    between atoms: C_15  and  C_16
REMARK   12  A    between atoms: N_26  and  C_27
REMARK   13  A    between atoms: C_27  and  C_28
REMARK   14  A    between atoms: C_31  and  C_32
REMARK                            x       y       z     vdW  Elec       q    Type
REMARK                         _______ _______ _______ _____ _____    ______ ____
ROOT
ATOM      1  C   UNL     1       2.648   6.638  18.347  0.00  0.00    +0.000 C 
ENDROOT
BRANCH   1   2
ATOM      2  N   UNL     1       1.746   5.534  17.913  0.00  0.00    +0.000 NA
ATOM      3  H   UNL     1       1.282   5.808  17.051  0.00  0.00    +0.000 HD
BRANCH   2   4
ATOM      4  C   UNL     1       2.477   4.284  17.728  0.00  0.00    +0.000 C 
BRANCH   4   5
ATOM      5  C   UNL     1       1.826   3.064  18.411  0.00  0.00    +0.000 C 
ATOM      6  C   UNL     1       2.820   2.175  19.180  0.00  0.00    +0.000 C 
ATOM      7  C   UNL     1       3.376   2.853  20.432  0.00  0.00    +0.000 C 
ATOM      8  C   UNL     1       2.268   3.335  21.379  0.00  0.00    +0.000 C 
ATOM      9  C   UNL     1       1.567   2.159  22.065  0.00  0.00    +0.000 C 
ATOM     10  C   UNL     1       1.259   4.221  20.635  0.00  0.00    +0.000 C 
ATOM     11  C   UNL     1       0.715   3.566  19.359  0.00  0.00    +0.000 C 
ENDBRANCH   4   5
ENDBRANCH   2   4
ENDBRANCH   1   2
BRANCH   1  12
ATOM     12  C   UNL     1       4.122   6.214  18.097  0.00  0.00    +0.000 C 
BRANCH  12  13
ATOM     13  N   UNL     1       4.748   7.071  17.099  0.00  0.00    +0.000 NA
ATOM     14  H   UNL     1       4.253   6.997  16.211  0.00  0.00    +0.000 HD
BRANCH  13  15
ATOM     15  C   UNL     1       6.203   6.895  16.964  0.00  0.00    +0.000 C 
BRANCH  15  16
ATOM     16  C   UNL     1       6.953   8.190  17.396  0.00  0.00    +0.000 C 
BRANCH  16  18
ATOM     17  C   UNL     1       8.711   9.389  18.583  0.00  0.00    +0.000 C 
ATOM     18  N   UNL     1       8.199   8.086  18.169  0.00  0.00    +0.000 NA
ATOM     19  H   UNL     1       7.987   7.548  19.013  0.00  0.00    +0.000 HD
ENDBRANCH  16  18
ENDBRANCH  15  16
BRANCH  15  20
ATOM     20  C   UNL     1       6.554   5.564  17.709  0.00  0.00    +0.000 C 
BRANCH  20  21
ATOM     21  C   UNL     1       7.012   4.451  16.696  0.00  0.00    +0.000 C 
ATOM     22  C   UNL     1       5.881   3.459  16.377  0.00  0.00    +0.000 C 
ATOM     23  C   UNL     1       4.960   3.978  15.285  0.00  0.00    +0.000 C 
ATOM     24  C   UNL     1       5.752   4.108  13.996  0.00  0.00    +0.000 C 
ATOM     25  C   UNL     1       6.864   5.137  14.161  0.00  0.00    +0.000 C 
ATOM     26  C   UNL     1       7.726   4.925  15.409  0.00  0.00    +0.000 C 
ENDBRANCH  20  21
ENDBRANCH  15  20
ENDBRANCH  13  15
ENDBRANCH  12  13
ENDBRANCH   1  12
BRANCH   1  27
ATOM     27  C   UNL     1       2.463   7.001  19.844  0.00  0.00    +0.000 C 
BRANCH  27  28
ATOM     28  C   UNL     1       1.572   8.192  20.094  0.00  0.00    +0.000 A 
ATOM     29  C   UNL     1       1.322   9.126  19.084  0.00  0.00    +0.000 A 
ATOM     30  C   UNL     1       0.536  10.247  19.340  0.00  0.00    +0.000 A 
ATOM     31  C   UNL     1      -0.039  10.446  20.596  0.00  0.00    +0.000 A 
ATOM     32  C   UNL     1      -0.807  11.580  20.893  0.00  0.00    +0.000 A 
ATOM     33  C   UNL     1      -1.371  11.760  22.159  0.00  0.00    +0.000 A 
ATOM     34  C   UNL     1      -1.168  10.804  23.152  0.00  0.00    +0.000 A 
ATOM     35  C   UNL     1      -0.395   9.678  22.888  0.00  0.00    +0.000 A 
ATOM     36  C   UNL     1       0.186   9.488  21.625  0.00  0.00    +0.000 A 
ATOM     37  C   UNL     1       0.986   8.371  21.357  0.00  0.00    +0.000 A 
ENDBRANCH  27  28
ENDBRANCH   1  27
TORSDOF 12
ENDMDL
MODEL 7
REMARK VINA RESULT:      -7.9      1.118      1.739
REMARK  Name = 
REMARK  14 active torsions:
REMARK  status: ('A' for Active; 'I' for Inactive)
REMARK    1  A    between atoms: C_1  and  N_2
REMARK    2  A    between atoms: N_2  and  C_3
REMARK    3  A    between atoms: C_3  and  C_4
REMARK    4  A    between atoms: C_4  and  C_5
REMARK    5  A    between atoms: C_4  and  N_12
REMARK    6  A    between atoms: C_5  and  C_6
REMARK    7  A    between atoms: N_12  and  C_13
REMARK    8  A    between atoms: C_13  and  C_14
REMARK    9  A    between atoms: C_14  and  C_15
REMARK   10  A    between atoms: C_14  and  N_26
REMARK   11  A    between atoms: C_15  and  C_16
REMARK   12  A    between atoms: N_26  and  C_27
REMARK   13  A    between atoms: C_27  and  C_28
REMARK   14  A    between atoms: C_31  and  C_32
REMARK                            x       y       z     vdW  Elec       q    Type
REMARK                         _______ _______ _______ _____ _____    ______ ____
ROOT
ATOM      1  C   UNL     1       3.167   5.797  17.445  0.00  0.00    +0.000 C 
ENDROOT
BRANCH   1   2
ATOM      2  N   UNL     1       2.965   4.321  17.481  0.00  0.00    +0.000 NA
ATOM      3  H   UNL     1       3.498   3.934  18.256  0.00  0.00    +0.000 HD
BRANCH   2   4
ATOM      4  C   UNL     1       1.552   3.974  17.608  0.00  0.00    +0.000 C 
BRANCH   4   5
ATOM      5  C   UNL     1       1.278   2.765  18.523  0.00  0.00    +0.000 C 
ATOM      6  C   UNL     1       2.550   2.128  19.113  0.00  0.00    +0.000 C 
ATOM      7  C   UNL     1       3.241   3.025  20.139  0.00  0.00    +0.000 C 
ATOM      8  C   UNL     1       2.299   3.451  21.274  0.00  0.00    +0.000 C 
ATOM      9  C   UNL     1       1.971   2.277  22.201  0.00  0.00    +0.000 C 
ATOM     10  C   UNL     1       1.019   4.086  20.712  0.00  0.00    +0.000 C 
ATOM     11  C   UNL     1       0.330   3.211  19.658  0.00  0.00    +0.000 C 
ENDBRANCH   4   5
ENDBRANCH   2   4
ENDBRANCH   1   2
BRANCH   1  12
ATOM     12  C   UNL     1       4.436   6.112  16.607  0.00  0.00    +0.000 C 
BRANCH  12  13
ATOM     13  N   UNL     1       5.024   4.890  16.074  0.00  0.00    +0.000 NA
ATOM     14  H   UNL     1       5.176   4.216  16.825  0.00  0.00    +0.000 HD
BRANCH  13  15
ATOM     15  C   UNL     1       6.217   5.096  15.237  0.00  0.00    +0.000 C 
BRANCH  15  16
ATOM     16  C   UNL     1       7.423   5.555  16.109  0.00  0.00    +0.000 C 
BRANCH  16  18
ATOM     17  C   UNL     1       7.624   6.420  18.378  0.00  0.00    +0.000 C 
ATOM     18  N   UNL     1       7.282   6.722  16.992  0.00  0.00    +0.000 NA
ATOM     19  H   UNL     1       7.932   7.436  16.655  0.00  0.00    +0.000 HD
ENDBRANCH  16  18
ENDBRANCH  15  16
BRANCH  15  20
ATOM     20  C   UNL     1       6.386   3.794  14.385  0.00  0.00    +0.000 C 
BRANCH  20  21
ATOM     21  C   UNL     1       6.075   4.065  12.867  0.00  0.00    +0.000 C 
ATOM     22  C   UNL     1       7.341   4.000  11.997  0.00  0.00    +0.000 C 
ATOM     23  C   UNL     1       7.687   2.573  11.601  0.00  0.00    +0.000 C 
ATOM     24  C   UNL     1       6.573   2.023  10.728  0.00  0.00    +0.000 C 
ATOM     25  C   UNL     1       5.269   1.960  11.512  0.00  0.00    +0.000 C 
ATOM     26  C   UNL     1       4.914   3.263  12.235  0.00  0.00    +0.000 C 
ENDBRANCH  20  21
ENDBRANCH  15  20
ENDBRANCH  13  15
ENDBRANCH  12  13
ENDBRANCH   1  12
BRANCH   1  27
ATOM     27  C   UNL     1       3.321   6.407  18.864  0.00  0.00    +0.000 C 
BRANCH  27  28
ATOM     28  C   UNL     1       2.388   7.555  19.156  0.00  0.00    +0.000 A 
ATOM     29  C   UNL     1       2.039   8.469  18.157  0.00  0.00    +0.000 A 
ATOM     30  C   UNL     1       1.213   9.552  18.449  0.00  0.00    +0.000 A 
ATOM     31  C   UNL     1       0.697   9.731  19.733  0.00  0.00    +0.000 A 
ATOM     32  C   UNL     1      -0.109  10.829  20.066  0.00  0.00    +0.000 A 
ATOM     33  C   UNL     1      -0.614  10.990  21.359  0.00  0.00    +0.000 A 
ATOM     34  C   UNL     1      -0.312  10.051  22.344  0.00  0.00    +0.000 A 
ATOM     35  C   UNL     1       0.500   8.963  22.043  0.00  0.00    +0.000 A 
ATOM     36  C   UNL     1       1.022   8.793  20.752  0.00  0.00    +0.000 A 
ATOM     37  C   UNL     1       1.861   7.714  20.447  0.00  0.00    +0.000 A 
ENDBRANCH  27  28
ENDBRANCH   1  27
TORSDOF 12
ENDMDL
MODEL 8
REMARK VINA RESULT:      -7.7      2.718      6.713
REMARK  Name = 
REMARK  14 active torsions:
REMARK  status: ('A' for Active; 'I' for Inactive)
REMARK    1  A    between atoms: C_1  and  N_2
REMARK    2  A    between atoms: N_2  and  C_3
REMARK    3  A    between atoms: C_3  and  C_4
REMARK    4  A    between atoms: C_4  and  C_5
REMARK    5  A    between atoms: C_4  and  N_12
REMARK    6  A    between atoms: C_5  and  C_6
REMARK    7  A    between atoms: N_12  and  C_13
REMARK    8  A    between atoms: C_13  and  C_14
REMARK    9  A    between atoms: C_14  and  C_15
REMARK   10  A    between atoms: C_14  and  N_26
REMARK   11  A    between atoms: C_15  and  C_16
REMARK   12  A    between atoms: N_26  and  C_27
REMARK   13  A    between atoms: C_27  and  C_28
REMARK   14  A    between atoms: C_31  and  C_32
REMARK                            x       y       z     vdW  Elec       q    Type
REMARK                         _______ _______ _______ _____ _____    ______ ____
ROOT
ATOM      1  C   UNL     1       1.318  10.015  18.585  0.00  0.00    +0.000 C 
ENDROOT
BRANCH   1   2
ATOM      2  N   UNL     1       2.004  11.065  17.782  0.00  0.00    +0.000 NA
ATOM      3  H   UNL     1       1.404  11.331  17.005  0.00  0.00    +0.000 HD
BRANCH   2   4
ATOM      4  C   UNL     1       2.336  12.233  18.594  0.00  0.00    +0.000 C 
BRANCH   4   5
ATOM      5  C   UNL     1       1.825  13.569  18.019  0.00  0.00    +0.000 C 
ATOM      6  C   UNL     1       0.548  14.093  18.701  0.00  0.00    +0.000 C 
ATOM      7  C   UNL     1       0.790  14.554  20.138  0.00  0.00    +0.000 C 
ATOM      8  C   UNL     1       1.903  15.608  20.236  0.00  0.00    +0.000 C 
ATOM      9  C   UNL     1       1.455  16.951  19.652  0.00  0.00    +0.000 C 
ATOM     10  C   UNL     1       3.187  15.111  19.559  0.00  0.00    +0.000 C 
ATOM     11  C   UNL     1       2.954  14.615  18.125  0.00  0.00    +0.000 C 
ENDBRANCH   4   5
ENDBRANCH   2   4
ENDBRANCH   1   2
BRANCH   1  12
ATOM     12  C   UNL     1       1.973   8.640  18.283  0.00  0.00    +0.000 C 
BRANCH  12  13
ATOM     13  N   UNL     1       2.035   7.818  19.485  0.00  0.00    +0.000 NA
ATOM     14  H   UNL     1       2.340   8.379  20.280  0.00  0.00    +0.000 HD
BRANCH  13  15
ATOM     15  C   UNL     1       2.799   6.568  19.336  0.00  0.00    +0.000 C 
BRANCH  15  16
ATOM     16  C   UNL     1       2.060   5.390  20.038  0.00  0.00    +0.000 C 
BRANCH  16  18
ATOM     17  C   UNL     1       2.975   3.157  20.375  0.00  0.00    +0.000 C 
ATOM     18  N   UNL     1       2.191   4.027  19.504  0.00  0.00    +0.000 NA
ATOM     19  H   UNL     1       1.248   3.637  19.436  0.00  0.00    +0.000 HD
ENDBRANCH  16  18
ENDBRANCH  15  16
BRANCH  15  20
ATOM     20  C   UNL     1       3.113   6.426  17.809  0.00  0.00    +0.000 C 
BRANCH  20  21
ATOM     21  C   UNL     1       4.663   6.466  17.544  0.00  0.00    +0.000 C 
ATOM     22  C   UNL     1       5.405   5.337  18.279  0.00  0.00    +0.000 C 
ATOM     23  C   UNL     1       5.374   4.033  17.499  0.00  0.00    +0.000 C 
ATOM     24  C   UNL     1       6.128   4.223  16.196  0.00  0.00    +0.000 C 
ATOM     25  C   UNL     1       5.435   5.269  15.332  0.00  0.00    +0.000 C 
ATOM     26  C   UNL     1       5.119   6.574  16.070  0.00  0.00    +0.000 C 
ENDBRANCH  20  21
ENDBRANCH  15  20
ENDBRANCH  13  15
ENDBRANCH  12  13
ENDBRANCH   1  12
BRANCH   1  27
ATOM     27  C   UNL     1      -0.203   9.939  18.284  0.00  0.00    +0.000 C 
BRANCH  27  28
ATOM     28  C   UNL     1      -1.058  10.831  19.149  0.00  0.00    +0.000 A 
ATOM     29  C   UNL     1      -2.220  11.421  18.645  0.00  0.00    +0.000 A 
ATOM     30  C   UNL     1      -2.977  12.279  19.440  0.00  0.00    +0.000 A 
ATOM     31  C   UNL     1      -2.606  12.546  20.758  0.00  0.00    +0.000 A 
ATOM     32  C   UNL     1      -3.328  13.430  21.571  0.00  0.00    +0.000 A 
ATOM     33  C   UNL     1      -2.938  13.683  22.889  0.00  0.00    +0.000 A 
ATOM     34  C   UNL     1      -1.810  13.055  23.412  0.00  0.00    +0.000 A 
ATOM     35  C   UNL     1      -1.066  12.186  22.620  0.00  0.00    +0.000 A 
ATOM     36  C   UNL     1      -1.440  11.929  21.292  0.00  0.00    +0.000 A 
ATOM     37  C   UNL     1      -0.684  11.076  20.480  0.00  0.00    +0.000 A 
ENDBRANCH  27  28
ENDBRANCH   1  27
TORSDOF 12
ENDMDL
MODEL 9
REMARK VINA RESULT:      -7.7      2.717      7.191
REMARK  Name = 
REMARK  14 active torsions:
REMARK  status: ('A' for Active; 'I' for Inactive)
REMARK    1  A    between atoms: C_1  and  N_2
REMARK    2  A    between atoms: N_2  and  C_3
REMARK    3  A    between atoms: C_3  and  C_4
REMARK    4  A    between atoms: C_4  and  C_5
REMARK    5  A    between atoms: C_4  and  N_12
REMARK    6  A    between atoms: C_5  and  C_6
REMARK    7  A    between atoms: N_12  and  C_13
REMARK    8  A    between atoms: C_13  and  C_14
REMARK    9  A    between atoms: C_14  and  C_15
REMARK   10  A    between atoms: C_14  and  N_26
REMARK   11  A    between atoms: C_15  and  C_16
REMARK   12  A    between atoms: N_26  and  C_27
REMARK   13  A    between atoms: C_27  and  C_28
REMARK   14  A    between atoms: C_31  and  C_32
REMARK                            x       y       z     vdW  Elec       q    Type
REMARK                         _______ _______ _______ _____ _____    ______ ____
ROOT
ATOM      1  C   UNL     1       1.533  10.388  18.476  0.00  0.00    +0.000 C 
ENDROOT
BRANCH   1   2
ATOM      2  N   UNL     1       2.066  11.584  17.764  0.00  0.00    +0.000 NA
ATOM      3  H   UNL     1       1.367  11.910  17.100  0.00  0.00    +0.000 HD
BRANCH   2   4
ATOM      4  C   UNL     1       2.425  12.649  18.695  0.00  0.00    +0.000 C 
BRANCH   4   5
ATOM      5  C   UNL     1       1.885  14.039  18.304  0.00  0.00    +0.000 C 
ATOM      6  C   UNL     1       0.500  14.360  18.897  0.00  0.00    +0.000 C 
ATOM      7  C   UNL     1       0.535  14.559  20.411  0.00  0.00    +0.000 C 
ATOM      8  C   UNL     1       1.546  15.634  20.837  0.00  0.00    +0.000 C 
ATOM      9  C   UNL     1       1.069  17.037  20.447  0.00  0.00    +0.000 C 
ATOM     10  C   UNL     1       2.935  15.340  20.256  0.00  0.00    +0.000 C 
ATOM     11  C   UNL     1       2.911  15.107  18.740  0.00  0.00    +0.000 C 
ENDBRANCH   4   5
ENDBRANCH   2   4
ENDBRANCH   1   2
BRANCH   1  12
ATOM     12  C   UNL     1       2.061   9.106  17.774  0.00  0.00    +0.000 C 
BRANCH  12  13
ATOM     13  N   UNL     1       2.037   7.969  18.684  0.00  0.00    +0.000 NA
ATOM     14  H   UNL     1       2.294   8.265  19.625  0.00  0.00    +0.000 HD
BRANCH  13  15
ATOM     15  C   UNL     1       2.798   6.797  18.222  0.00  0.00    +0.000 C 
BRANCH  15  16
ATOM     16  C   UNL     1       4.155   7.238  17.598  0.00  0.00    +0.000 C 
BRANCH  16  18
ATOM     17  C   UNL     1       5.749   5.479  17.048  0.00  0.00    +0.000 C 
ATOM     18  N   UNL     1       4.766   6.428  16.534  0.00  0.00    +0.000 NA
ATOM     19  H   UNL     1       4.014   5.894  16.092  0.00  0.00    +0.000 HD
ENDBRANCH  16  18
ENDBRANCH  15  16
BRANCH  15  20
ATOM     20  C   UNL     1       2.839   5.798  19.426  0.00  0.00    +0.000 C 
BRANCH  20  21
ATOM     21  C   UNL     1       1.828   4.611  19.214  0.00  0.00    +0.000 C 
ATOM     22  C   UNL     1       1.623   4.286  17.725  0.00  0.00    +0.000 C 
ATOM     23  C   UNL     1       2.709   3.367  17.188  0.00  0.00    +0.000 C 
ATOM     24  C   UNL     1       2.619   2.032  17.904  0.00  0.00    +0.000 C 
ATOM     25  C   UNL     1       2.889   2.211  19.393  0.00  0.00    +0.000 C 
ATOM     26  C   UNL     1       2.068   3.329  20.043  0.00  0.00    +0.000 C 
ENDBRANCH  20  21
ENDBRANCH  15  20
ENDBRANCH  13  15
ENDBRANCH  12  13
ENDBRANCH   1  12
BRANCH   1  27
ATOM     27  C   UNL     1      -0.018  10.359  18.504  0.00  0.00    +0.000 C 
BRANCH  27  28
ATOM     28  C   UNL     1      -0.632  10.951  19.748  0.00  0.00    +0.000 A 
ATOM     29  C   UNL     1      -0.075  10.712  21.007  0.00  0.00    +0.000 A 
ATOM     30  C   UNL     1      -0.677  11.225  22.154  0.00  0.00    +0.000 A 
ATOM     31  C   UNL     1      -1.829  12.008  22.067  0.00  0.00    +0.000 A 
ATOM     32  C   UNL     1      -2.477  12.510  23.204  0.00  0.00    +0.000 A 
ATOM     33  C   UNL     1      -3.630  13.290  23.094  0.00  0.00    +0.000 A 
ATOM     34  C   UNL     1      -4.159  13.575  21.836  0.00  0.00    +0.000 A 
ATOM     35  C   UNL     1      -3.545  13.074  20.693  0.00  0.00    +0.000 A 
ATOM     36  C   UNL     1      -2.391  12.281  20.788  0.00  0.00    +0.000 A 
ATOM     37  C   UNL     1      -1.781  11.752  19.645  0.00  0.00    +0.000 A 
ENDBRANCH  27  28
ENDBRANCH   1  27
TORSDOF 12
ENDMDL
