MODEL 1
REMARK VINA RESULT:      -8.4      0.000      0.000
REMARK  Name = 
REMARK  11 active torsions:
REMARK  status: ('A' for Active; 'I' for Inactive)
REMARK    1  A    between atoms: C_1  and  C_2
REMARK    2  A    between atoms: C_2  and  C_3
REMARK    3  A    between atoms: C_2  and  C_4
REMARK    4  A    between atoms: C_2  and  C_5
REMARK    5  A    between atoms: C_5  and  O_6
REMARK    6  A    between atoms: C_5  and  C_7
REMARK    7  A    between atoms: C_16  and  C_17
REMARK    8  A    between atoms: N_19  and  C_20
REMARK    9  A    between atoms: C_20  and  C_21
REMARK   10  A    between atoms: C_27  and  C_28
REMARK   11  A    between atoms: C_28  and  N_29
REMARK                            x       y       z     vdW  Elec       q    Type
REMARK                         _______ _______ _______ _____ _____    ______ ____
ROOT
ATOM      1  C   UNL     1       4.592   5.047  17.955  0.00  0.00    +0.000 C 
ATOM      2  O   UNL     1       4.442   6.254  17.759  0.00  0.00    +0.000 OA
ATOM      3  N   UNL     1       3.678   4.336  18.739  0.00  0.00    +0.000 N 
ATOM      4  C   UNL     1       3.863   2.969  19.252  0.00  0.00    +0.000 C 
ATOM      5  C   UNL     1       2.834   2.013  18.694  0.00  0.00    +0.000 C 
ATOM      6  S   UNL     1       1.207   2.572  19.103  0.00  0.00    +0.000 S 
ATOM      7  O   UNL     1       0.266   1.840  18.271  0.00  0.00    +0.000 OA
ATOM      8  O   UNL     1       1.043   2.592  20.540  0.00  0.00    +0.000 OA
ATOM      9  C   UNL     1       1.242   4.231  18.498  0.00  0.00    +0.000 C 
ATOM     10  C   UNL     1       2.405   5.013  19.089  0.00  0.00    +0.000 C 
ENDROOT
BRANCH  10  11
ATOM     11  C   UNL     1       2.206   5.395  20.579  0.00  0.00    +0.000 C 
ATOM     12  O   UNL     1       2.213   4.564  21.487  0.00  0.00    +0.000 OA
ATOM     13  N   UNL     1       2.024   6.723  20.881  0.00  0.00    +0.000 N 
ATOM     14  H   UNL     1       1.893   6.913  21.868  0.00  0.00    +0.000 HD
BRANCH  13  15
ATOM     15  C   UNL     1       2.106   7.842  19.968  0.00  0.00    +0.000 C 
BRANCH  15  16
ATOM     16  C   UNL     1       1.137   8.949  20.261  0.00  0.00    +0.000 A 
ATOM     17  C   UNL     1       0.683   9.074  21.588  0.00  0.00    +0.000 A 
ATOM     18  C   UNL     1      -0.281  10.017  21.918  0.00  0.00    +0.000 A 
ATOM     19 CL   UNL     1      -0.868  10.106  23.531  0.00  0.00    +0.000 Cl
ATOM     20  C   UNL     1      -0.786  10.866  20.941  0.00  0.00    +0.000 A 
ATOM     21  C   UNL     1      -0.331  10.766  19.623  0.00  0.00    +0.000 A 
ATOM     22  C   UNL     1       0.630   9.806  19.258  0.00  0.00    +0.000 A 
BRANCH  22  23
ATOM     23  C   UNL     1       1.014   9.688  17.795  0.00  0.00    +0.000 C 
BRANCH  23  24
ATOM     24  N   UNL     1       2.122  10.559  17.441  0.00  0.00    +0.000 NA
ATOM     25  H   UNL     1       1.933  11.002  16.542  0.00  0.00    +0.000 HD
ATOM     26  H   UNL     1       2.968  10.003  17.312  0.00  0.00    +0.000 HD
ENDBRANCH  23  24
ENDBRANCH  22  23
ENDBRANCH  15  16
ENDBRANCH  13  15
ENDBRANCH  10  11
BRANCH   1  27
ATOM     27  C   UNL     1       5.738   4.254  17.257  0.00  0.00    +0.000 C 
BRANCH  27  29
ATOM     28  C   UNL     1       7.562   5.361  15.902  0.00  0.00    +0.000 C 
ATOM     29  C   UNL     1       6.140   4.755  15.829  0.00  0.00    +0.000 C 
ATOM     30  C   UNL     1       5.191   5.857  15.316  0.00  0.00    +0.000 C 
ATOM     31  C   UNL     1       6.198   3.606  14.801  0.00  0.00    +0.000 C 
ENDBRANCH  27  29
BRANCH  27  32
ATOM     32  O   UNL     1       6.900   4.184  18.081  0.00  0.00    +0.000 OA
ATOM     33  H   UNL     1       6.834   4.899  18.739  0.00  0.00    +0.000 HD
ENDBRANCH  27  32
ENDBRANCH   1  27
TORSDOF 8
ENDMDL
MODEL 2
REMARK VINA RESULT:      -7.9      0.665      1.136
REMARK  Name = 
REMARK  11 active torsions:
REMARK  status: ('A' for Active; 'I' for Inactive)
REMARK    1  A    between atoms: C_1  and  C_2
REMARK    2  A    between atoms: C_2  and  C_3
REMARK    3  A    between atoms: C_2  and  C_4
REMARK    4  A    between atoms: C_2  and  C_5
REMARK    5  A    between atoms: C_5  and  O_6
REMARK    6  A    between atoms: C_5  and  C_7
REMARK    7  A    between atoms: C_16  and  C_17
REMARK    8  A    between atoms: N_19  and  C_20
REMARK    9  A    between atoms: C_20  and  C_21
REMARK   10  A    between atoms: C_27  and  C_28
REMARK   11  A    between atoms: C_28  and  N_29
REMARK                            x       y       z     vdW  Elec       q    Type
REMARK                         _______ _______ _______ _____ _____    ______ ____
ROOT
ATOM      1  C   UNL     1       4.564   5.506  18.473  0.00  0.00    +0.000 C 
ATOM      2  O   UNL     1       4.237   6.673  18.248  0.00  0.00    +0.000 OA
ATOM      3  N   UNL     1       3.672   4.625  19.090  0.00  0.00    +0.000 N 
ATOM      4  C   UNL     1       4.007   3.298  19.633  0.00  0.00    +0.000 C 
ATOM      5  C   UNL     1       3.275   2.191  18.909  0.00  0.00    +0.000 C 
ATOM      6  S   UNL     1       1.529   2.444  19.028  0.00  0.00    +0.000 S 
ATOM      7  O   UNL     1       0.890   1.580  18.050  0.00  0.00    +0.000 OA
ATOM      8  O   UNL     1       1.122   2.396  20.416  0.00  0.00    +0.000 OA
ATOM      9  C   UNL     1       1.371   4.098  18.432  0.00  0.00    +0.000 C 
ATOM     10  C   UNL     1       2.258   5.057  19.212  0.00  0.00    +0.000 C 
ENDROOT
BRANCH  10  11
ATOM     11  C   UNL     1       1.743   5.357  20.644  0.00  0.00    +0.000 C 
ATOM     12  O   UNL     1       1.465   4.472  21.452  0.00  0.00    +0.000 OA
ATOM     13  N   UNL     1       1.604   6.674  21.011  0.00  0.00    +0.000 N 
ATOM     14  H   UNL     1       1.259   6.810  21.954  0.00  0.00    +0.000 HD
BRANCH  13  15
ATOM     15  C   UNL     1       1.993   7.837  20.244  0.00  0.00    +0.000 C 
BRANCH  15  16
ATOM     16  C   UNL     1       1.070   9.009  20.392  0.00  0.00    +0.000 A 
ATOM     17  C   UNL     1       0.499   9.225  21.660  0.00  0.00    +0.000 A 
ATOM     18  C   UNL     1      -0.434  10.237  21.852  0.00  0.00    +0.000 A 
ATOM     19 CL   UNL     1      -1.167  10.437  23.394  0.00  0.00    +0.000 Cl
ATOM     20  C   UNL     1      -0.790  11.064  20.794  0.00  0.00    +0.000 A 
ATOM     21  C   UNL     1      -0.217  10.873  19.533  0.00  0.00    +0.000 A 
ATOM     22  C   UNL     1       0.715   9.844  19.306  0.00  0.00    +0.000 A 
BRANCH  22  23
ATOM     23  C   UNL     1       1.229   9.633  17.895  0.00  0.00    +0.000 C 
BRANCH  23  24
ATOM     24  N   UNL     1       2.143  10.681  17.476  0.00  0.00    +0.000 NA
ATOM     25  H   UNL     1       1.729  11.592  17.669  0.00  0.00    +0.000 HD
ATOM     26  H   UNL     1       2.277  10.637  16.465  0.00  0.00    +0.000 HD
ENDBRANCH  23  24
ENDBRANCH  22  23
ENDBRANCH  15  16
ENDBRANCH  13  15
ENDBRANCH  10  11
BRANCH   1  27
ATOM     27  C   UNL     1       5.935   4.947  17.986  0.00  0.00    +0.000 C 
BRANCH  27  29
ATOM     28  C   UNL     1       5.354   6.057  15.791  0.00  0.00    +0.000 C 
ATOM     29  C   UNL     1       6.526   5.617  16.700  0.00  0.00    +0.000 C 
ATOM     30  C   UNL     1       7.401   4.639  15.890  0.00  0.00    +0.000 C 
ATOM     31  C   UNL     1       7.340   6.888  17.024  0.00  0.00    +0.000 C 
ENDBRANCH  27  29
BRANCH  27  32
ATOM     32  O   UNL     1       6.909   4.975  19.027  0.00  0.00    +0.000 OA
ATOM     33  H   UNL     1       6.441   5.178  19.857  0.00  0.00    +0.000 HD
ENDBRANCH  27  32
ENDBRANCH   1  27
TORSDOF 8
ENDMDL
MODEL 3
REMARK VINA RESULT:      -7.9      0.941      1.356
REMARK  Name = 
REMARK  11 active torsions:
REMARK  status: ('A' for Active; 'I' for Inactive)
REMARK    1  A    between atoms: C_1  and  C_2
REMARK    2  A    between atoms: C_2  and  C_3
REMARK    3  A    between atoms: C_2  and  C_4
REMARK    4  A    between atoms: C_2  and  C_5
REMARK    5  A    between atoms: C_5  and  O_6
REMARK    6  A    between atoms: C_5  and  C_7
REMARK    7  A    between atoms: C_16  and  C_17
REMARK    8  A    between atoms: N_19  and  C_20
REMARK    9  A    between atoms: C_20  and  C_21
REMARK   10  A    between atoms: C_27  and  C_28
REMARK   11  A    between atoms: C_28  and  N_29
REMARK                            x       y       z     vdW  Elec       q    Type
REMARK                         _______ _______ _______ _____ _____    ______ ____
ROOT
ATOM      1  C   UNL     1       4.221   5.644  17.822  0.00  0.00    +0.000 C 
ATOM      2  O   UNL     1       3.768   6.775  17.637  0.00  0.00    +0.000 OA
ATOM      3  N   UNL     1       3.537   4.729  18.628  0.00  0.00    +0.000 N 
ATOM      4  C   UNL     1       4.074   3.452  19.128  0.00  0.00    +0.000 C 
ATOM      5  C   UNL     1       3.300   2.268  18.594  0.00  0.00    +0.000 C 
ATOM      6  S   UNL     1       1.598   2.403  19.052  0.00  0.00    +0.000 S 
ATOM      7  O   UNL     1       0.846   1.458  18.244  0.00  0.00    +0.000 OA
ATOM      8  O   UNL     1       1.476   2.384  20.494  0.00  0.00    +0.000 OA
ATOM      9  C   UNL     1       1.199   4.017  18.456  0.00  0.00    +0.000 C 
ATOM     10  C   UNL     1       2.147   5.066  19.019  0.00  0.00    +0.000 C 
ENDROOT
BRANCH  10  11
ATOM     11  C   UNL     1       1.902   5.388  20.516  0.00  0.00    +0.000 C 
ATOM     12  O   UNL     1       1.794   4.516  21.377  0.00  0.00    +0.000 OA
ATOM     13  N   UNL     1       1.813   6.710  20.880  0.00  0.00    +0.000 N 
ATOM     14  H   UNL     1       1.647   6.861  21.868  0.00  0.00    +0.000 HD
BRANCH  13  15
ATOM     15  C   UNL     1       2.033   7.863  20.034  0.00  0.00    +0.000 C 
BRANCH  15  16
ATOM     16  C   UNL     1       1.070   8.989  20.264  0.00  0.00    +0.000 A 
ATOM     17  C   UNL     1       0.589   9.169  21.575  0.00  0.00    +0.000 A 
ATOM     18  C   UNL     1      -0.372  10.134  21.848  0.00  0.00    +0.000 A 
ATOM     19 CL   UNL     1      -0.993  10.289  23.443  0.00  0.00    +0.000 Cl
ATOM     20  C   UNL     1      -0.848  10.950  20.828  0.00  0.00    +0.000 A 
ATOM     21  C   UNL     1      -0.365  10.795  19.526  0.00  0.00    +0.000 A 
ATOM     22  C   UNL     1       0.594   9.813  19.218  0.00  0.00    +0.000 A 
BRANCH  22  23
ATOM     23  C   UNL     1       1.007   9.636  17.769  0.00  0.00    +0.000 C 
BRANCH  23  24
ATOM     24  N   UNL     1       2.173  10.430  17.424  0.00  0.00    +0.000 NA
ATOM     25  H   UNL     1       2.729  10.601  18.261  0.00  0.00    +0.000 HD
ATOM     26  H   UNL     1       1.877  11.347  17.087  0.00  0.00    +0.000 HD
ENDBRANCH  23  24
ENDBRANCH  22  23
ENDBRANCH  15  16
ENDBRANCH  13  15
ENDBRANCH  10  11
BRANCH   1  27
ATOM     27  C   UNL     1       5.508   5.163  17.087  0.00  0.00    +0.000 C 
BRANCH  27  29
ATOM     28  C   UNL     1       7.896   4.415  17.443  0.00  0.00    +0.000 C 
ATOM     29  C   UNL     1       6.864   5.517  17.785  0.00  0.00    +0.000 C 
ATOM     30  C   UNL     1       6.727   5.565  19.320  0.00  0.00    +0.000 C 
ATOM     31  C   UNL     1       7.452   6.851  17.279  0.00  0.00    +0.000 C 
ENDBRANCH  27  29
BRANCH  27  32
ATOM     32  O   UNL     1       5.462   3.763  16.819  0.00  0.00    +0.000 OA
ATOM     33  H   UNL     1       4.534   3.532  16.635  0.00  0.00    +0.000 HD
ENDBRANCH  27  32
ENDBRANCH   1  27
TORSDOF 8
ENDMDL
MODEL 4
REMARK VINA RESULT:      -7.7      1.573      2.322
REMARK  Name = 
REMARK  11 active torsions:
REMARK  status: ('A' for Active; 'I' for Inactive)
REMARK    1  A    between atoms: C_1  and  C_2
REMARK    2  A    between atoms: C_2  and  C_3
REMARK    3  A    between atoms: C_2  and  C_4
REMARK    4  A    between atoms: C_2  and  C_5
REMARK    5  A    between atoms: C_5  and  O_6
REMARK    6  A    between atoms: C_5  and  C_7
REMARK    7  A    between atoms: C_16  and  C_17
REMARK    8  A    between atoms: N_19  and  C_20
REMARK    9  A    between atoms: C_20  and  C_21
REMARK   10  A    between atoms: C_27  and  C_28
REMARK   11  A    between atoms: C_28  and  N_29
REMARK                            x       y       z     vdW  Elec       q    Type
REMARK                         _______ _______ _______ _____ _____    ______ ____
ROOT
ATOM      1  C   UNL     1       4.498   5.339  18.026  0.00  0.00    +0.000 C 
ATOM      2  O   UNL     1       4.300   6.533  17.796  0.00  0.00    +0.000 OA
ATOM      3  N   UNL     1       3.592   4.605  18.798  0.00  0.00    +0.000 N 
ATOM      4  C   UNL     1       3.822   3.259  19.348  0.00  0.00    +0.000 C 
ATOM      5  C   UNL     1       2.855   2.245  18.781  0.00  0.00    +0.000 C 
ATOM      6  S   UNL     1       1.192   2.739  19.126  0.00  0.00    +0.000 S 
ATOM      7  O   UNL     1       0.312   1.947  18.284  0.00  0.00    +0.000 OA
ATOM      8  O   UNL     1       0.983   2.783  20.557  0.00  0.00    +0.000 OA
ATOM      9  C   UNL     1       1.173   4.384  18.485  0.00  0.00    +0.000 C 
ATOM     10  C   UNL     1       2.280   5.231  19.093  0.00  0.00    +0.000 C 
ENDROOT
BRANCH  10  11
ATOM     11  C   UNL     1       2.017   5.636  20.567  0.00  0.00    +0.000 C 
ATOM     12  O   UNL     1       2.013   4.823  21.491  0.00  0.00    +0.000 OA
ATOM     13  N   UNL     1       1.789   6.964  20.835  0.00  0.00    +0.000 N 
ATOM     14  H   UNL     1       1.618   7.169  21.812  0.00  0.00    +0.000 HD
BRANCH  13  15
ATOM     15  C   UNL     1       1.874   8.067  19.903  0.00  0.00    +0.000 C 
BRANCH  15  16
ATOM     16  C   UNL     1       0.808   9.106  20.079  0.00  0.00    +0.000 A 
ATOM     17  C   UNL     1       0.127   9.534  18.924  0.00  0.00    +0.000 A 
ATOM     18  C   UNL     1      -0.811  10.556  18.995  0.00  0.00    +0.000 A 
ATOM     19 CL   UNL     1      -1.580  11.106  17.559  0.00  0.00    +0.000 Cl
ATOM     20  C   UNL     1      -1.103  11.148  20.218  0.00  0.00    +0.000 A 
ATOM     21  C   UNL     1      -0.448  10.721  21.376  0.00  0.00    +0.000 A 
ATOM     22  C   UNL     1       0.520   9.701  21.330  0.00  0.00    +0.000 A 
BRANCH  22  23
ATOM     23  C   UNL     1       1.260   9.348  22.606  0.00  0.00    +0.000 C 
BRANCH  23  24
ATOM     24  N   UNL     1       0.458   9.584  23.794  0.00  0.00    +0.000 NA
ATOM     25  H   UNL     1       1.068   9.664  24.606  0.00  0.00    +0.000 HD
ATOM     26  H   UNL     1      -0.144   8.778  23.968  0.00  0.00    +0.000 HD
ENDBRANCH  23  24
ENDBRANCH  22  23
ENDBRANCH  15  16
ENDBRANCH  13  15
ENDBRANCH  10  11
BRANCH   1  27
ATOM     27  C   UNL     1       5.700   4.584  17.381  0.00  0.00    +0.000 C 
BRANCH  27  29
ATOM     28  C   UNL     1       5.330   6.003  15.323  0.00  0.00    +0.000 C 
ATOM     29  C   UNL     1       6.410   5.321  16.196  0.00  0.00    +0.000 C 
ATOM     30  C   UNL     1       7.189   4.343  15.293  0.00  0.00    +0.000 C 
ATOM     31  C   UNL     1       7.358   6.437  16.684  0.00  0.00    +0.000 C 
ENDBRANCH  27  29
BRANCH  27  32
ATOM     32  O   UNL     1       6.668   4.215  18.360  0.00  0.00    +0.000 OA
ATOM     33  H   UNL     1       6.246   3.573  18.959  0.00  0.00    +0.000 HD
ENDBRANCH  27  32
ENDBRANCH   1  27
TORSDOF 8
ENDMDL
MODEL 5
REMARK VINA RESULT:      -7.7      1.080      1.250
REMARK  Name = 
REMARK  11 active torsions:
REMARK  status: ('A' for Active; 'I' for Inactive)
REMARK    1  A    between atoms: C_1  and  C_2
REMARK    2  A    between atoms: C_2  and  C_3
REMARK    3  A    between atoms: C_2  and  C_4
REMARK    4  A    between atoms: C_2  and  C_5
REMARK    5  A    between atoms: C_5  and  O_6
REMARK    6  A    between atoms: C_5  and  C_7
REMARK    7  A    between atoms: C_16  and  C_17
REMARK    8  A    between atoms: N_19  and  C_20
REMARK    9  A    between atoms: C_20  and  C_21
REMARK   10  A    between atoms: C_27  and  C_28
REMARK   11  A    between atoms: C_28  and  N_29
REMARK                            x       y       z     vdW  Elec       q    Type
REMARK                         _______ _______ _______ _____ _____    ______ ____
ROOT
ATOM      1  C   UNL     1       4.423   6.182  17.921  0.00  0.00    +0.000 C 
ATOM      2  O   UNL     1       3.717   7.140  17.601  0.00  0.00    +0.000 OA
ATOM      3  N   UNL     1       3.943   5.212  18.806  0.00  0.00    +0.000 N 
ATOM      4  C   UNL     1       4.749   4.165  19.457  0.00  0.00    +0.000 C 
ATOM      5  C   UNL     1       4.317   2.778  19.037  0.00  0.00    +0.000 C 
ATOM      6  S   UNL     1       2.611   2.531  19.435  0.00  0.00    +0.000 S 
ATOM      7  O   UNL     1       2.157   1.352  18.717  0.00  0.00    +0.000 OA
ATOM      8  O   UNL     1       2.424   2.628  20.866  0.00  0.00    +0.000 OA
ATOM      9  C   UNL     1       1.862   3.927  18.655  0.00  0.00    +0.000 C 
ATOM     10  C   UNL     1       2.494   5.230  19.121  0.00  0.00    +0.000 C 
ENDROOT
BRANCH  10  11
ATOM     11  C   UNL     1       2.100   5.630  20.567  0.00  0.00    +0.000 C 
ATOM     12  O   UNL     1       2.071   4.826  21.498  0.00  0.00    +0.000 OA
ATOM     13  N   UNL     1       1.782   6.946  20.803  0.00  0.00    +0.000 N 
ATOM     14  H   UNL     1       1.527   7.148  21.762  0.00  0.00    +0.000 HD
BRANCH  13  15
ATOM     15  C   UNL     1       1.876   8.045  19.867  0.00  0.00    +0.000 C 
BRANCH  15  16
ATOM     16  C   UNL     1       0.976   9.202  20.183  0.00  0.00    +0.000 A 
ATOM     17  C   UNL     1       0.472   9.288  21.494  0.00  0.00    +0.000 A 
ATOM     18  C   UNL     1      -0.437  10.281  21.838  0.00  0.00    +0.000 A 
ATOM     19 CL   UNL     1      -1.089  10.325  23.428  0.00  0.00    +0.000 Cl
ATOM     20  C   UNL     1      -0.837  11.215  20.890  0.00  0.00    +0.000 A 
ATOM     21  C   UNL     1      -0.331  11.154  19.589  0.00  0.00    +0.000 A 
ATOM     22  C   UNL     1       0.576  10.147  19.209  0.00  0.00    +0.000 A 
BRANCH  22  23
ATOM     23  C   UNL     1       1.016  10.081  17.760  0.00  0.00    +0.000 C 
BRANCH  23  24
ATOM     24  N   UNL     1       2.250  10.809  17.521  0.00  0.00    +0.000 NA
ATOM     25  H   UNL     1       3.014  10.149  17.382  0.00  0.00    +0.000 HD
ATOM     26  H   UNL     1       2.493  11.356  18.347  0.00  0.00    +0.000 HD
ENDBRANCH  23  24
ENDBRANCH  22  23
ENDBRANCH  15  16
ENDBRANCH  13  15
ENDBRANCH  10  11
BRANCH   1  27
ATOM     27  C   UNL     1       5.825   5.964  17.276  0.00  0.00    +0.000 C 
BRANCH  27  29
ATOM     28  C   UNL     1       5.382   6.230  14.802  0.00  0.00    +0.000 C 
ATOM     29  C   UNL     1       5.832   5.229  15.893  0.00  0.00    +0.000 C 
ATOM     30  C   UNL     1       4.849   4.041  15.867  0.00  0.00    +0.000 C 
ATOM     31  C   UNL     1       7.241   4.741  15.497  0.00  0.00    +0.000 C 
ENDBRANCH  27  29
BRANCH  27  32
ATOM     32  O   UNL     1       6.544   7.190  17.167  0.00  0.00    +0.000 OA
ATOM     33  H   UNL     1       5.958   7.901  17.483  0.00  0.00    +0.000 HD
ENDBRANCH  27  32
ENDBRANCH   1  27
TORSDOF 8
ENDMDL
MODEL 6
REMARK VINA RESULT:      -7.6      4.500      8.208
REMARK  Name = 
REMARK  11 active torsions:
REMARK  status: ('A' for Active; 'I' for Inactive)
REMARK    1  A    between atoms: C_1  and  C_2
REMARK    2  A    between atoms: C_2  and  C_3
REMARK    3  A    between atoms: C_2  and  C_4
REMARK    4  A    between atoms: C_2  and  C_5
REMARK    5  A    between atoms: C_5  and  O_6
REMARK    6  A    between atoms: C_5  and  C_7
REMARK    7  A    between atoms: C_16  and  C_17
REMARK    8  A    between atoms: N_19  and  C_20
REMARK    9  A    between atoms: C_20  and  C_21
REMARK   10  A    between atoms: C_27  and  C_28
REMARK   11  A    between atoms: C_28  and  N_29
REMARK                            x       y       z     vdW  Elec       q    Type
REMARK                         _______ _______ _______ _____ _____    ______ ____
ROOT
ATOM      1  C   UNL     1      -0.875  10.382  18.062  0.00  0.00    +0.000 C 
ATOM      2  O   UNL     1      -0.060   9.616  17.544  0.00  0.00    +0.000 OA
ATOM      3  N   UNL     1      -0.835  10.638  19.435  0.00  0.00    +0.000 N 
ATOM      4  C   UNL     1      -1.879  11.324  20.215  0.00  0.00    +0.000 C 
ATOM      5  C   UNL     1      -1.374  12.614  20.821  0.00  0.00    +0.000 C 
ATOM      6  S   UNL     1       0.013  12.287  21.867  0.00  0.00    +0.000 S 
ATOM      7  O   UNL     1       0.668  13.555  22.142  0.00  0.00    +0.000 OA
ATOM      8  O   UNL     1      -0.390  11.426  22.958  0.00  0.00    +0.000 OA
ATOM      9  C   UNL     1       1.072  11.388  20.777  0.00  0.00    +0.000 C 
ATOM     10  C   UNL     1       0.362  10.181  20.182  0.00  0.00    +0.000 C 
ENDROOT
BRANCH  10  11
ATOM     11  C   UNL     1       0.154   9.021  21.190  0.00  0.00    +0.000 C 
ATOM     12  O   UNL     1      -0.752   9.014  22.022  0.00  0.00    +0.000 OA
ATOM     13  N   UNL     1       1.023   7.958  21.131  0.00  0.00    +0.000 N 
ATOM     14  H   UNL     1       0.844   7.233  21.815  0.00  0.00    +0.000 HD
BRANCH  13  15
ATOM     15  C   UNL     1       2.064   7.739  20.150  0.00  0.00    +0.000 C 
BRANCH  15  16
ATOM     16  C   UNL     1       2.271   6.299  19.784  0.00  0.00    +0.000 A 
ATOM     17  C   UNL     1       1.766   5.329  20.670  0.00  0.00    +0.000 A 
ATOM     18  C   UNL     1       1.997   3.978  20.443  0.00  0.00    +0.000 A 
ATOM     19 CL   UNL     1       1.428   2.816  21.575  0.00  0.00    +0.000 Cl
ATOM     20  C   UNL     1       2.708   3.573  19.320  0.00  0.00    +0.000 A 
ATOM     21  C   UNL     1       3.198   4.524  18.422  0.00  0.00    +0.000 A 
ATOM     22  C   UNL     1       2.997   5.899  18.637  0.00  0.00    +0.000 A 
BRANCH  22  23
ATOM     23  C   UNL     1       3.634   6.883  17.675  0.00  0.00    +0.000 C 
BRANCH  23  24
ATOM     24  N   UNL     1       5.044   6.612  17.459  0.00  0.00    +0.000 NA
ATOM     25  H   UNL     1       5.300   6.872  16.507  0.00  0.00    +0.000 HD
ATOM     26  H   UNL     1       5.218   5.610  17.537  0.00  0.00    +0.000 HD
ENDBRANCH  23  24
ENDBRANCH  22  23
ENDBRANCH  15  16
ENDBRANCH  13  15
ENDBRANCH  10  11
BRANCH   1  27
ATOM     27  C   UNL     1      -1.905  11.167  17.194  0.00  0.00    +0.000 C 
BRANCH  27  29
ATOM     28  C   UNL     1      -4.377  11.348  16.699  0.00  0.00    +0.000 C 
ATOM     29  C   UNL     1      -3.180  10.368  16.761  0.00  0.00    +0.000 C 
ATOM     30  C   UNL     1      -3.538   9.261  17.773  0.00  0.00    +0.000 C 
ATOM     31  C   UNL     1      -3.035   9.752  15.354  0.00  0.00    +0.000 C 
ENDBRANCH  27  29
BRANCH  27  32
ATOM     32  O   UNL     1      -2.297  12.384  17.825  0.00  0.00    +0.000 OA
ATOM     33  H   UNL     1      -2.107  12.293  18.776  0.00  0.00    +0.000 HD
ENDBRANCH  27  32
ENDBRANCH   1  27
TORSDOF 8
ENDMDL
MODEL 7
REMARK VINA RESULT:      -7.6      1.117      1.529
REMARK  Name = 
REMARK  11 active torsions:
REMARK  status: ('A' for Active; 'I' for Inactive)
REMARK    1  A    between atoms: C_1  and  C_2
REMARK    2  A    between atoms: C_2  and  C_3
REMARK    3  A    between atoms: C_2  and  C_4
REMARK    4  A    between atoms: C_2  and  C_5
REMARK    5  A    between atoms: C_5  and  O_6
REMARK    6  A    between atoms: C_5  and  C_7
REMARK    7  A    between atoms: C_16  and  C_17
REMARK    8  A    between atoms: N_19  and  C_20
REMARK    9  A    between atoms: C_20  and  C_21
REMARK   10  A    between atoms: C_27  and  C_28
REMARK   11  A    between atoms: C_28  and  N_29
REMARK                            x       y       z     vdW  Elec       q    Type
REMARK                         _______ _______ _______ _____ _____    ______ ____
ROOT
ATOM      1  C   UNL     1       4.358   5.640  17.790  0.00  0.00    +0.000 C 
ATOM      2  O   UNL     1       3.904   6.743  17.479  0.00  0.00    +0.000 OA
ATOM      3  N   UNL     1       3.670   4.816  18.685  0.00  0.00    +0.000 N 
ATOM      4  C   UNL     1       4.204   3.603  19.326  0.00  0.00    +0.000 C 
ATOM      5  C   UNL     1       3.438   2.365  18.917  0.00  0.00    +0.000 C 
ATOM      6  S   UNL     1       1.732   2.544  19.343  0.00  0.00    +0.000 S 
ATOM      7  O   UNL     1       0.990   1.514  18.637  0.00  0.00    +0.000 OA
ATOM      8  O   UNL     1       1.598   2.682  20.778  0.00  0.00    +0.000 OA
ATOM      9  C   UNL     1       1.335   4.082  18.572  0.00  0.00    +0.000 C 
ATOM     10  C   UNL     1       2.274   5.189  19.024  0.00  0.00    +0.000 C 
ENDROOT
BRANCH  10  11
ATOM     11  C   UNL     1       2.016   5.672  20.475  0.00  0.00    +0.000 C 
ATOM     12  O   UNL     1       2.083   4.923  21.449  0.00  0.00    +0.000 OA
ATOM     13  N   UNL     1       1.707   6.998  20.664  0.00  0.00    +0.000 N 
ATOM     14  H   UNL     1       1.542   7.255  21.629  0.00  0.00    +0.000 HD
BRANCH  13  15
ATOM     15  C   UNL     1       1.701   8.040  19.661  0.00  0.00    +0.000 C 
BRANCH  15  16
ATOM     16  C   UNL     1       1.145   9.349  20.137  0.00  0.00    +0.000 A 
ATOM     17  C   UNL     1       0.425   9.343  21.347  0.00  0.00    +0.000 A 
ATOM     18  C   UNL     1      -0.194  10.498  21.806  0.00  0.00    +0.000 A 
ATOM     19 CL   UNL     1      -1.123  10.449  23.251  0.00  0.00    +0.000 Cl
ATOM     20  C   UNL     1      -0.084  11.680  21.084  0.00  0.00    +0.000 A 
ATOM     21  C   UNL     1       0.643  11.706  19.891  0.00  0.00    +0.000 A 
ATOM     22  C   UNL     1       1.264  10.546  19.392  0.00  0.00    +0.000 A 
BRANCH  22  23
ATOM     23  C   UNL     1       1.959  10.620  18.047  0.00  0.00    +0.000 C 
BRANCH  23  24
ATOM     24  N   UNL     1       2.253  11.985  17.648  0.00  0.00    +0.000 NA
ATOM     25  H   UNL     1       2.639  11.990  16.705  0.00  0.00    +0.000 HD
ATOM     26  H   UNL     1       2.977  12.373  18.254  0.00  0.00    +0.000 HD
ENDBRANCH  23  24
ENDBRANCH  22  23
ENDBRANCH  15  16
ENDBRANCH  13  15
ENDBRANCH  10  11
BRANCH   1  27
ATOM     27  C   UNL     1       5.653   5.086  17.123  0.00  0.00    +0.000 C 
BRANCH  27  29
ATOM     28  C   UNL     1       7.517   6.786  17.268  0.00  0.00    +0.000 C 
ATOM     29  C   UNL     1       6.997   5.446  17.841  0.00  0.00    +0.000 C 
ATOM     30  C   UNL     1       8.085   4.382  17.595  0.00  0.00    +0.000 C 
ATOM     31  C   UNL     1       6.812   5.652  19.359  0.00  0.00    +0.000 C 
ENDBRANCH  27  29
BRANCH  27  32
ATOM     32  O   UNL     1       5.578   3.675  16.933  0.00  0.00    +0.000 OA
ATOM     33  H   UNL     1       5.875   3.487  16.025  0.00  0.00    +0.000 HD
ENDBRANCH  27  32
ENDBRANCH   1  27
TORSDOF 8
ENDMDL
MODEL 8
REMARK VINA RESULT:      -7.5      1.854      2.453
REMARK  Name = 
REMARK  11 active torsions:
REMARK  status: ('A' for Active; 'I' for Inactive)
REMARK    1  A    between atoms: C_1  and  C_2
REMARK    2  A    between atoms: C_2  and  C_3
REMARK    3  A    between atoms: C_2  and  C_4
REMARK    4  A    between atoms: C_2  and  C_5
REMARK    5  A    between atoms: C_5  and  O_6
REMARK    6  A    between atoms: C_5  and  C_7
REMARK    7  A    between atoms: C_16  and  C_17
REMARK    8  A    between atoms: N_19  and  C_20
REMARK    9  A    between atoms: C_20  and  C_21
REMARK   10  A    between atoms: C_27  and  C_28
REMARK   11  A    between atoms: C_28  and  N_29
REMARK                            x       y       z     vdW  Elec       q    Type
REMARK                         _______ _______ _______ _____ _____    ______ ____
ROOT
ATOM      1  C   UNL     1       4.822   6.030  17.872  0.00  0.00    +0.000 C 
ATOM      2  O   UNL     1       4.522   7.182  17.555  0.00  0.00    +0.000 OA
ATOM      3  N   UNL     1       3.941   5.248  18.623  0.00  0.00    +0.000 N 
ATOM      4  C   UNL     1       4.264   3.966  19.271  0.00  0.00    +0.000 C 
ATOM      5  C   UNL     1       3.451   2.825  18.702  0.00  0.00    +0.000 C 
ATOM      6  S   UNL     1       1.725   3.158  18.899  0.00  0.00    +0.000 S 
ATOM      7  O   UNL     1       0.998   2.232  18.048  0.00  0.00    +0.000 OA
ATOM      8  O   UNL     1       1.403   3.258  20.306  0.00  0.00    +0.000 OA
ATOM      9  C   UNL     1       1.587   4.754  18.155  0.00  0.00    +0.000 C 
ATOM     10  C   UNL     1       2.553   5.746  18.785  0.00  0.00    +0.000 C 
ENDROOT
BRANCH  10  11
ATOM     11  C   UNL     1       2.138   6.201  20.209  0.00  0.00    +0.000 C 
ATOM     12  O   UNL     1       2.134   5.442  21.177  0.00  0.00    +0.000 OA
ATOM     13  N   UNL     1       1.770   7.514  20.379  0.00  0.00    +0.000 N 
ATOM     14  H   UNL     1       1.504   7.753  21.327  0.00  0.00    +0.000 HD
BRANCH  13  15
ATOM     15  C   UNL     1       1.829   8.569  19.392  0.00  0.00    +0.000 C 
BRANCH  15  16
ATOM     16  C   UNL     1       0.612   9.445  19.353  0.00  0.00    +0.000 A 
ATOM     17  C   UNL     1      -0.130   9.463  18.157  0.00  0.00    +0.000 A 
ATOM     18  C   UNL     1      -1.218  10.316  18.014  0.00  0.00    +0.000 A 
ATOM     19 CL   UNL     1      -2.067  10.369  16.521  0.00  0.00    +0.000 Cl
ATOM     20  C   UNL     1      -1.597  11.140  19.066  0.00  0.00    +0.000 A 
ATOM     21  C   UNL     1      -0.881  11.119  20.266  0.00  0.00    +0.000 A 
ATOM     22  C   UNL     1       0.236  10.279  20.430  0.00  0.00    +0.000 A 
BRANCH  22  23
ATOM     23  C   UNL     1       1.024  10.371  21.723  0.00  0.00    +0.000 C 
BRANCH  23  24
ATOM     24  N   UNL     1       0.197  10.142  22.894  0.00  0.00    +0.000 NA
ATOM     25  H   UNL     1       0.628   9.431  23.483  0.00  0.00    +0.000 HD
ATOM     26  H   UNL     1      -0.708   9.766  22.609  0.00  0.00    +0.000 HD
ENDBRANCH  23  24
ENDBRANCH  22  23
ENDBRANCH  15  16
ENDBRANCH  13  15
ENDBRANCH  10  11
BRANCH   1  27
ATOM     27  C   UNL     1       6.141   5.373  17.362  0.00  0.00    +0.000 C 
BRANCH  27  29
ATOM     28  C   UNL     1       5.604   3.494  15.760  0.00  0.00    +0.000 C 
ATOM     29  C   UNL     1       6.148   4.939  15.858  0.00  0.00    +0.000 C 
ATOM     30  C   UNL     1       7.571   4.942  15.264  0.00  0.00    +0.000 C 
ATOM     31  C   UNL     1       5.226   5.821  14.990  0.00  0.00    +0.000 C 
ENDBRANCH  27  29
BRANCH  27  32
ATOM     32  O   UNL     1       7.271   6.203  17.623  0.00  0.00    +0.000 OA
ATOM     33  H   UNL     1       8.067   5.689  17.397  0.00  0.00    +0.000 HD
ENDBRANCH  27  32
ENDBRANCH   1  27
TORSDOF 8
ENDMDL
MODEL 9
REMARK VINA RESULT:      -7.4      2.250      2.735
REMARK  Name = 
REMARK  11 active torsions:
REMARK  status: ('A' for Active; 'I' for Inactive)
REMARK    1  A    between atoms: C_1  and  C_2
REMARK    2  A    between atoms: C_2  and  C_3
REMARK    3  A    between atoms: C_2  and  C_4
REMARK    4  A    between atoms: C_2  and  C_5
REMARK    5  A    between atoms: C_5  and  O_6
REMARK    6  A    between atoms: C_5  and  C_7
REMARK    7  A    between atoms: C_16  and  C_17
REMARK    8  A    between atoms: N_19  and  C_20
REMARK    9  A    between atoms: C_20  and  C_21
REMARK   10  A    between atoms: C_27  and  C_28
REMARK   11  A    between atoms: C_28  and  N_29
REMARK                            x       y       z     vdW  Elec       q    Type
REMARK                         _______ _______ _______ _____ _____    ______ ____
ROOT
ATOM      1  C   UNL     1       4.491   6.636  17.638  0.00  0.00    +0.000 C 
ATOM      2  O   UNL     1       3.975   7.555  16.999  0.00  0.00    +0.000 OA
ATOM      3  N   UNL     1       3.796   6.022  18.684  0.00  0.00    +0.000 N 
ATOM      4  C   UNL     1       4.371   5.097  19.674  0.00  0.00    +0.000 C 
ATOM      5  C   UNL     1       3.754   3.719  19.585  0.00  0.00    +0.000 C 
ATOM      6  S   UNL     1       2.006   3.824  19.833  0.00  0.00    +0.000 S 
ATOM      7  O   UNL     1       1.423   2.565  19.401  0.00  0.00    +0.000 OA
ATOM      8  O   UNL     1       1.731   4.336  21.158  0.00  0.00    +0.000 OA
ATOM      9  C   UNL     1       1.553   5.038  18.634  0.00  0.00    +0.000 C 
ATOM     10  C   UNL     1       2.349   6.322  18.813  0.00  0.00    +0.000 C 
ENDROOT
BRANCH  10  11
ATOM     11  C   UNL     1       1.919   7.155  20.049  0.00  0.00    +0.000 C 
ATOM     12  O   UNL     1       1.971   6.719  21.198  0.00  0.00    +0.000 OA
ATOM     13  N   UNL     1       1.470   8.435  19.833  0.00  0.00    +0.000 N 
ATOM     14  H   UNL     1       1.197   8.929  20.674  0.00  0.00    +0.000 HD
BRANCH  13  15
ATOM     15  C   UNL     1       1.453   9.151  18.576  0.00  0.00    +0.000 C 
BRANCH  15  16
ATOM     16  C   UNL     1       0.254  10.030  18.383  0.00  0.00    +0.000 A 
ATOM     17  C   UNL     1      -0.762   9.558  17.531  0.00  0.00    +0.000 A 
ATOM     18  C   UNL     1      -1.862  10.353  17.234  0.00  0.00    +0.000 A 
ATOM     19 CL   UNL     1      -3.055   9.780  16.138  0.00  0.00    +0.000 Cl
ATOM     20  C   UNL     1      -1.979  11.617  17.800  0.00  0.00    +0.000 A 
ATOM     21  C   UNL     1      -0.987  12.091  18.663  0.00  0.00    +0.000 A 
ATOM     22  C   UNL     1       0.146  11.314  18.966  0.00  0.00    +0.000 A 
BRANCH  22  23
ATOM     23  C   UNL     1       1.229  11.924  19.834  0.00  0.00    +0.000 C 
BRANCH  23  24
ATOM     24  N   UNL     1       1.159  11.466  21.211  0.00  0.00    +0.000 NA
ATOM     25  H   UNL     1       2.083  11.525  21.638  0.00  0.00    +0.000 HD
ATOM     26  H   UNL     1       0.898  10.479  21.232  0.00  0.00    +0.000 HD
ENDBRANCH  23  24
ENDBRANCH  22  23
ENDBRANCH  15  16
ENDBRANCH  13  15
ENDBRANCH  10  11
BRANCH   1  27
ATOM     27  C   UNL     1       5.884   6.062  17.239  0.00  0.00    +0.000 C 
BRANCH  27  29
ATOM     28  C   UNL     1       7.265   4.320  16.037  0.00  0.00    +0.000 C 
ATOM     29  C   UNL     1       5.879   5.006  16.082  0.00  0.00    +0.000 C 
ATOM     30  C   UNL     1       5.639   5.660  14.706  0.00  0.00    +0.000 C 
ATOM     31  C   UNL     1       4.837   3.892  16.311  0.00  0.00    +0.000 C 
ENDBRANCH  27  29
BRANCH  27  32
ATOM     32  O   UNL     1       6.808   7.102  16.930  0.00  0.00    +0.000 OA
ATOM     33  H   UNL     1       6.484   7.916  17.358  0.00  0.00    +0.000 HD
ENDBRANCH  27  32
ENDBRANCH   1  27
TORSDOF 8
ENDMDL
