MODEL 1
REMARK VINA RESULT:      -8.0      0.000      0.000
REMARK  Name = 
REMARK  4 active torsions:
REMARK  status: ('A' for Active; 'I' for Inactive)
REMARK    1  A    between atoms: C_1  and  O_2
REMARK    2  A    between atoms: O_2  and  C_3
REMARK    3  A    between atoms: C_6  and  C_7
REMARK    4  A    between atoms: C_9  and  C_10
REMARK                            x       y       z     vdW  Elec       q    Type
REMARK                         _______ _______ _______ _____ _____    ______ ____
ROOT
ATOM      1  C   UNL     1       1.407   9.003  19.565  0.00  0.00    +0.000 A 
ATOM      2  N   UNL     1       2.038   7.848  19.562  0.00  0.00    +0.000 NA
ATOM      3  C   UNL     1       2.501   7.762  18.263  0.00  0.00    +0.000 A 
ATOM      4  N   UNL     1       2.178   8.819  17.500  0.00  0.00    +0.000 NA
ATOM      5  O   UNL     1       1.455   9.637  18.357  0.00  0.00    +0.000 OA
ENDROOT
BRANCH   3   6
ATOM      6  C   UNL     1       3.248   6.613  17.762  0.00  0.00    +0.000 A 
ATOM      7  C   UNL     1       2.753   5.312  17.940  0.00  0.00    +0.000 A 
ATOM      8  C   UNL     1       3.463   4.188  17.508  0.00  0.00    +0.000 A 
ATOM      9  C   UNL     1       4.698   4.406  16.892  0.00  0.00    +0.000 A 
ATOM     10  N   UNL     1       5.611   3.505  16.394  0.00  0.00    +0.000 N 
ATOM     11  C   UNL     1       6.697   4.167  15.884  0.00  0.00    +0.000 A 
ATOM     12  C   UNL     1       6.481   5.516  16.044  0.00  0.00    +0.000 A 
ATOM     13  C   UNL     1       5.222   5.681  16.685  0.00  0.00    +0.000 A 
ATOM     14  C   UNL     1       4.483   6.800  17.118  0.00  0.00    +0.000 A 
ATOM     15  H   UNL     1       5.496   2.501  16.414  0.00  0.00    +0.000 HD
ENDBRANCH   3   6
BRANCH   1  19
ATOM     16  C   UNL     1      -0.724  11.028  22.674  0.00  0.00    +0.000 A 
ATOM     17  C   UNL     1      -0.390  11.695  21.494  0.00  0.00    +0.000 A 
ATOM     18  C   UNL     1       0.307  11.035  20.476  0.00  0.00    +0.000 A 
ATOM     19  C   UNL     1       0.694   9.697  20.631  0.00  0.00    +0.000 A 
ATOM     20  C   UNL     1       0.379   9.048  21.835  0.00  0.00    +0.000 A 
ATOM     21  C   UNL     1      -0.323   9.706  22.848  0.00  0.00    +0.000 A 
BRANCH  16  23
ATOM     22  C   UNL     1      -2.774  12.034  23.277  0.00  0.00    +0.000 C 
ATOM     23  O   UNL     1      -1.412  11.766  23.597  0.00  0.00    +0.000 OA
ENDBRANCH  16  23
ENDBRANCH   1  19
TORSDOF 3
ENDMDL
MODEL 2
REMARK VINA RESULT:      -7.9      0.257      1.040
REMARK  Name = 
REMARK  4 active torsions:
REMARK  status: ('A' for Active; 'I' for Inactive)
REMARK    1  A    between atoms: C_1  and  O_2
REMARK    2  A    between atoms: O_2  and  C_3
REMARK    3  A    between atoms: C_6  and  C_7
REMARK    4  A    between atoms: C_9  and  C_10
REMARK                            x       y       z     vdW  Elec       q    Type
REMARK                         _______ _______ _______ _____ _____    ______ ____
ROOT
ATOM      1  C   UNL     1       1.279   9.083  19.513  0.00  0.00    +0.000 A 
ATOM      2  N   UNL     1       1.902   7.924  19.536  0.00  0.00    +0.000 NA
ATOM      3  C   UNL     1       2.464   7.859  18.277  0.00  0.00    +0.000 A 
ATOM      4  N   UNL     1       2.208   8.933  17.511  0.00  0.00    +0.000 NA
ATOM      5  O   UNL     1       1.425   9.739  18.325  0.00  0.00    +0.000 OA
ENDROOT
BRANCH   3   6
ATOM      6  C   UNL     1       3.241   6.715  17.813  0.00  0.00    +0.000 A 
ATOM      7  C   UNL     1       2.771   5.408  18.014  0.00  0.00    +0.000 A 
ATOM      8  C   UNL     1       3.510   4.289  17.619  0.00  0.00    +0.000 A 
ATOM      9  C   UNL     1       4.749   4.519  17.015  0.00  0.00    +0.000 A 
ATOM     10  N   UNL     1       5.687   3.626  16.550  0.00  0.00    +0.000 N 
ATOM     11  C   UNL     1       6.766   4.298  16.040  0.00  0.00    +0.000 A 
ATOM     12  C   UNL     1       6.520   5.646  16.165  0.00  0.00    +0.000 A 
ATOM     13  C   UNL     1       5.250   5.800  16.785  0.00  0.00    +0.000 A 
ATOM     14  C   UNL     1       4.482   6.913  17.182  0.00  0.00    +0.000 A 
ATOM     15  H   UNL     1       5.592   2.621  16.592  0.00  0.00    +0.000 HD
ENDBRANCH   3   6
BRANCH   1  19
ATOM     16  C   UNL     1      -1.003  11.095  22.522  0.00  0.00    +0.000 A 
ATOM     17  C   UNL     1      -0.342   9.901  22.815  0.00  0.00    +0.000 A 
ATOM     18  C   UNL     1       0.405   9.241  21.832  0.00  0.00    +0.000 A 
ATOM     19  C   UNL     1       0.489   9.762  20.534  0.00  0.00    +0.000 A 
ATOM     20  C   UNL     1      -0.206  10.946  20.245  0.00  0.00    +0.000 A 
ATOM     21  C   UNL     1      -0.946  11.608  21.228  0.00  0.00    +0.000 A 
BRANCH  16  23
ATOM     22  C   UNL     1      -2.968  12.202  23.221  0.00  0.00    +0.000 C 
ATOM     23  O   UNL     1      -1.696  11.658  23.558  0.00  0.00    +0.000 OA
ENDBRANCH  16  23
ENDBRANCH   1  19
TORSDOF 3
ENDMDL
MODEL 3
REMARK VINA RESULT:      -7.8      2.626      8.859
REMARK  Name = 
REMARK  4 active torsions:
REMARK  status: ('A' for Active; 'I' for Inactive)
REMARK    1  A    between atoms: C_1  and  O_2
REMARK    2  A    between atoms: O_2  and  C_3
REMARK    3  A    between atoms: C_6  and  C_7
REMARK    4  A    between atoms: C_9  and  C_10
REMARK                            x       y       z     vdW  Elec       q    Type
REMARK                         _______ _______ _______ _____ _____    ______ ____
ROOT
ATOM      1  C   UNL     1       3.435   6.217  18.236  0.00  0.00    +0.000 A 
ATOM      2  N   UNL     1       2.844   7.390  18.309  0.00  0.00    +0.000 NA
ATOM      3  C   UNL     1       2.216   7.334  19.538  0.00  0.00    +0.000 A 
ATOM      4  N   UNL     1       2.417   6.182  20.198  0.00  0.00    +0.000 NA
ATOM      5  O   UNL     1       3.219   5.444  19.340  0.00  0.00    +0.000 OA
ENDROOT
BRANCH   3   6
ATOM      6  C   UNL     1       1.389   8.418  20.056  0.00  0.00    +0.000 A 
ATOM      7  C   UNL     1       1.085   9.527  19.250  0.00  0.00    +0.000 A 
ATOM      8  C   UNL     1       0.329  10.601  19.730  0.00  0.00    +0.000 A 
ATOM      9  C   UNL     1      -0.114  10.535  21.053  0.00  0.00    +0.000 A 
ATOM     10  N   UNL     1      -0.846  11.439  21.789  0.00  0.00    +0.000 N 
ATOM     11  C   UNL     1      -1.044  10.963  23.058  0.00  0.00    +0.000 A 
ATOM     12  C   UNL     1      -0.442   9.729  23.144  0.00  0.00    +0.000 A 
ATOM     13  C   UNL     1       0.155   9.448  21.885  0.00  0.00    +0.000 A 
ATOM     14  C   UNL     1       0.909   8.372  21.376  0.00  0.00    +0.000 A 
ATOM     15  H   UNL     1      -1.177  12.327  21.440  0.00  0.00    +0.000 HD
ENDBRANCH   3   6
BRANCH   1  19
ATOM     16  C   UNL     1       5.926   4.513  15.201  0.00  0.00    +0.000 A 
ATOM     17  C   UNL     1       5.730   5.894  15.264  0.00  0.00    +0.000 A 
ATOM     18  C   UNL     1       4.916   6.453  16.256  0.00  0.00    +0.000 A 
ATOM     19  C   UNL     1       4.272   5.634  17.192  0.00  0.00    +0.000 A 
ATOM     20  C   UNL     1       4.452   4.246  17.098  0.00  0.00    +0.000 A 
ATOM     21  C   UNL     1       5.270   3.688  16.112  0.00  0.00    +0.000 A 
BRANCH  16  23
ATOM     22  C   UNL     1       6.087   3.636  13.014  0.00  0.00    +0.000 C 
ATOM     23  O   UNL     1       6.746   4.077  14.197  0.00  0.00    +0.000 OA
ENDBRANCH  16  23
ENDBRANCH   1  19
TORSDOF 3
ENDMDL
MODEL 4
REMARK VINA RESULT:      -7.7      2.594      8.900
REMARK  Name = 
REMARK  4 active torsions:
REMARK  status: ('A' for Active; 'I' for Inactive)
REMARK    1  A    between atoms: C_1  and  O_2
REMARK    2  A    between atoms: O_2  and  C_3
REMARK    3  A    between atoms: C_6  and  C_7
REMARK    4  A    between atoms: C_9  and  C_10
REMARK                            x       y       z     vdW  Elec       q    Type
REMARK                         _______ _______ _______ _____ _____    ______ ____
ROOT
ATOM      1  C   UNL     1       3.317   6.333  18.321  0.00  0.00    +0.000 A 
ATOM      2  N   UNL     1       2.775   7.529  18.395  0.00  0.00    +0.000 NA
ATOM      3  C   UNL     1       2.069   7.467  19.581  0.00  0.00    +0.000 A 
ATOM      4  N   UNL     1       2.178   6.288  20.216  0.00  0.00    +0.000 NA
ATOM      5  O   UNL     1       2.998   5.540  19.385  0.00  0.00    +0.000 OA
ENDROOT
BRANCH   3   6
ATOM      6  C   UNL     1       1.259   8.573  20.080  0.00  0.00    +0.000 A 
ATOM      7  C   UNL     1       1.000   9.687  19.268  0.00  0.00    +0.000 A 
ATOM      8  C   UNL     1       0.262  10.781  19.730  0.00  0.00    +0.000 A 
ATOM      9  C   UNL     1      -0.209  10.729  21.044  0.00  0.00    +0.000 A 
ATOM     10  N   UNL     1      -0.932  11.652  21.765  0.00  0.00    +0.000 N 
ATOM     11  C   UNL     1      -1.168  11.184  23.030  0.00  0.00    +0.000 A 
ATOM     12  C   UNL     1      -0.599   9.935  23.130  0.00  0.00    +0.000 A 
ATOM     13  C   UNL     1       0.016   9.637  21.883  0.00  0.00    +0.000 A 
ATOM     14  C   UNL     1       0.752   8.541  21.391  0.00  0.00    +0.000 A 
ATOM     15  H   UNL     1      -1.234  12.548  21.408  0.00  0.00    +0.000 HD
ENDBRANCH   3   6
BRANCH   1  19
ATOM     16  C   UNL     1       5.845   4.598  15.336  0.00  0.00    +0.000 A 
ATOM     17  C   UNL     1       5.138   3.786  16.224  0.00  0.00    +0.000 A 
ATOM     18  C   UNL     1       4.310   4.351  17.201  0.00  0.00    +0.000 A 
ATOM     19  C   UNL     1       4.191   5.743  17.313  0.00  0.00    +0.000 A 
ATOM     20  C   UNL     1       4.931   6.548  16.434  0.00  0.00    +0.000 A 
ATOM     21  C   UNL     1       5.752   5.983  15.455  0.00  0.00    +0.000 A 
BRANCH  16  23
ATOM     22  C   UNL     1       5.994   3.689  13.162  0.00  0.00    +0.000 C 
ATOM     23  O   UNL     1       6.617   3.940  14.418  0.00  0.00    +0.000 OA
ENDBRANCH  16  23
ENDBRANCH   1  19
TORSDOF 3
ENDMDL
MODEL 5
REMARK VINA RESULT:      -7.6      2.269      8.756
REMARK  Name = 
REMARK  4 active torsions:
REMARK  status: ('A' for Active; 'I' for Inactive)
REMARK    1  A    between atoms: C_1  and  O_2
REMARK    2  A    between atoms: O_2  and  C_3
REMARK    3  A    between atoms: C_6  and  C_7
REMARK    4  A    between atoms: C_9  and  C_10
REMARK                            x       y       z     vdW  Elec       q    Type
REMARK                         _______ _______ _______ _____ _____    ______ ____
ROOT
ATOM      1  C   UNL     1       2.635   7.734  18.149  0.00  0.00    +0.000 A 
ATOM      2  N   UNL     1       2.109   7.832  19.351  0.00  0.00    +0.000 NA
ATOM      3  C   UNL     1       1.395   9.012  19.272  0.00  0.00    +0.000 A 
ATOM      4  N   UNL     1       1.469   9.611  18.072  0.00  0.00    +0.000 NA
ATOM      5  O   UNL     1       2.288   8.771  17.332  0.00  0.00    +0.000 OA
ENDROOT
BRANCH   3   6
ATOM      6  C   UNL     1       0.653   9.567  20.398  0.00  0.00    +0.000 A 
ATOM      7  C   UNL     1       0.594   8.877  21.619  0.00  0.00    +0.000 A 
ATOM      8  C   UNL     1      -0.143   9.361  22.704  0.00  0.00    +0.000 A 
ATOM      9  C   UNL     1      -0.829  10.565  22.529  0.00  0.00    +0.000 A 
ATOM     10  N   UNL     1      -1.638  11.260  23.400  0.00  0.00    +0.000 N 
ATOM     11  C   UNL     1      -2.115  12.394  22.798  0.00  0.00    +0.000 A 
ATOM     12  C   UNL     1      -1.600  12.442  21.522  0.00  0.00    +0.000 A 
ATOM     13  C   UNL     1      -0.790  11.289  21.337  0.00  0.00    +0.000 A 
ATOM     14  C   UNL     1      -0.031  10.787  20.261  0.00  0.00    +0.000 A 
ATOM     15  H   UNL     1      -1.853  10.964  24.341  0.00  0.00    +0.000 HD
ENDBRANCH   3   6
BRANCH   1  19
ATOM     16  C   UNL     1       5.139   4.734  16.404  0.00  0.00    +0.000 A 
ATOM     17  C   UNL     1       4.054   4.373  17.204  0.00  0.00    +0.000 A 
ATOM     18  C   UNL     1       3.233   5.353  17.776  0.00  0.00    +0.000 A 
ATOM     19  C   UNL     1       3.498   6.713  17.566  0.00  0.00    +0.000 A 
ATOM     20  C   UNL     1       4.611   7.062  16.786  0.00  0.00    +0.000 A 
ATOM     21  C   UNL     1       5.425   6.084  16.210  0.00  0.00    +0.000 A 
BRANCH  16  23
ATOM     22  C   UNL     1       6.306   3.863  14.545  0.00  0.00    +0.000 C 
ATOM     23  O   UNL     1       5.868   3.697  15.890  0.00  0.00    +0.000 OA
ENDBRANCH  16  23
ENDBRANCH   1  19
TORSDOF 3
ENDMDL
MODEL 6
REMARK VINA RESULT:      -7.6      2.263      8.693
REMARK  Name = 
REMARK  4 active torsions:
REMARK  status: ('A' for Active; 'I' for Inactive)
REMARK    1  A    between atoms: C_1  and  O_2
REMARK    2  A    between atoms: O_2  and  C_3
REMARK    3  A    between atoms: C_6  and  C_7
REMARK    4  A    between atoms: C_9  and  C_10
REMARK                            x       y       z     vdW  Elec       q    Type
REMARK                         _______ _______ _______ _____ _____    ______ ____
ROOT
ATOM      1  C   UNL     1       2.639   7.696  18.137  0.00  0.00    +0.000 A 
ATOM      2  N   UNL     1       2.096   7.794  19.332  0.00  0.00    +0.000 NA
ATOM      3  C   UNL     1       1.455   9.015  19.272  0.00  0.00    +0.000 A 
ATOM      4  N   UNL     1       1.588   9.641  18.091  0.00  0.00    +0.000 NA
ATOM      5  O   UNL     1       2.370   8.773  17.343  0.00  0.00    +0.000 OA
ENDROOT
BRANCH   3   6
ATOM      6  C   UNL     1       0.724   9.583  20.400  0.00  0.00    +0.000 A 
ATOM      7  C   UNL     1       0.531   8.834  21.571  0.00  0.00    +0.000 A 
ATOM      8  C   UNL     1      -0.199   9.334  22.654  0.00  0.00    +0.000 A 
ATOM      9  C   UNL     1      -0.740  10.615  22.527  0.00  0.00    +0.000 A 
ATOM     10  N   UNL     1      -1.508  11.344  23.406  0.00  0.00    +0.000 N 
ATOM     11  C   UNL     1      -1.828  12.558  22.859  0.00  0.00    +0.000 A 
ATOM     12  C   UNL     1      -1.251  12.623  21.611  0.00  0.00    +0.000 A 
ATOM     13  C   UNL     1      -0.564  11.398  21.387  0.00  0.00    +0.000 A 
ATOM     14  C   UNL     1       0.186  10.878  20.313  0.00  0.00    +0.000 A 
ATOM     15  H   UNL     1      -1.799  11.020  24.318  0.00  0.00    +0.000 HD
ENDBRANCH   3   6
BRANCH   1  19
ATOM     16  C   UNL     1       5.052   4.604  16.425  0.00  0.00    +0.000 A 
ATOM     17  C   UNL     1       5.317   5.946  16.145  0.00  0.00    +0.000 A 
ATOM     18  C   UNL     1       4.529   6.959  16.704  0.00  0.00    +0.000 A 
ATOM     19  C   UNL     1       3.452   6.641  17.542  0.00  0.00    +0.000 A 
ATOM     20  C   UNL     1       3.178   5.288  17.791  0.00  0.00    +0.000 A 
ATOM     21  C   UNL     1       3.968   4.277  17.238  0.00  0.00    +0.000 A 
BRANCH  16  23
ATOM     22  C   UNL     1       6.578   4.166  14.677  0.00  0.00    +0.000 C 
ATOM     23  O   UNL     1       5.889   3.699  15.833  0.00  0.00    +0.000 OA
ENDBRANCH  16  23
ENDBRANCH   1  19
TORSDOF 3
ENDMDL
MODEL 7
REMARK VINA RESULT:      -7.5      1.328      1.629
REMARK  Name = 
REMARK  4 active torsions:
REMARK  status: ('A' for Active; 'I' for Inactive)
REMARK    1  A    between atoms: C_1  and  O_2
REMARK    2  A    between atoms: O_2  and  C_3
REMARK    3  A    between atoms: C_6  and  C_7
REMARK    4  A    between atoms: C_9  and  C_10
REMARK                            x       y       z     vdW  Elec       q    Type
REMARK                         _______ _______ _______ _____ _____    ______ ____
ROOT
ATOM      1  C   UNL     1       1.561   7.678  20.377  0.00  0.00    +0.000 A 
ATOM      2  N   UNL     1       2.324   7.481  19.322  0.00  0.00    +0.000 NA
ATOM      3  C   UNL     1       2.567   6.123  19.376  0.00  0.00    +0.000 A 
ATOM      4  N   UNL     1       1.975   5.506  20.412  0.00  0.00    +0.000 NA
ATOM      5  O   UNL     1       1.313   6.530  21.073  0.00  0.00    +0.000 OA
ENDROOT
BRANCH   3   6
ATOM      6  C   UNL     1       3.413   5.430  18.410  0.00  0.00    +0.000 A 
ATOM      7  C   UNL     1       3.164   4.089  18.081  0.00  0.00    +0.000 A 
ATOM      8  C   UNL     1       3.980   3.384  17.190  0.00  0.00    +0.000 A 
ATOM      9  C   UNL     1       5.066   4.067  16.638  0.00  0.00    +0.000 A 
ATOM     10  N   UNL     1       6.036   3.630  15.764  0.00  0.00    +0.000 N 
ATOM     11  C   UNL     1       6.919   4.642  15.496  0.00  0.00    +0.000 A 
ATOM     12  C   UNL     1       6.513   5.754  16.197  0.00  0.00    +0.000 A 
ATOM     13  C   UNL     1       5.345   5.402  16.928  0.00  0.00    +0.000 A 
ATOM     14  C   UNL     1       4.501   6.095  17.820  0.00  0.00    +0.000 A 
ATOM     15  H   UNL     1       6.088   2.695  15.386  0.00  0.00    +0.000 HD
ENDBRANCH   3   6
BRANCH   1  19
ATOM     16  C   UNL     1      -0.279  11.235  21.883  0.00  0.00    +0.000 A 
ATOM     17  C   UNL     1       0.247  11.203  20.590  0.00  0.00    +0.000 A 
ATOM     18  C   UNL     1       0.850  10.041  20.096  0.00  0.00    +0.000 A 
ATOM     19  C   UNL     1       0.948   8.895  20.896  0.00  0.00    +0.000 A 
ATOM     20  C   UNL     1       0.442   8.951  22.204  0.00  0.00    +0.000 A 
ATOM     21  C   UNL     1      -0.165  10.110  22.695  0.00  0.00    +0.000 A 
BRANCH  16  23
ATOM     22  C   UNL     1      -2.045  12.306  23.028  0.00  0.00    +0.000 C 
ATOM     23  O   UNL     1      -0.851  12.419  22.260  0.00  0.00    +0.000 OA
ENDBRANCH  16  23
ENDBRANCH   1  19
TORSDOF 3
ENDMDL
MODEL 8
REMARK VINA RESULT:      -7.5      1.018      2.232
REMARK  Name = 
REMARK  4 active torsions:
REMARK  status: ('A' for Active; 'I' for Inactive)
REMARK    1  A    between atoms: C_1  and  O_2
REMARK    2  A    between atoms: O_2  and  C_3
REMARK    3  A    between atoms: C_6  and  C_7
REMARK    4  A    between atoms: C_9  and  C_10
REMARK                            x       y       z     vdW  Elec       q    Type
REMARK                         _______ _______ _______ _____ _____    ______ ____
ROOT
ATOM      1  C   UNL     1       1.240   9.188  19.716  0.00  0.00    +0.000 A 
ATOM      2  N   UNL     1       1.708   7.971  19.888  0.00  0.00    +0.000 NA
ATOM      3  C   UNL     1       2.271   7.688  18.659  0.00  0.00    +0.000 A 
ATOM      4  N   UNL     1       2.163   8.690  17.769  0.00  0.00    +0.000 NA
ATOM      5  O   UNL     1       1.482   9.678  18.465  0.00  0.00    +0.000 OA
ENDROOT
BRANCH   3   6
ATOM      6  C   UNL     1       2.899   6.409  18.349  0.00  0.00    +0.000 A 
ATOM      7  C   UNL     1       4.097   6.363  17.621  0.00  0.00    +0.000 A 
ATOM      8  C   UNL     1       4.703   5.152  17.272  0.00  0.00    +0.000 A 
ATOM      9  C   UNL     1       4.066   3.976  17.675  0.00  0.00    +0.000 A 
ATOM     10  N   UNL     1       4.413   2.661  17.460  0.00  0.00    +0.000 N 
ATOM     11  C   UNL     1       3.485   1.830  18.029  0.00  0.00    +0.000 A 
ATOM     12  C   UNL     1       2.528   2.615  18.630  0.00  0.00    +0.000 A 
ATOM     13  C   UNL     1       2.880   3.975  18.409  0.00  0.00    +0.000 A 
ATOM     14  C   UNL     1       2.294   5.208  18.758  0.00  0.00    +0.000 A 
ATOM     15  H   UNL     1       5.229   2.361  16.947  0.00  0.00    +0.000 HD
ENDBRANCH   3   6
BRANCH   1  19
ATOM     16  C   UNL     1      -0.798  11.797  22.427  0.00  0.00    +0.000 A 
ATOM     17  C   UNL     1      -0.747  10.423  22.670  0.00  0.00    +0.000 A 
ATOM     18  C   UNL     1      -0.080   9.568  21.785  0.00  0.00    +0.000 A 
ATOM     19  C   UNL     1       0.532  10.076  20.632  0.00  0.00    +0.000 A 
ATOM     20  C   UNL     1       0.446  11.455  20.384  0.00  0.00    +0.000 A 
ATOM     21  C   UNL     1      -0.213  12.309  21.272  0.00  0.00    +0.000 A 
BRANCH  16  23
ATOM     22  C   UNL     1      -2.863  12.276  23.468  0.00  0.00    +0.000 C 
ATOM     23  O   UNL     1      -1.468  12.539  23.362  0.00  0.00    +0.000 OA
ENDBRANCH  16  23
ENDBRANCH   1  19
TORSDOF 3
ENDMDL
MODEL 9
REMARK VINA RESULT:      -7.5      1.111      2.011
REMARK  Name = 
REMARK  4 active torsions:
REMARK  status: ('A' for Active; 'I' for Inactive)
REMARK    1  A    between atoms: C_1  and  O_2
REMARK    2  A    between atoms: O_2  and  C_3
REMARK    3  A    between atoms: C_6  and  C_7
REMARK    4  A    between atoms: C_9  and  C_10
REMARK                            x       y       z     vdW  Elec       q    Type
REMARK                         _______ _______ _______ _____ _____    ______ ____
ROOT
ATOM      1  C   UNL     1       1.164   9.235  19.893  0.00  0.00    +0.000 A 
ATOM      2  N   UNL     1       1.704   8.042  20.018  0.00  0.00    +0.000 NA
ATOM      3  C   UNL     1       2.175   7.790  18.745  0.00  0.00    +0.000 A 
ATOM      4  N   UNL     1       1.945   8.786  17.873  0.00  0.00    +0.000 NA
ATOM      5  O   UNL     1       1.277   9.738  18.629  0.00  0.00    +0.000 OA
ENDROOT
BRANCH   3   6
ATOM      6  C   UNL     1       2.837   6.543  18.377  0.00  0.00    +0.000 A 
ATOM      7  C   UNL     1       4.042   6.564  17.657  0.00  0.00    +0.000 A 
ATOM      8  C   UNL     1       4.680   5.387  17.254  0.00  0.00    +0.000 A 
ATOM      9  C   UNL     1       4.069   4.177  17.590  0.00  0.00    +0.000 A 
ATOM     10  N   UNL     1       4.450   2.883  17.313  0.00  0.00    +0.000 N 
ATOM     11  C   UNL     1       3.538   2.002  17.831  0.00  0.00    +0.000 A 
ATOM     12  C   UNL     1       2.558   2.732  18.462  0.00  0.00    +0.000 A 
ATOM     13  C   UNL     1       2.878   4.109  18.313  0.00  0.00    +0.000 A 
ATOM     14  C   UNL     1       2.259   5.308  18.719  0.00  0.00    +0.000 A 
ATOM     15  H   UNL     1       5.278   2.629  16.793  0.00  0.00    +0.000 HD
ENDBRANCH   3   6
BRANCH   1  19
ATOM     16  C   UNL     1      -0.843  11.726  22.735  0.00  0.00    +0.000 A 
ATOM     17  C   UNL     1      -0.280  12.278  21.584  0.00  0.00    +0.000 A 
ATOM     18  C   UNL     1       0.377  11.465  20.652  0.00  0.00    +0.000 A 
ATOM     19  C   UNL     1       0.493  10.086  20.870  0.00  0.00    +0.000 A 
ATOM     20  C   UNL     1      -0.050   9.549  22.046  0.00  0.00    +0.000 A 
ATOM     21  C   UNL     1      -0.712  10.360  22.973  0.00  0.00    +0.000 A 
BRANCH  16  23
ATOM     22  C   UNL     1      -1.153  13.983  23.357  0.00  0.00    +0.000 C 
ATOM     23  O   UNL     1      -1.467  12.610  23.572  0.00  0.00    +0.000 OA
ENDBRANCH  16  23
ENDBRANCH   1  19
TORSDOF 3
ENDMDL
