MODEL 1
REMARK VINA RESULT:      -8.1      0.000      0.000
REMARK  Name = 
REMARK  6 active torsions:
REMARK  status: ('A' for Active; 'I' for Inactive)
REMARK    1  A    between atoms: C_2  and  O_3
REMARK    2  A    between atoms: C_2  and  C_4
REMARK    3  A    between atoms: C_8  and  C_9
REMARK    4  A    between atoms: C_9  and  C_11
REMARK    5  A    between atoms: C_11  and  S_12
REMARK    6  A    between atoms: S_12  and  C_13
REMARK                            x       y       z     vdW  Elec       q    Type
REMARK                         _______ _______ _______ _____ _____    ______ ____
ROOT
ATOM      1  C   UNL     1       5.488   4.969  15.987  0.00  0.00    +0.000 C 
ATOM      2  O   UNL     1       4.417   4.461  16.314  0.00  0.00    +0.000 OA
ENDROOT
BRANCH   1   7
ATOM      3  C   UNL     1       5.941   3.467  12.516  0.00  0.00    +0.000 A 
ATOM      4  C   UNL     1       7.109   4.111  12.099  0.00  0.00    +0.000 A 
ATOM      5  C   UNL     1       7.753   5.012  12.948  0.00  0.00    +0.000 A 
ATOM      6  C   UNL     1       7.219   5.283  14.212  0.00  0.00    +0.000 A 
ATOM      7  C   UNL     1       6.062   4.625  14.650  0.00  0.00    +0.000 A 
ATOM      8  C   UNL     1       5.449   3.695  13.805  0.00  0.00    +0.000 A 
BRANCH   3  10
ATOM      9  O   UNL     1       4.198   2.804  11.048  0.00  0.00    +0.000 OA
ATOM     10  C   UNL     1       5.265   2.535  11.578  0.00  0.00    +0.000 C 
BRANCH  10  11
ATOM     11  O   UNL     1       5.900   1.361  11.386  0.00  0.00    +0.000 OA
ATOM     12  H   UNL     1       6.571   1.110  12.053  0.00  0.00    +0.000 HD
ENDBRANCH  10  11
ENDBRANCH   3  10
ENDBRANCH   1   7
BRANCH   1  13
ATOM     13  C   UNL     1       6.207   5.968  16.884  0.00  0.00    +0.000 C 
BRANCH  13  14
ATOM     14  S   UNL     1       6.842   5.203  18.402  0.00  0.00    +0.000 S 
BRANCH  14  15
ATOM     15  C   UNL     1       5.399   4.656  19.165  0.00  0.00    +0.000 A 
ATOM     16  N   UNL     1       5.048   3.425  19.463  0.00  0.00    +0.000 NA
ATOM     17  C   UNL     1       3.733   3.536  19.869  0.00  0.00    +0.000 A 
ATOM     18  C   UNL     1       2.814   2.544  20.244  0.00  0.00    +0.000 A 
ATOM     19  C   UNL     1       1.483   2.907  20.476  0.00  0.00    +0.000 A 
ATOM     20  C   UNL     1       1.083   4.240  20.398  0.00  0.00    +0.000 A 
ATOM     21  C   UNL     1       1.996   5.257  20.099  0.00  0.00    +0.000 A 
ATOM     22  C   UNL     1       3.307   4.862  19.829  0.00  0.00    +0.000 A 
ATOM     23  N   UNL     1       4.425   5.563  19.462  0.00  0.00    +0.000 N 
ATOM     24  H   UNL     1       4.497   6.559  19.325  0.00  0.00    +0.000 HD
ENDBRANCH  14  15
ENDBRANCH  13  14
ENDBRANCH   1  13
TORSDOF 6
ENDMDL
MODEL 2
REMARK VINA RESULT:      -8.0      1.304      1.567
REMARK  Name = 
REMARK  6 active torsions:
REMARK  status: ('A' for Active; 'I' for Inactive)
REMARK    1  A    between atoms: C_2  and  O_3
REMARK    2  A    between atoms: C_2  and  C_4
REMARK    3  A    between atoms: C_8  and  C_9
REMARK    4  A    between atoms: C_9  and  C_11
REMARK    5  A    between atoms: C_11  and  S_12
REMARK    6  A    between atoms: S_12  and  C_13
REMARK                            x       y       z     vdW  Elec       q    Type
REMARK                         _______ _______ _______ _____ _____    ______ ____
ROOT
ATOM      1  C   UNL     1       5.710   4.570  16.334  0.00  0.00    +0.000 C 
ATOM      2  O   UNL     1       5.084   3.643  16.844  0.00  0.00    +0.000 OA
ENDROOT
BRANCH   1   7
ATOM      3  C   UNL     1       5.943   3.505  12.684  0.00  0.00    +0.000 A 
ATOM      4  C   UNL     1       7.028   4.274  12.252  0.00  0.00    +0.000 A 
ATOM      5  C   UNL     1       7.689   5.116  13.147  0.00  0.00    +0.000 A 
ATOM      6  C   UNL     1       7.254   5.205  14.474  0.00  0.00    +0.000 A 
ATOM      7  C   UNL     1       6.183   4.422  14.923  0.00  0.00    +0.000 A 
ATOM      8  C   UNL     1       5.554   3.551  14.027  0.00  0.00    +0.000 A 
BRANCH   3  10
ATOM      9  O   UNL     1       4.186   2.965  11.182  0.00  0.00    +0.000 OA
ATOM     10  C   UNL     1       5.244   2.640  11.700  0.00  0.00    +0.000 C 
BRANCH  10  11
ATOM     11  O   UNL     1       5.846   1.460  11.452  0.00  0.00    +0.000 OA
ATOM     12  H   UNL     1       5.678   1.055  10.577  0.00  0.00    +0.000 HD
ENDBRANCH  10  11
ENDBRANCH   3  10
ENDBRANCH   1   7
BRANCH   1  13
ATOM     13  C   UNL     1       5.966   5.871  17.083  0.00  0.00    +0.000 C 
BRANCH  13  14
ATOM     14  S   UNL     1       4.485   6.913  17.189  0.00  0.00    +0.000 S 
BRANCH  14  15
ATOM     15  C   UNL     1       3.472   5.999  18.241  0.00  0.00    +0.000 A 
ATOM     16  N   UNL     1       3.514   5.920  19.552  0.00  0.00    +0.000 NA
ATOM     17  C   UNL     1       2.625   4.909  19.859  0.00  0.00    +0.000 A 
ATOM     18  C   UNL     1       2.301   4.334  21.097  0.00  0.00    +0.000 A 
ATOM     19  C   UNL     1       1.466   3.213  21.124  0.00  0.00    +0.000 A 
ATOM     20  C   UNL     1       0.912   2.706  19.950  0.00  0.00    +0.000 A 
ATOM     21  C   UNL     1       1.161   3.308  18.711  0.00  0.00    +0.000 A 
ATOM     22  C   UNL     1       2.032   4.397  18.708  0.00  0.00    +0.000 A 
ATOM     23  N   UNL     1       2.528   5.179  17.698  0.00  0.00    +0.000 N 
ATOM     24  H   UNL     1       2.323   5.099  16.714  0.00  0.00    +0.000 HD
ENDBRANCH  14  15
ENDBRANCH  13  14
ENDBRANCH   1  13
TORSDOF 6
ENDMDL
MODEL 3
REMARK VINA RESULT:      -8.0      1.325      1.789
REMARK  Name = 
REMARK  6 active torsions:
REMARK  status: ('A' for Active; 'I' for Inactive)
REMARK    1  A    between atoms: C_2  and  O_3
REMARK    2  A    between atoms: C_2  and  C_4
REMARK    3  A    between atoms: C_8  and  C_9
REMARK    4  A    between atoms: C_9  and  C_11
REMARK    5  A    between atoms: C_11  and  S_12
REMARK    6  A    between atoms: S_12  and  C_13
REMARK                            x       y       z     vdW  Elec       q    Type
REMARK                         _______ _______ _______ _____ _____    ______ ____
ROOT
ATOM      1  C   UNL     1       7.016   4.925  15.883  0.00  0.00    +0.000 C 
ATOM      2  O   UNL     1       7.833   4.337  16.589  0.00  0.00    +0.000 OA
ENDROOT
BRANCH   1   7
ATOM      3  C   UNL     1       6.212   3.613  12.399  0.00  0.00    +0.000 A 
ATOM      4  C   UNL     1       7.069   4.394  11.617  0.00  0.00    +0.000 A 
ATOM      5  C   UNL     1       7.914   5.325  12.222  0.00  0.00    +0.000 A 
ATOM      6  C   UNL     1       7.892   5.489  13.611  0.00  0.00    +0.000 A 
ATOM      7  C   UNL     1       7.054   4.696  14.406  0.00  0.00    +0.000 A 
ATOM      8  C   UNL     1       6.241   3.738  13.791  0.00  0.00    +0.000 A 
BRANCH   3  10
ATOM      9  O   UNL     1       5.669   1.530  11.397  0.00  0.00    +0.000 OA
ATOM     10  C   UNL     1       5.306   2.651  11.722  0.00  0.00    +0.000 C 
BRANCH  10  11
ATOM     11  O   UNL     1       4.069   3.121  11.462  0.00  0.00    +0.000 OA
ATOM     12  H   UNL     1       3.762   3.063  10.535  0.00  0.00    +0.000 HD
ENDBRANCH  10  11
ENDBRANCH   3  10
ENDBRANCH   1   7
BRANCH   1  13
ATOM     13  C   UNL     1       5.947   5.831  16.480  0.00  0.00    +0.000 C 
BRANCH  13  14
ATOM     14  S   UNL     1       5.939   5.792  18.293  0.00  0.00    +0.000 S 
BRANCH  14  15
ATOM     15  C   UNL     1       4.373   5.163  18.637  0.00  0.00    +0.000 A 
ATOM     16  N   UNL     1       3.582   5.446  19.648  0.00  0.00    +0.000 NA
ATOM     17  C   UNL     1       2.558   4.526  19.545  0.00  0.00    +0.000 A 
ATOM     18  C   UNL     1       1.456   4.299  20.385  0.00  0.00    +0.000 A 
ATOM     19  C   UNL     1       0.631   3.198  20.135  0.00  0.00    +0.000 A 
ATOM     20  C   UNL     1       0.857   2.370  19.037  0.00  0.00    +0.000 A 
ATOM     21  C   UNL     1       1.903   2.620  18.142  0.00  0.00    +0.000 A 
ATOM     22  C   UNL     1       2.738   3.699  18.439  0.00  0.00    +0.000 A 
ATOM     23  N   UNL     1       3.860   4.193  17.828  0.00  0.00    +0.000 N 
ATOM     24  H   UNL     1       4.299   3.840  16.992  0.00  0.00    +0.000 HD
ENDBRANCH  14  15
ENDBRANCH  13  14
ENDBRANCH   1  13
TORSDOF 6
ENDMDL
MODEL 4
REMARK VINA RESULT:      -7.9      0.587      1.312
REMARK  Name = 
REMARK  6 active torsions:
REMARK  status: ('A' for Active; 'I' for Inactive)
REMARK    1  A    between atoms: C_2  and  O_3
REMARK    2  A    between atoms: C_2  and  C_4
REMARK    3  A    between atoms: C_8  and  C_9
REMARK    4  A    between atoms: C_9  and  C_11
REMARK    5  A    between atoms: C_11  and  S_12
REMARK    6  A    between atoms: S_12  and  C_13
REMARK                            x       y       z     vdW  Elec       q    Type
REMARK                         _______ _______ _______ _____ _____    ______ ____
ROOT
ATOM      1  C   UNL     1       5.899   5.493  15.826  0.00  0.00    +0.000 C 
ATOM      2  O   UNL     1       4.689   5.575  16.031  0.00  0.00    +0.000 OA
ENDROOT
BRANCH   1   7
ATOM      3  C   UNL     1       6.040   3.611  12.518  0.00  0.00    +0.000 A 
ATOM      4  C   UNL     1       7.216   4.129  11.968  0.00  0.00    +0.000 A 
ATOM      5  C   UNL     1       7.965   5.069  12.677  0.00  0.00    +0.000 A 
ATOM      6  C   UNL     1       7.530   5.505  13.933  0.00  0.00    +0.000 A 
ATOM      7  C   UNL     1       6.366   4.975  14.504  0.00  0.00    +0.000 A 
ATOM      8  C   UNL     1       5.645   4.004  13.801  0.00  0.00    +0.000 A 
BRANCH   3  10
ATOM      9  O   UNL     1       4.150   2.902  11.268  0.00  0.00    +0.000 OA
ATOM     10  C   UNL     1       5.251   2.634  11.725  0.00  0.00    +0.000 C 
BRANCH  10  11
ATOM     11  O   UNL     1       5.827   1.423  11.581  0.00  0.00    +0.000 OA
ATOM     12  H   UNL     1       5.729   0.797  12.327  0.00  0.00    +0.000 HD
ENDBRANCH  10  11
ENDBRANCH   3  10
ENDBRANCH   1   7
BRANCH   1  13
ATOM     13  C   UNL     1       6.918   5.951  16.861  0.00  0.00    +0.000 C 
BRANCH  13  14
ATOM     14  S   UNL     1       7.092   4.774  18.230  0.00  0.00    +0.000 S 
BRANCH  14  15
ATOM     15  C   UNL     1       5.456   4.527  18.708  0.00  0.00    +0.000 A 
ATOM     16  N   UNL     1       4.666   5.343  19.369  0.00  0.00    +0.000 NA
ATOM     17  C   UNL     1       3.552   4.578  19.656  0.00  0.00    +0.000 A 
ATOM     18  C   UNL     1       2.404   4.893  20.399  0.00  0.00    +0.000 A 
ATOM     19  C   UNL     1       1.475   3.883  20.668  0.00  0.00    +0.000 A 
ATOM     20  C   UNL     1       1.649   2.598  20.158  0.00  0.00    +0.000 A 
ATOM     21  C   UNL     1       2.747   2.279  19.351  0.00  0.00    +0.000 A 
ATOM     22  C   UNL     1       3.681   3.293  19.136  0.00  0.00    +0.000 A 
ATOM     23  N   UNL     1       4.871   3.322  18.457  0.00  0.00    +0.000 N 
ATOM     24  H   UNL     1       5.299   2.561  17.952  0.00  0.00    +0.000 HD
ENDBRANCH  14  15
ENDBRANCH  13  14
ENDBRANCH   1  13
TORSDOF 6
ENDMDL
MODEL 5
REMARK VINA RESULT:      -7.8      1.469      1.909
REMARK  Name = 
REMARK  6 active torsions:
REMARK  status: ('A' for Active; 'I' for Inactive)
REMARK    1  A    between atoms: C_2  and  O_3
REMARK    2  A    between atoms: C_2  and  C_4
REMARK    3  A    between atoms: C_8  and  C_9
REMARK    4  A    between atoms: C_9  and  C_11
REMARK    5  A    between atoms: C_11  and  S_12
REMARK    6  A    between atoms: S_12  and  C_13
REMARK                            x       y       z     vdW  Elec       q    Type
REMARK                         _______ _______ _______ _____ _____    ______ ____
ROOT
ATOM      1  C   UNL     1       7.225   4.965  15.908  0.00  0.00    +0.000 C 
ATOM      2  O   UNL     1       7.740   4.101  16.616  0.00  0.00    +0.000 OA
ENDROOT
BRANCH   1   7
ATOM      3  C   UNL     1       6.261   3.677  12.456  0.00  0.00    +0.000 A 
ATOM      4  C   UNL     1       7.070   4.473  11.640  0.00  0.00    +0.000 A 
ATOM      5  C   UNL     1       7.935   5.407  12.212  0.00  0.00    +0.000 A 
ATOM      6  C   UNL     1       7.981   5.559  13.602  0.00  0.00    +0.000 A 
ATOM      7  C   UNL     1       7.191   4.750  14.429  0.00  0.00    +0.000 A 
ATOM      8  C   UNL     1       6.357   3.789  13.847  0.00  0.00    +0.000 A 
BRANCH   3  10
ATOM      9  O   UNL     1       4.195   3.021  11.486  0.00  0.00    +0.000 OA
ATOM     10  C   UNL     1       5.331   2.712  11.816  0.00  0.00    +0.000 C 
BRANCH  10  11
ATOM     11  O   UNL     1       5.822   1.466  11.660  0.00  0.00    +0.000 OA
ATOM     12  H   UNL     1       6.708   1.293  12.037  0.00  0.00    +0.000 HD
ENDBRANCH  10  11
ENDBRANCH   3  10
ENDBRANCH   1   7
BRANCH   1  13
ATOM     13  C   UNL     1       6.584   6.211  16.506  0.00  0.00    +0.000 C 
BRANCH  13  14
ATOM     14  S   UNL     1       6.161   6.000  18.257  0.00  0.00    +0.000 S 
BRANCH  14  15
ATOM     15  C   UNL     1       4.764   4.996  18.176  0.00  0.00    +0.000 A 
ATOM     16  N   UNL     1       3.508   5.353  18.026  0.00  0.00    +0.000 NA
ATOM     17  C   UNL     1       2.798   4.187  18.230  0.00  0.00    +0.000 A 
ATOM     18  C   UNL     1       1.413   3.964  18.261  0.00  0.00    +0.000 A 
ATOM     19  C   UNL     1       0.938   2.703  18.635  0.00  0.00    +0.000 A 
ATOM     20  C   UNL     1       1.822   1.662  18.915  0.00  0.00    +0.000 A 
ATOM     21  C   UNL     1       3.207   1.838  18.817  0.00  0.00    +0.000 A 
ATOM     22  C   UNL     1       3.653   3.118  18.485  0.00  0.00    +0.000 A 
ATOM     23  N   UNL     1       4.908   3.652  18.352  0.00  0.00    +0.000 N 
ATOM     24  H   UNL     1       5.786   3.171  18.471  0.00  0.00    +0.000 HD
ENDBRANCH  14  15
ENDBRANCH  13  14
ENDBRANCH   1  13
TORSDOF 6
ENDMDL
MODEL 6
REMARK VINA RESULT:      -7.8      2.892      6.955
REMARK  Name = 
REMARK  6 active torsions:
REMARK  status: ('A' for Active; 'I' for Inactive)
REMARK    1  A    between atoms: C_2  and  O_3
REMARK    2  A    between atoms: C_2  and  C_4
REMARK    3  A    between atoms: C_8  and  C_9
REMARK    4  A    between atoms: C_9  and  C_11
REMARK    5  A    between atoms: C_11  and  S_12
REMARK    6  A    between atoms: S_12  and  C_13
REMARK                            x       y       z     vdW  Elec       q    Type
REMARK                         _______ _______ _______ _____ _____    ______ ____
ROOT
ATOM      1  C   UNL     1       4.055   6.650  17.733  0.00  0.00    +0.000 C 
ATOM      2  O   UNL     1       3.614   7.366  16.837  0.00  0.00    +0.000 OA
ENDROOT
BRANCH   1   7
ATOM      3  C   UNL     1       1.817   3.786  18.872  0.00  0.00    +0.000 A 
ATOM      4  C   UNL     1       1.390   4.262  20.115  0.00  0.00    +0.000 A 
ATOM      5  C   UNL     1       1.811   5.513  20.568  0.00  0.00    +0.000 A 
ATOM      6  C   UNL     1       2.677   6.284  19.785  0.00  0.00    +0.000 A 
ATOM      7  C   UNL     1       3.093   5.826  18.528  0.00  0.00    +0.000 A 
ATOM      8  C   UNL     1       2.632   4.589  18.067  0.00  0.00    +0.000 A 
BRANCH   3  10
ATOM      9  O   UNL     1       0.204   2.087  18.490  0.00  0.00    +0.000 OA
ATOM     10  C   UNL     1       1.373   2.439  18.432  0.00  0.00    +0.000 C 
BRANCH  10  11
ATOM     11  O   UNL     1       2.359   1.628  17.999  0.00  0.00    +0.000 OA
ATOM     12  H   UNL     1       2.226   1.199  17.130  0.00  0.00    +0.000 HD
ENDBRANCH  10  11
ENDBRANCH   3  10
ENDBRANCH   1   7
BRANCH   1  13
ATOM     13  C   UNL     1       5.549   6.547  18.013  0.00  0.00    +0.000 C 
BRANCH  13  14
ATOM     14  S   UNL     1       6.141   4.833  17.994  0.00  0.00    +0.000 S 
BRANCH  14  15
ATOM     15  C   UNL     1       6.576   4.617  16.341  0.00  0.00    +0.000 A 
ATOM     16  N   UNL     1       7.451   5.292  15.631  0.00  0.00    +0.000 NA
ATOM     17  C   UNL     1       7.258   4.845  14.339  0.00  0.00    +0.000 A 
ATOM     18  C   UNL     1       7.860   5.254  13.139  0.00  0.00    +0.000 A 
ATOM     19  C   UNL     1       7.380   4.738  11.931  0.00  0.00    +0.000 A 
ATOM     20  C   UNL     1       6.361   3.787  11.915  0.00  0.00    +0.000 A 
ATOM     21  C   UNL     1       5.796   3.308  13.103  0.00  0.00    +0.000 A 
ATOM     22  C   UNL     1       6.263   3.872  14.291  0.00  0.00    +0.000 A 
ATOM     23  N   UNL     1       5.912   3.684  15.601  0.00  0.00    +0.000 N 
ATOM     24  H   UNL     1       5.211   3.052  15.956  0.00  0.00    +0.000 HD
ENDBRANCH  14  15
ENDBRANCH  13  14
ENDBRANCH   1  13
TORSDOF 6
ENDMDL
MODEL 7
REMARK VINA RESULT:      -7.8      1.084      1.618
REMARK  Name = 
REMARK  6 active torsions:
REMARK  status: ('A' for Active; 'I' for Inactive)
REMARK    1  A    between atoms: C_2  and  O_3
REMARK    2  A    between atoms: C_2  and  C_4
REMARK    3  A    between atoms: C_8  and  C_9
REMARK    4  A    between atoms: C_9  and  C_11
REMARK    5  A    between atoms: C_11  and  S_12
REMARK    6  A    between atoms: S_12  and  C_13
REMARK                            x       y       z     vdW  Elec       q    Type
REMARK                         _______ _______ _______ _____ _____    ______ ____
ROOT
ATOM      1  C   UNL     1       6.178   5.114  15.833  0.00  0.00    +0.000 C 
ATOM      2  O   UNL     1       6.778   4.575  16.761  0.00  0.00    +0.000 OA
ENDROOT
BRANCH   1   7
ATOM      3  C   UNL     1       6.088   3.488  12.390  0.00  0.00    +0.000 A 
ATOM      4  C   UNL     1       7.160   4.131  11.765  0.00  0.00    +0.000 A 
ATOM      5  C   UNL     1       7.917   5.071  12.466  0.00  0.00    +0.000 A 
ATOM      6  C   UNL     1       7.591   5.383  13.790  0.00  0.00    +0.000 A 
ATOM      7  C   UNL     1       6.533   4.727  14.433  0.00  0.00    +0.000 A 
ATOM      8  C   UNL     1       5.808   3.758  13.733  0.00  0.00    +0.000 A 
BRANCH   3  10
ATOM      9  O   UNL     1       4.190   2.793  11.145  0.00  0.00    +0.000 OA
ATOM     10  C   UNL     1       5.286   2.514  11.608  0.00  0.00    +0.000 C 
BRANCH  10  11
ATOM     11  O   UNL     1       5.842   1.292  11.479  0.00  0.00    +0.000 OA
ATOM     12  H   UNL     1       5.630   0.636  12.173  0.00  0.00    +0.000 HD
ENDBRANCH  10  11
ENDBRANCH   3  10
ENDBRANCH   1   7
BRANCH   1  13
ATOM     13  C   UNL     1       5.058   6.117  16.080  0.00  0.00    +0.000 C 
BRANCH  13  14
ATOM     14  S   UNL     1       5.058   6.751  17.779  0.00  0.00    +0.000 S 
BRANCH  14  15
ATOM     15  C   UNL     1       3.989   5.660  18.574  0.00  0.00    +0.000 A 
ATOM     16  N   UNL     1       2.751   5.867  18.966  0.00  0.00    +0.000 NA
ATOM     17  C   UNL     1       2.440   4.750  19.714  0.00  0.00    +0.000 A 
ATOM     18  C   UNL     1       1.280   4.441  20.441  0.00  0.00    +0.000 A 
ATOM     19  C   UNL     1       1.270   3.295  21.243  0.00  0.00    +0.000 A 
ATOM     20  C   UNL     1       2.368   2.437  21.278  0.00  0.00    +0.000 A 
ATOM     21  C   UNL     1       3.507   2.684  20.504  0.00  0.00    +0.000 A 
ATOM     22  C   UNL     1       3.508   3.857  19.747  0.00  0.00    +0.000 A 
ATOM     23  N   UNL     1       4.450   4.428  18.932  0.00  0.00    +0.000 N 
ATOM     24  H   UNL     1       5.366   4.065  18.717  0.00  0.00    +0.000 HD
ENDBRANCH  14  15
ENDBRANCH  13  14
ENDBRANCH   1  13
TORSDOF 6
ENDMDL
MODEL 8
REMARK VINA RESULT:      -7.7      3.441      5.846
REMARK  Name = 
REMARK  6 active torsions:
REMARK  status: ('A' for Active; 'I' for Inactive)
REMARK    1  A    between atoms: C_2  and  O_3
REMARK    2  A    between atoms: C_2  and  C_4
REMARK    3  A    between atoms: C_8  and  C_9
REMARK    4  A    between atoms: C_9  and  C_11
REMARK    5  A    between atoms: C_11  and  S_12
REMARK    6  A    between atoms: S_12  and  C_13
REMARK                            x       y       z     vdW  Elec       q    Type
REMARK                         _______ _______ _______ _____ _____    ______ ____
ROOT
ATOM      1  C   UNL     1       5.011   6.425  16.571  0.00  0.00    +0.000 C 
ATOM      2  O   UNL     1       5.066   6.947  15.459  0.00  0.00    +0.000 OA
ENDROOT
BRANCH   1   7
ATOM      3  C   UNL     1       2.249   8.496  18.180  0.00  0.00    +0.000 A 
ATOM      4  C   UNL     1       2.020   7.768  19.351  0.00  0.00    +0.000 A 
ATOM      5  C   UNL     1       2.772   6.624  19.622  0.00  0.00    +0.000 A 
ATOM      6  C   UNL     1       3.745   6.196  18.713  0.00  0.00    +0.000 A 
ATOM      7  C   UNL     1       3.998   6.931  17.547  0.00  0.00    +0.000 A 
ATOM      8  C   UNL     1       3.266   8.098  17.306  0.00  0.00    +0.000 A 
BRANCH   3  10
ATOM      9  O   UNL     1       0.199   9.686  18.050  0.00  0.00    +0.000 OA
ATOM     10  C   UNL     1       1.412   9.693  17.907  0.00  0.00    +0.000 C 
BRANCH  10  11
ATOM     11  O   UNL     1       2.089  10.769  17.459  0.00  0.00    +0.000 OA
ATOM     12  H   UNL     1       2.467  10.707  16.558  0.00  0.00    +0.000 HD
ENDBRANCH  10  11
ENDBRANCH   3  10
ENDBRANCH   1   7
BRANCH   1  13
ATOM     13  C   UNL     1       5.908   5.254  16.950  0.00  0.00    +0.000 C 
BRANCH  13  14
ATOM     14  S   UNL     1       5.316   3.680  16.272  0.00  0.00    +0.000 S 
BRANCH  14  15
ATOM     15  C   UNL     1       4.112   3.221  17.414  0.00  0.00    +0.000 A 
ATOM     16  N   UNL     1       2.806   3.209  17.266  0.00  0.00    +0.000 NA
ATOM     17  C   UNL     1       2.323   2.957  18.534  0.00  0.00    +0.000 A 
ATOM     18  C   UNL     1       1.002   2.896  19.004  0.00  0.00    +0.000 A 
ATOM     19  C   UNL     1       0.778   2.766  20.378  0.00  0.00    +0.000 A 
ATOM     20  C   UNL     1       1.845   2.639  21.267  0.00  0.00    +0.000 A 
ATOM     21  C   UNL     1       3.169   2.622  20.814  0.00  0.00    +0.000 A 
ATOM     22  C   UNL     1       3.365   2.797  19.444  0.00  0.00    +0.000 A 
ATOM     23  N   UNL     1       4.497   2.881  18.677  0.00  0.00    +0.000 N 
ATOM     24  H   UNL     1       5.451   2.815  18.996  0.00  0.00    +0.000 HD
ENDBRANCH  14  15
ENDBRANCH  13  14
ENDBRANCH   1  13
TORSDOF 6
ENDMDL
MODEL 9
REMARK VINA RESULT:      -7.7      3.083      7.466
REMARK  Name = 
REMARK  6 active torsions:
REMARK  status: ('A' for Active; 'I' for Inactive)
REMARK    1  A    between atoms: C_2  and  O_3
REMARK    2  A    between atoms: C_2  and  C_4
REMARK    3  A    between atoms: C_8  and  C_9
REMARK    4  A    between atoms: C_9  and  C_11
REMARK    5  A    between atoms: C_11  and  S_12
REMARK    6  A    between atoms: S_12  and  C_13
REMARK                            x       y       z     vdW  Elec       q    Type
REMARK                         _______ _______ _______ _____ _____    ______ ____
ROOT
ATOM      1  C   UNL     1       4.041   5.905  18.338  0.00  0.00    +0.000 C 
ATOM      2  O   UNL     1       3.639   7.008  17.972  0.00  0.00    +0.000 OA
ENDROOT
BRANCH   1   7
ATOM      3  C   UNL     1       2.054   3.302  20.282  0.00  0.00    +0.000 A 
ATOM      4  C   UNL     1       1.045   2.998  19.363  0.00  0.00    +0.000 A 
ATOM      5  C   UNL     1       1.025   3.621  18.115  0.00  0.00    +0.000 A 
ATOM      6  C   UNL     1       2.005   4.564  17.789  0.00  0.00    +0.000 A 
ATOM      7  C   UNL     1       3.034   4.859  18.694  0.00  0.00    +0.000 A 
ATOM      8  C   UNL     1       3.067   4.199  19.926  0.00  0.00    +0.000 A 
BRANCH   3  10
ATOM      9  O   UNL     1       1.027   2.611  22.308  0.00  0.00    +0.000 OA
ATOM     10  C   UNL     1       2.031   2.642  21.612  0.00  0.00    +0.000 C 
BRANCH  10  11
ATOM     11  O   UNL     1       3.208   2.113  22.005  0.00  0.00    +0.000 OA
ATOM     12  H   UNL     1       3.851   2.726  22.414  0.00  0.00    +0.000 HD
ENDBRANCH  10  11
ENDBRANCH   3  10
ENDBRANCH   1   7
BRANCH   1  13
ATOM     13  C   UNL     1       5.527   5.572  18.387  0.00  0.00    +0.000 C 
BRANCH  13  14
ATOM     14  S   UNL     1       6.509   6.624  17.284  0.00  0.00    +0.000 S 
BRANCH  14  15
ATOM     15  C   UNL     1       6.640   5.648  15.871  0.00  0.00    +0.000 A 
ATOM     16  N   UNL     1       7.609   5.620  14.984  0.00  0.00    +0.000 NA
ATOM     17  C   UNL     1       7.118   4.821  13.970  0.00  0.00    +0.000 A 
ATOM     18  C   UNL     1       7.681   4.483  12.730  0.00  0.00    +0.000 A 
ATOM     19  C   UNL     1       6.909   3.766  11.810  0.00  0.00    +0.000 A 
ATOM     20  C   UNL     1       5.624   3.338  12.136  0.00  0.00    +0.000 A 
ATOM     21  C   UNL     1       5.069   3.597  13.394  0.00  0.00    +0.000 A 
ATOM     22  C   UNL     1       5.843   4.352  14.276  0.00  0.00    +0.000 A 
ATOM     23  N   UNL     1       5.605   4.825  15.540  0.00  0.00    +0.000 N 
ATOM     24  H   UNL     1       4.771   4.689  16.091  0.00  0.00    +0.000 HD
ENDBRANCH  14  15
ENDBRANCH  13  14
ENDBRANCH   1  13
TORSDOF 6
ENDMDL
