MODEL 1
REMARK VINA RESULT:      -8.0      0.000      0.000
REMARK  Name = 
REMARK  4 active torsions:
REMARK  status: ('A' for Active; 'I' for Inactive)
REMARK    1  A    between atoms: C_5  and  C_6
REMARK    2  A    between atoms: C_7  and  C_8
REMARK    3  A    between atoms: N_11  and  C_12
REMARK    4  A    between atoms: N_19  and  C_20
REMARK                            x       y       z     vdW  Elec       q    Type
REMARK                         _______ _______ _______ _____ _____    ______ ____
ROOT
ATOM      1  C   UNL     1       0.381  10.145  21.339  0.00  0.00    +0.000 A 
ATOM      2  S   UNL     1       1.481   9.073  22.113  0.00  0.00    +0.000 S 
ATOM      3  C   UNL     1       1.557   8.103  20.690  0.00  0.00    +0.000 A 
ATOM      4  N   UNL     1       2.279   6.960  20.702  0.00  0.00    +0.000 N 
ATOM      5  N   UNL     1       0.882   8.615  19.681  0.00  0.00    +0.000 NA
ATOM      6  N   UNL     1       0.195   9.754  20.080  0.00  0.00    +0.000 N 
ATOM      7  H   UNL     1       2.865   6.775  21.513  0.00  0.00    +0.000 HD
ENDROOT
BRANCH   4   8
ATOM      8  C   UNL     1       1.987   5.781  19.978  0.00  0.00    +0.000 A 
ATOM      9  C   UNL     1       1.259   4.710  20.510  0.00  0.00    +0.000 A 
ATOM     10  C   UNL     1       0.948   3.593  19.731  0.00  0.00    +0.000 A 
ATOM     11  C   UNL     1       1.351   3.534  18.402  0.00  0.00    +0.000 A 
ATOM     12  C   UNL     1       2.073   4.589  17.852  0.00  0.00    +0.000 A 
ATOM     13  C   UNL     1       2.385   5.705  18.634  0.00  0.00    +0.000 A 
ENDBRANCH   4   8
BRANCH   6  14
ATOM     14  C   UNL     1      -0.645  10.439  19.072  0.00  0.00    +0.000 A 
ATOM     15  C   UNL     1      -0.447  11.777  18.721  0.00  0.00    +0.000 A 
ATOM     16  C   UNL     1      -1.244  12.353  17.727  0.00  0.00    +0.000 A 
ATOM     17  C   UNL     1      -2.243  11.605  17.107  0.00  0.00    +0.000 A 
ATOM     18  C   UNL     1      -2.467  10.283  17.488  0.00  0.00    +0.000 A 
ATOM     19  C   UNL     1      -1.676   9.696  18.482  0.00  0.00    +0.000 A 
ENDBRANCH   6  14
BRANCH   1  21
ATOM     20  C   UNL     1      -1.400  11.327  22.405  0.00  0.00    +0.000 C 
ATOM     21  C   UNL     1      -0.115  11.282  22.019  0.00  0.00    +0.000 C 
BRANCH  20  26
ATOM     22  F   UNL     1      -3.660  15.447  25.452  0.00  0.00    +0.000 F 
ATOM     23  C   UNL     1      -3.125  14.493  24.681  0.00  0.00    +0.000 A 
ATOM     24  C   UNL     1      -3.839  13.326  24.448  0.00  0.00    +0.000 A 
ATOM     25  C   UNL     1      -3.267  12.308  23.678  0.00  0.00    +0.000 A 
ATOM     26  C   UNL     1      -1.981  12.458  23.138  0.00  0.00    +0.000 A 
ATOM     27  C   UNL     1      -1.281  13.650  23.377  0.00  0.00    +0.000 A 
ATOM     28  C   UNL     1      -1.856  14.668  24.144  0.00  0.00    +0.000 A 
ENDBRANCH  20  26
ENDBRANCH   1  21
TORSDOF 4
ENDMDL
MODEL 2
REMARK VINA RESULT:      -8.0      0.177      1.616
REMARK  Name = 
REMARK  4 active torsions:
REMARK  status: ('A' for Active; 'I' for Inactive)
REMARK    1  A    between atoms: C_5  and  C_6
REMARK    2  A    between atoms: C_7  and  C_8
REMARK    3  A    between atoms: N_11  and  C_12
REMARK    4  A    between atoms: N_19  and  C_20
REMARK                            x       y       z     vdW  Elec       q    Type
REMARK                         _______ _______ _______ _____ _____    ______ ____
ROOT
ATOM      1  C   UNL     1       0.333  10.084  21.369  0.00  0.00    +0.000 A 
ATOM      2  S   UNL     1       1.411   8.984  22.135  0.00  0.00    +0.000 S 
ATOM      3  C   UNL     1       1.518   8.058  20.685  0.00  0.00    +0.000 A 
ATOM      4  N   UNL     1       2.236   6.912  20.678  0.00  0.00    +0.000 N 
ATOM      5  N   UNL     1       0.868   8.604  19.676  0.00  0.00    +0.000 NA
ATOM      6  N   UNL     1       0.176   9.733  20.095  0.00  0.00    +0.000 N 
ATOM      7  H   UNL     1       2.802   6.700  21.495  0.00  0.00    +0.000 HD
ENDROOT
BRANCH   4   8
ATOM      8  C   UNL     1       1.957   5.758  19.911  0.00  0.00    +0.000 A 
ATOM      9  C   UNL     1       2.365   5.599  18.581  0.00  0.00    +0.000 A 
ATOM     10  C   UNL     1       2.113   4.413  17.887  0.00  0.00    +0.000 A 
ATOM     11  C   UNL     1       1.460   3.360  18.517  0.00  0.00    +0.000 A 
ATOM     12  C   UNL     1       1.050   3.495  19.840  0.00  0.00    +0.000 A 
ATOM     13  C   UNL     1       1.300   4.684  20.532  0.00  0.00    +0.000 A 
ENDBRANCH   4   8
BRANCH   6  14
ATOM     14  C   UNL     1      -0.638  10.452  19.089  0.00  0.00    +0.000 A 
ATOM     15  C   UNL     1      -1.682   9.835  18.396  0.00  0.00    +0.000 A 
ATOM     16  C   UNL     1      -2.444  10.582  17.492  0.00  0.00    +0.000 A 
ATOM     17  C   UNL     1      -2.149  11.925  17.266  0.00  0.00    +0.000 A 
ATOM     18  C   UNL     1      -1.080  12.528  17.927  0.00  0.00    +0.000 A 
ATOM     19  C   UNL     1      -0.311  11.790  18.833  0.00  0.00    +0.000 A 
ENDBRANCH   6  14
BRANCH   1  21
ATOM     20  C   UNL     1      -1.449  11.207  22.495  0.00  0.00    +0.000 C 
ATOM     21  C   UNL     1      -0.174  11.201  22.073  0.00  0.00    +0.000 C 
BRANCH  20  26
ATOM     22  F   UNL     1      -3.662  15.623  25.134  0.00  0.00    +0.000 F 
ATOM     23  C   UNL     1      -3.131  14.543  24.549  0.00  0.00    +0.000 A 
ATOM     24  C   UNL     1      -1.838  14.606  24.047  0.00  0.00    +0.000 A 
ATOM     25  C   UNL     1      -1.294  13.494  23.397  0.00  0.00    +0.000 A 
ATOM     26  C   UNL     1      -2.041  12.315  23.254  0.00  0.00    +0.000 A 
ATOM     27  C   UNL     1      -3.341  12.269  23.778  0.00  0.00    +0.000 A 
ATOM     28  C   UNL     1      -3.883  13.380  24.430  0.00  0.00    +0.000 A 
ENDBRANCH  20  26
ENDBRANCH   1  21
TORSDOF 4
ENDMDL
MODEL 3
REMARK VINA RESULT:      -7.7      3.155      5.986
REMARK  Name = 
REMARK  4 active torsions:
REMARK  status: ('A' for Active; 'I' for Inactive)
REMARK    1  A    between atoms: C_5  and  C_6
REMARK    2  A    between atoms: C_7  and  C_8
REMARK    3  A    between atoms: N_11  and  C_12
REMARK    4  A    between atoms: N_19  and  C_20
REMARK                            x       y       z     vdW  Elec       q    Type
REMARK                         _______ _______ _______ _____ _____    ______ ____
ROOT
ATOM      1  C   UNL     1       2.243   7.257  19.259  0.00  0.00    +0.000 A 
ATOM      2  S   UNL     1       2.939   8.206  18.004  0.00  0.00    +0.000 S 
ATOM      3  C   UNL     1       3.591   6.786  17.275  0.00  0.00    +0.000 A 
ATOM      4  N   UNL     1       4.378   6.902  16.181  0.00  0.00    +0.000 N 
ATOM      5  N   UNL     1       3.219   5.678  17.882  0.00  0.00    +0.000 NA
ATOM      6  N   UNL     1       2.483   5.969  19.024  0.00  0.00    +0.000 N 
ATOM      7  H   UNL     1       4.453   7.816  15.743  0.00  0.00    +0.000 HD
ENDROOT
BRANCH   4   8
ATOM      8  C   UNL     1       5.460   6.059  15.840  0.00  0.00    +0.000 A 
ATOM      9  C   UNL     1       6.529   5.789  16.702  0.00  0.00    +0.000 A 
ATOM     10  C   UNL     1       7.544   4.902  16.337  0.00  0.00    +0.000 A 
ATOM     11  C   UNL     1       7.499   4.259  15.105  0.00  0.00    +0.000 A 
ATOM     12  C   UNL     1       6.444   4.510  14.233  0.00  0.00    +0.000 A 
ATOM     13  C   UNL     1       5.431   5.400  14.600  0.00  0.00    +0.000 A 
ENDBRANCH   4   8
BRANCH   6  14
ATOM     14  C   UNL     1       2.013   4.832  19.846  0.00  0.00    +0.000 A 
ATOM     15  C   UNL     1       1.002   3.969  19.417  0.00  0.00    +0.000 A 
ATOM     16  C   UNL     1       0.635   2.885  20.221  0.00  0.00    +0.000 A 
ATOM     17  C   UNL     1       1.256   2.682  21.451  0.00  0.00    +0.000 A 
ATOM     18  C   UNL     1       2.234   3.569  21.898  0.00  0.00    +0.000 A 
ATOM     19  C   UNL     1       2.609   4.656  21.102  0.00  0.00    +0.000 A 
ENDBRANCH   6  14
BRANCH   1  21
ATOM     20  C   UNL     1       1.088   9.144  20.158  0.00  0.00    +0.000 C 
ATOM     21  C   UNL     1       1.481   7.867  20.283  0.00  0.00    +0.000 C 
BRANCH  20  26
ATOM     22  F   UNL     1      -2.266  11.773  23.792  0.00  0.00    +0.000 F 
ATOM     23  C   UNL     1      -1.423  11.159  22.953  0.00  0.00    +0.000 A 
ATOM     24  C   UNL     1      -1.233  11.677  21.680  0.00  0.00    +0.000 A 
ATOM     25  C   UNL     1      -0.386  11.017  20.784  0.00  0.00    +0.000 A 
ATOM     26  C   UNL     1       0.274   9.838  21.163  0.00  0.00    +0.000 A 
ATOM     27  C   UNL     1       0.075   9.337  22.458  0.00  0.00    +0.000 A 
ATOM     28  C   UNL     1      -0.769  10.001  23.354  0.00  0.00    +0.000 A 
ENDBRANCH  20  26
ENDBRANCH   1  21
TORSDOF 4
ENDMDL
MODEL 4
REMARK VINA RESULT:      -7.7      4.325      8.679
REMARK  Name = 
REMARK  4 active torsions:
REMARK  status: ('A' for Active; 'I' for Inactive)
REMARK    1  A    between atoms: C_5  and  C_6
REMARK    2  A    between atoms: C_7  and  C_8
REMARK    3  A    between atoms: N_11  and  C_12
REMARK    4  A    between atoms: N_19  and  C_20
REMARK                            x       y       z     vdW  Elec       q    Type
REMARK                         _______ _______ _______ _____ _____    ______ ____
ROOT
ATOM      1  C   UNL     1       0.593  11.622  19.430  0.00  0.00    +0.000 A 
ATOM      2  S   UNL     1       1.721  12.808  19.960  0.00  0.00    +0.000 S 
ATOM      3  C   UNL     1       0.696  14.064  19.374  0.00  0.00    +0.000 A 
ATOM      4  N   UNL     1       1.111  15.349  19.447  0.00  0.00    +0.000 N 
ATOM      5  N   UNL     1      -0.453  13.617  18.910  0.00  0.00    +0.000 NA
ATOM      6  N   UNL     1      -0.477  12.228  18.919  0.00  0.00    +0.000 N 
ATOM      7  H   UNL     1       1.962  15.546  19.967  0.00  0.00    +0.000 HD
ENDROOT
BRANCH   4   8
ATOM      8  C   UNL     1       0.798  16.379  18.530  0.00  0.00    +0.000 A 
ATOM      9  C   UNL     1      -0.490  16.903  18.370  0.00  0.00    +0.000 A 
ATOM     10  C   UNL     1      -0.734  17.961  17.492  0.00  0.00    +0.000 A 
ATOM     11  C   UNL     1       0.312  18.522  16.767  0.00  0.00    +0.000 A 
ATOM     12  C   UNL     1       1.601  18.019  16.914  0.00  0.00    +0.000 A 
ATOM     13  C   UNL     1       1.842  16.958  17.792  0.00  0.00    +0.000 A 
ENDBRANCH   4   8
BRANCH   6  14
ATOM     14  C   UNL     1      -1.689  11.558  18.397  0.00  0.00    +0.000 A 
ATOM     15  C   UNL     1      -1.622  10.510  17.475  0.00  0.00    +0.000 A 
ATOM     16  C   UNL     1      -2.802   9.887  17.055  0.00  0.00    +0.000 A 
ATOM     17  C   UNL     1      -4.036  10.324  17.534  0.00  0.00    +0.000 A 
ATOM     18  C   UNL     1      -4.103  11.397  18.421  0.00  0.00    +0.000 A 
ATOM     19  C   UNL     1      -2.929  12.028  18.847  0.00  0.00    +0.000 A 
ENDBRANCH   6  14
BRANCH   1  21
ATOM     20  C   UNL     1       1.657   9.577  18.806  0.00  0.00    +0.000 C 
ATOM     21  C   UNL     1       0.844  10.246  19.639  0.00  0.00    +0.000 C 
BRANCH  20  26
ATOM     22  F   UNL     1       2.619   4.108  19.535  0.00  0.00    +0.000 F 
ATOM     23  C   UNL     1       2.441   5.423  19.357  0.00  0.00    +0.000 A 
ATOM     24  C   UNL     1       1.994   6.200  20.417  0.00  0.00    +0.000 A 
ATOM     25  C   UNL     1       1.766   7.566  20.224  0.00  0.00    +0.000 A 
ATOM     26  C   UNL     1       1.988   8.157  18.971  0.00  0.00    +0.000 A 
ATOM     27  C   UNL     1       2.449   7.356  17.916  0.00  0.00    +0.000 A 
ATOM     28  C   UNL     1       2.681   5.991  18.111  0.00  0.00    +0.000 A 
ENDBRANCH  20  26
ENDBRANCH   1  21
TORSDOF 4
ENDMDL
MODEL 5
REMARK VINA RESULT:      -7.6      0.691      1.161
REMARK  Name = 
REMARK  4 active torsions:
REMARK  status: ('A' for Active; 'I' for Inactive)
REMARK    1  A    between atoms: C_5  and  C_6
REMARK    2  A    between atoms: C_7  and  C_8
REMARK    3  A    between atoms: N_11  and  C_12
REMARK    4  A    between atoms: N_19  and  C_20
REMARK                            x       y       z     vdW  Elec       q    Type
REMARK                         _______ _______ _______ _____ _____    ______ ____
ROOT
ATOM      1  C   UNL     1       0.023  10.435  20.910  0.00  0.00    +0.000 A 
ATOM      2  S   UNL     1       1.303   9.584  21.684  0.00  0.00    +0.000 S 
ATOM      3  C   UNL     1       1.373   8.470  20.369  0.00  0.00    +0.000 A 
ATOM      4  N   UNL     1       2.224   7.421  20.432  0.00  0.00    +0.000 N 
ATOM      5  N   UNL     1       0.561   8.787  19.381  0.00  0.00    +0.000 NA
ATOM      6  N   UNL     1      -0.220   9.884  19.723  0.00  0.00    +0.000 N 
ATOM      7  H   UNL     1       2.893   7.395  21.197  0.00  0.00    +0.000 HD
ENDROOT
BRANCH   4   8
ATOM      8  C   UNL     1       2.013   6.142  19.866  0.00  0.00    +0.000 A 
ATOM      9  C   UNL     1       2.381   5.808  18.558  0.00  0.00    +0.000 A 
ATOM     10  C   UNL     1       2.203   4.512  18.068  0.00  0.00    +0.000 A 
ATOM     11  C   UNL     1       1.666   3.524  18.885  0.00  0.00    +0.000 A 
ATOM     12  C   UNL     1       1.297   3.834  20.191  0.00  0.00    +0.000 A 
ATOM     13  C   UNL     1       1.473   5.132  20.678  0.00  0.00    +0.000 A 
ENDBRANCH   4   8
BRANCH   6  14
ATOM     14  C   UNL     1      -1.215  10.354  18.734  0.00  0.00    +0.000 A 
ATOM     15  C   UNL     1      -2.088  11.412  18.999  0.00  0.00    +0.000 A 
ATOM     16  C   UNL     1      -2.974  11.839  18.005  0.00  0.00    +0.000 A 
ATOM     17  C   UNL     1      -3.003  11.198  16.768  0.00  0.00    +0.000 A 
ATOM     18  C   UNL     1      -2.162  10.115  16.520  0.00  0.00    +0.000 A 
ATOM     19  C   UNL     1      -1.271   9.679  17.507  0.00  0.00    +0.000 A 
ENDBRANCH   6  14
BRANCH   1  21
ATOM     20  C   UNL     1      -1.367  11.451  22.565  0.00  0.00    +0.000 C 
ATOM     21  C   UNL     1      -0.544  11.582  21.512  0.00  0.00    +0.000 C 
BRANCH  20  26
ATOM     22  F   UNL     1      -3.741  15.614  25.465  0.00  0.00    +0.000 F 
ATOM     23  C   UNL     1      -3.175  14.649  24.729  0.00  0.00    +0.000 A 
ATOM     24  C   UNL     1      -3.894  13.494  24.452  0.00  0.00    +0.000 A 
ATOM     25  C   UNL     1      -3.293  12.466  23.719  0.00  0.00    +0.000 A 
ATOM     26  C   UNL     1      -1.973  12.593  23.260  0.00  0.00    +0.000 A 
ATOM     27  C   UNL     1      -1.268  13.773  23.542  0.00  0.00    +0.000 A 
ATOM     28  C   UNL     1      -1.872  14.802  24.272  0.00  0.00    +0.000 A 
ENDBRANCH  20  26
ENDBRANCH   1  21
TORSDOF 4
ENDMDL
MODEL 6
REMARK VINA RESULT:      -7.6      4.348      8.703
REMARK  Name = 
REMARK  4 active torsions:
REMARK  status: ('A' for Active; 'I' for Inactive)
REMARK    1  A    between atoms: C_5  and  C_6
REMARK    2  A    between atoms: C_7  and  C_8
REMARK    3  A    between atoms: N_11  and  C_12
REMARK    4  A    between atoms: N_19  and  C_20
REMARK                            x       y       z     vdW  Elec       q    Type
REMARK                         _______ _______ _______ _____ _____    ______ ____
ROOT
ATOM      1  C   UNL     1       0.469  11.658  19.451  0.00  0.00    +0.000 A 
ATOM      2  S   UNL     1       1.588  12.838  20.014  0.00  0.00    +0.000 S 
ATOM      3  C   UNL     1       0.583  14.100  19.405  0.00  0.00    +0.000 A 
ATOM      4  N   UNL     1       1.001  15.383  19.492  0.00  0.00    +0.000 N 
ATOM      5  N   UNL     1      -0.555  13.658  18.909  0.00  0.00    +0.000 NA
ATOM      6  N   UNL     1      -0.584  12.270  18.914  0.00  0.00    +0.000 N 
ATOM      7  H   UNL     1       1.839  15.576  20.035  0.00  0.00    +0.000 HD
ENDROOT
BRANCH   4   8
ATOM      8  C   UNL     1       0.717  16.417  18.570  0.00  0.00    +0.000 A 
ATOM      9  C   UNL     1      -0.561  16.960  18.391  0.00  0.00    +0.000 A 
ATOM     10  C   UNL     1      -0.776  18.020  17.508  0.00  0.00    +0.000 A 
ATOM     11  C   UNL     1       0.288  18.565  16.798  0.00  0.00    +0.000 A 
ATOM     12  C   UNL     1       1.567  18.043  16.964  0.00  0.00    +0.000 A 
ATOM     13  C   UNL     1       1.780  16.979  17.846  0.00  0.00    +0.000 A 
ENDBRANCH   4   8
BRANCH   6  14
ATOM     14  C   UNL     1      -1.784  11.606  18.357  0.00  0.00    +0.000 A 
ATOM     15  C   UNL     1      -3.075  11.901  18.804  0.00  0.00    +0.000 A 
ATOM     16  C   UNL     1      -4.171  11.273  18.205  0.00  0.00    +0.000 A 
ATOM     17  C   UNL     1      -3.977  10.343  17.186  0.00  0.00    +0.000 A 
ATOM     18  C   UNL     1      -2.687  10.017  16.771  0.00  0.00    +0.000 A 
ATOM     19  C   UNL     1      -1.583  10.639  17.363  0.00  0.00    +0.000 A 
ENDBRANCH   6  14
BRANCH   1  21
ATOM     20  C   UNL     1       1.576   9.621  18.877  0.00  0.00    +0.000 C 
ATOM     21  C   UNL     1       0.710  10.281  19.663  0.00  0.00    +0.000 C 
BRANCH  20  26
ATOM     22  F   UNL     1       3.107   4.265  19.451  0.00  0.00    +0.000 F 
ATOM     23  C   UNL     1       2.691   5.529  19.317  0.00  0.00    +0.000 A 
ATOM     24  C   UNL     1       2.853   6.174  18.099  0.00  0.00    +0.000 A 
ATOM     25  C   UNL     1       2.459   7.510  17.966  0.00  0.00    +0.000 A 
ATOM     26  C   UNL     1       1.898   8.199  19.051  0.00  0.00    +0.000 A 
ATOM     27  C   UNL     1       1.734   7.526  20.270  0.00  0.00    +0.000 A 
ATOM     28  C   UNL     1       2.125   6.190  20.401  0.00  0.00    +0.000 A 
ENDBRANCH  20  26
ENDBRANCH   1  21
TORSDOF 4
ENDMDL
MODEL 7
REMARK VINA RESULT:      -7.5      4.402      8.820
REMARK  Name = 
REMARK  4 active torsions:
REMARK  status: ('A' for Active; 'I' for Inactive)
REMARK    1  A    between atoms: C_5  and  C_6
REMARK    2  A    between atoms: C_7  and  C_8
REMARK    3  A    between atoms: N_11  and  C_12
REMARK    4  A    between atoms: N_19  and  C_20
REMARK                            x       y       z     vdW  Elec       q    Type
REMARK                         _______ _______ _______ _____ _____    ______ ____
ROOT
ATOM      1  C   UNL     1       0.692  11.590  19.377  0.00  0.00    +0.000 A 
ATOM      2  S   UNL     1       1.805  12.767  19.955  0.00  0.00    +0.000 S 
ATOM      3  C   UNL     1       0.757  14.033  19.434  0.00  0.00    +0.000 A 
ATOM      4  N   UNL     1       1.153  15.320  19.563  0.00  0.00    +0.000 N 
ATOM      5  N   UNL     1      -0.389  13.590  18.958  0.00  0.00    +0.000 NA
ATOM      6  N   UNL     1      -0.391  12.202  18.903  0.00  0.00    +0.000 N 
ATOM      7  H   UNL     1       2.004  15.506  20.087  0.00  0.00    +0.000 HD
ENDROOT
BRANCH   4   8
ATOM      8  C   UNL     1       0.818  16.386  18.698  0.00  0.00    +0.000 A 
ATOM      9  C   UNL     1       1.737  17.000  17.840  0.00  0.00    +0.000 A 
ATOM     10  C   UNL     1       1.339  18.012  16.962  0.00  0.00    +0.000 A 
ATOM     11  C   UNL     1       0.010  18.416  16.920  0.00  0.00    +0.000 A 
ATOM     12  C   UNL     1      -0.922  17.816  17.762  0.00  0.00    +0.000 A 
ATOM     13  C   UNL     1      -0.521  16.806  18.641  0.00  0.00    +0.000 A 
ENDBRANCH   4   8
BRANCH   6  14
ATOM     14  C   UNL     1      -1.596  11.538  18.357  0.00  0.00    +0.000 A 
ATOM     15  C   UNL     1      -1.518  10.495  17.431  0.00  0.00    +0.000 A 
ATOM     16  C   UNL     1      -2.693   9.878  16.989  0.00  0.00    +0.000 A 
ATOM     17  C   UNL     1      -3.933  10.315  17.451  0.00  0.00    +0.000 A 
ATOM     18  C   UNL     1      -4.011  11.384  18.342  0.00  0.00    +0.000 A 
ATOM     19  C   UNL     1      -2.843  12.009  18.791  0.00  0.00    +0.000 A 
ENDBRANCH   6  14
BRANCH   1  21
ATOM     20  C   UNL     1       1.831   9.606  18.691  0.00  0.00    +0.000 C 
ATOM     21  C   UNL     1       0.965  10.210  19.521  0.00  0.00    +0.000 C 
BRANCH  20  26
ATOM     22  F   UNL     1       3.496   4.270  19.035  0.00  0.00    +0.000 F 
ATOM     23  C   UNL     1       3.049   5.528  18.948  0.00  0.00    +0.000 A 
ATOM     24  C   UNL     1       3.339   6.278  17.816  0.00  0.00    +0.000 A 
ATOM     25  C   UNL     1       2.910   7.607  17.739  0.00  0.00    +0.000 A 
ATOM     26  C   UNL     1       2.187   8.186  18.792  0.00  0.00    +0.000 A 
ATOM     27  C   UNL     1       1.895   7.408  19.923  0.00  0.00    +0.000 A 
ATOM     28  C   UNL     1       2.322   6.078  19.997  0.00  0.00    +0.000 A 
ENDBRANCH  20  26
ENDBRANCH   1  21
TORSDOF 4
ENDMDL
MODEL 8
REMARK VINA RESULT:      -7.4      4.277      8.627
REMARK  Name = 
REMARK  4 active torsions:
REMARK  status: ('A' for Active; 'I' for Inactive)
REMARK    1  A    between atoms: C_5  and  C_6
REMARK    2  A    between atoms: C_7  and  C_8
REMARK    3  A    between atoms: N_11  and  C_12
REMARK    4  A    between atoms: N_19  and  C_20
REMARK                            x       y       z     vdW  Elec       q    Type
REMARK                         _______ _______ _______ _____ _____    ______ ____
ROOT
ATOM      1  C   UNL     1       0.467  11.564  19.514  0.00  0.00    +0.000 A 
ATOM      2  S   UNL     1       1.581  12.715  20.142  0.00  0.00    +0.000 S 
ATOM      3  C   UNL     1       0.606  14.005  19.542  0.00  0.00    +0.000 A 
ATOM      4  N   UNL     1       1.034  15.281  19.678  0.00  0.00    +0.000 N 
ATOM      5  N   UNL     1      -0.522  13.590  19.003  0.00  0.00    +0.000 NA
ATOM      6  N   UNL     1      -0.565  12.202  18.966  0.00  0.00    +0.000 N 
ATOM      7  H   UNL     1       1.858  15.448  20.249  0.00  0.00    +0.000 HD
ENDROOT
BRANCH   4   8
ATOM      8  C   UNL     1       0.785  16.344  18.779  0.00  0.00    +0.000 A 
ATOM      9  C   UNL     1       1.772  16.910  17.963  0.00  0.00    +0.000 A 
ATOM     10  C   UNL     1       1.459  17.920  17.051  0.00  0.00    +0.000 A 
ATOM     11  C   UNL     1       0.150  18.371  16.930  0.00  0.00    +0.000 A 
ATOM     12  C   UNL     1      -0.847  17.820  17.728  0.00  0.00    +0.000 A 
ATOM     13  C   UNL     1      -0.532  16.811  18.644  0.00  0.00    +0.000 A 
ENDBRANCH   4   8
BRANCH   6  14
ATOM     14  C   UNL     1      -1.756  11.568  18.357  0.00  0.00    +0.000 A 
ATOM     15  C   UNL     1      -3.056  11.875  18.766  0.00  0.00    +0.000 A 
ATOM     16  C   UNL     1      -4.141  11.276  18.119  0.00  0.00    +0.000 A 
ATOM     17  C   UNL     1      -3.927  10.361  17.090  0.00  0.00    +0.000 A 
ATOM     18  C   UNL     1      -2.629  10.022  16.713  0.00  0.00    +0.000 A 
ATOM     19  C   UNL     1      -1.535  10.616  17.353  0.00  0.00    +0.000 A 
ENDBRANCH   6  14
BRANCH   1  21
ATOM     20  C   UNL     1       1.634   9.551  18.975  0.00  0.00    +0.000 C 
ATOM     21  C   UNL     1       0.688  10.179  19.692  0.00  0.00    +0.000 C 
BRANCH  20  26
ATOM     22  F   UNL     1       2.504   4.058  19.635  0.00  0.00    +0.000 F 
ATOM     23  C   UNL     1       2.348   5.378  19.473  0.00  0.00    +0.000 A 
ATOM     24  C   UNL     1       1.928   6.151  20.546  0.00  0.00    +0.000 A 
ATOM     25  C   UNL     1       1.723   7.523  20.371  0.00  0.00    +0.000 A 
ATOM     26  C   UNL     1       1.941   8.123  19.122  0.00  0.00    +0.000 A 
ATOM     27  C   UNL     1       2.374   7.325  18.053  0.00  0.00    +0.000 A 
ATOM     28  C   UNL     1       2.583   5.954  18.231  0.00  0.00    +0.000 A 
ENDBRANCH  20  26
ENDBRANCH   1  21
TORSDOF 4
ENDMDL
MODEL 9
REMARK VINA RESULT:      -7.3      0.965      1.187
REMARK  Name = 
REMARK  4 active torsions:
REMARK  status: ('A' for Active; 'I' for Inactive)
REMARK    1  A    between atoms: C_5  and  C_6
REMARK    2  A    between atoms: C_7  and  C_8
REMARK    3  A    between atoms: N_11  and  C_12
REMARK    4  A    between atoms: N_19  and  C_20
REMARK                            x       y       z     vdW  Elec       q    Type
REMARK                         _______ _______ _______ _____ _____    ______ ____
ROOT
ATOM      1  C   UNL     1      -0.430  10.627  20.818  0.00  0.00    +0.000 A 
ATOM      2  S   UNL     1       0.875   9.919  21.687  0.00  0.00    +0.000 S 
ATOM      3  C   UNL     1       1.154   8.814  20.395  0.00  0.00    +0.000 A 
ATOM      4  N   UNL     1       2.104   7.860  20.528  0.00  0.00    +0.000 N 
ATOM      5  N   UNL     1       0.384   9.038  19.349  0.00  0.00    +0.000 NA
ATOM      6  N   UNL     1      -0.530  10.048  19.624  0.00  0.00    +0.000 N 
ATOM      7  H   UNL     1       2.717   7.908  21.337  0.00  0.00    +0.000 HD
ENDROOT
BRANCH   4   8
ATOM      8  C   UNL     1       2.069   6.564  19.965  0.00  0.00    +0.000 A 
ATOM      9  C   UNL     1       1.511   5.456  20.614  0.00  0.00    +0.000 A 
ATOM     10  C   UNL     1       1.450   4.209  19.988  0.00  0.00    +0.000 A 
ATOM     11  C   UNL     1       1.935   4.053  18.694  0.00  0.00    +0.000 A 
ATOM     12  C   UNL     1       2.490   5.141  18.029  0.00  0.00    +0.000 A 
ATOM     13  C   UNL     1       2.553   6.388  18.659  0.00  0.00    +0.000 A 
ENDBRANCH   4   8
BRANCH   6  14
ATOM     14  C   UNL     1      -1.498  10.405  18.563  0.00  0.00    +0.000 A 
ATOM     15  C   UNL     1      -1.446   9.842  17.285  0.00  0.00    +0.000 A 
ATOM     16  C   UNL     1      -2.418  10.186  16.341  0.00  0.00    +0.000 A 
ATOM     17  C   UNL     1      -3.417  11.102  16.664  0.00  0.00    +0.000 A 
ATOM     18  C   UNL     1      -3.443  11.696  17.925  0.00  0.00    +0.000 A 
ATOM     19  C   UNL     1      -2.475  11.359  18.877  0.00  0.00    +0.000 A 
ENDBRANCH   6  14
BRANCH   1  21
ATOM     20  C   UNL     1      -1.157  11.916  22.693  0.00  0.00    +0.000 C 
ATOM     21  C   UNL     1      -1.155  11.711  21.366  0.00  0.00    +0.000 C 
BRANCH  20  26
ATOM     22  F   UNL     1      -3.934  15.973  25.374  0.00  0.00    +0.000 F 
ATOM     23  C   UNL     1      -3.268  15.035  24.691  0.00  0.00    +0.000 A 
ATOM     24  C   UNL     1      -3.928  13.877  24.302  0.00  0.00    +0.000 A 
ATOM     25  C   UNL     1      -3.225  12.875  23.626  0.00  0.00    +0.000 A 
ATOM     26  C   UNL     1      -1.862  13.032  23.334  0.00  0.00    +0.000 A 
ATOM     27  C   UNL     1      -1.216  14.214  23.727  0.00  0.00    +0.000 A 
ATOM     28  C   UNL     1      -1.921  15.216  24.400  0.00  0.00    +0.000 A 
ENDBRANCH  20  26
ENDBRANCH   1  21
TORSDOF 4
ENDMDL
