MODEL 1
REMARK VINA RESULT:      -9.0      0.000      0.000
REMARK  Name = 
REMARK  4 active torsions:
REMARK  status: ('A' for Active; 'I' for Inactive)
REMARK    1  A    between atoms: C_1  and  C_2
REMARK    2  A    between atoms: C_2  and  C_3
REMARK    3  A    between atoms: C_2  and  N_4
REMARK    4  A    between atoms: C_6  and  C_7
REMARK                            x       y       z     vdW  Elec       q    Type
REMARK                         _______ _______ _______ _____ _____    ______ ____
ROOT
ATOM      1  C   UNL     1       2.419   6.683  19.678  0.00  0.00    +0.000 C 
ATOM      2  O   UNL     1       1.757   6.206  20.562  0.00  0.00    +0.000 OA
ATOM      3  N   UNL     1       3.524   6.022  19.097  0.00  0.00    +0.000 N 
ATOM      4  C   UNL     1       4.245   6.713  18.054  0.00  0.00    +0.000 C 
ATOM      5  C   UNL     1       5.198   5.904  17.262  0.00  0.00    +0.000 A 
ATOM      6  C   UNL     1       6.533   6.293  17.168  0.00  0.00    +0.000 A 
ATOM      7  C   UNL     1       7.395   5.599  16.327  0.00  0.00    +0.000 A 
ATOM      8  C   UNL     1       6.911   4.541  15.559  0.00  0.00    +0.000 A 
ATOM      9  C   UNL     1       5.577   4.139  15.673  0.00  0.00    +0.000 A 
ATOM     10  C   UNL     1       4.740   4.798  16.555  0.00  0.00    +0.000 A 
ATOM     11  O   UNL     1       3.429   4.377  16.669  0.00  0.00    +0.000 OA
ATOM     12  C   UNL     1       3.074   3.796  17.962  0.00  0.00    +0.000 C 
ATOM     13  C   UNL     1       3.508   2.312  17.950  0.00  0.00    +0.000 C 
ATOM     14  C   UNL     1       2.955   1.553  19.147  0.00  0.00    +0.000 C 
ATOM     15  O   UNL     1       1.533   1.635  19.189  0.00  0.00    +0.000 OA
ATOM     16  C   UNL     1       1.032   2.971  19.242  0.00  0.00    +0.000 C 
ATOM     17  C   UNL     1       1.529   3.790  18.051  0.00  0.00    +0.000 C 
ATOM     18  C   UNL     1       3.681   4.565  19.189  0.00  0.00    +0.000 C 
ENDROOT
BRANCH   1  21
ATOM     19  N   UNL     1       1.253   9.985  18.745  0.00  0.00    +0.000 N 
ATOM     20  C   UNL     1       1.405   9.011  19.689  0.00  0.00    +0.000 A 
ATOM     21  C   UNL     1       2.061   7.967  19.075  0.00  0.00    +0.000 A 
ATOM     22  C   UNL     1       2.303   8.466  17.772  0.00  0.00    +0.000 A 
ATOM     23  N   UNL     1       1.797   9.672  17.557  0.00  0.00    +0.000 NA
BRANCH  19  25
ATOM     24  C   UNL     1      -0.961  11.013  18.898  0.00  0.00    +0.000 C 
ATOM     25  C   UNL     1       0.547  11.245  18.914  0.00  0.00    +0.000 C 
ATOM     26  C   UNL     1       0.992  11.960  20.191  0.00  0.00    +0.000 C 
ENDBRANCH  19  25
ENDBRANCH   1  21
TORSDOF 2
ENDMDL
MODEL 2
REMARK VINA RESULT:      -8.8      1.908      5.535
REMARK  Name = 
REMARK  4 active torsions:
REMARK  status: ('A' for Active; 'I' for Inactive)
REMARK    1  A    between atoms: C_1  and  C_2
REMARK    2  A    between atoms: C_2  and  C_3
REMARK    3  A    between atoms: C_2  and  N_4
REMARK    4  A    between atoms: C_6  and  C_7
REMARK                            x       y       z     vdW  Elec       q    Type
REMARK                         _______ _______ _______ _____ _____    ______ ____
ROOT
ATOM      1  C   UNL     1       4.240   4.714  16.997  0.00  0.00    +0.000 C 
ATOM      2  O   UNL     1       4.127   3.538  16.771  0.00  0.00    +0.000 OA
ATOM      3  N   UNL     1       3.188   5.507  17.507  0.00  0.00    +0.000 N 
ATOM      4  C   UNL     1       3.449   6.912  17.717  0.00  0.00    +0.000 C 
ATOM      5  C   UNL     1       2.452   7.657  18.518  0.00  0.00    +0.000 A 
ATOM      6  C   UNL     1       1.844   8.795  17.991  0.00  0.00    +0.000 A 
ATOM      7  C   UNL     1       1.000   9.558  18.791  0.00  0.00    +0.000 A 
ATOM      8  C   UNL     1       0.795   9.198  20.122  0.00  0.00    +0.000 A 
ATOM      9  C   UNL     1       1.387   8.043  20.639  0.00  0.00    +0.000 A 
ATOM     10  C   UNL     1       2.179   7.257  19.822  0.00  0.00    +0.000 A 
ATOM     11  O   UNL     1       2.743   6.110  20.344  0.00  0.00    +0.000 OA
ATOM     12  C   UNL     1       2.247   4.859  19.774  0.00  0.00    +0.000 C 
ATOM     13  C   UNL     1       0.931   4.497  20.501  0.00  0.00    +0.000 C 
ATOM     14  C   UNL     1       0.469   3.087  20.163  0.00  0.00    +0.000 C 
ATOM     15  O   UNL     1       1.474   2.131  20.488  0.00  0.00    +0.000 OA
ATOM     16  C   UNL     1       2.722   2.357  19.831  0.00  0.00    +0.000 C 
ATOM     17  C   UNL     1       3.262   3.753  20.147  0.00  0.00    +0.000 C 
ATOM     18  C   UNL     1       2.051   4.907  18.217  0.00  0.00    +0.000 C 
ENDROOT
BRANCH   1  21
ATOM     19  N   UNL     1       7.296   6.653  17.169  0.00  0.00    +0.000 N 
ATOM     20  C   UNL     1       6.145   6.212  17.754  0.00  0.00    +0.000 A 
ATOM     21  C   UNL     1       5.525   5.395  16.836  0.00  0.00    +0.000 A 
ATOM     22  C   UNL     1       6.441   5.377  15.755  0.00  0.00    +0.000 A 
ATOM     23  N   UNL     1       7.499   6.153  15.938  0.00  0.00    +0.000 NA
BRANCH  19  25
ATOM     24  C   UNL     1       7.719   9.028  17.571  0.00  0.00    +0.000 C 
ATOM     25  C   UNL     1       8.240   7.603  17.734  0.00  0.00    +0.000 C 
ATOM     26  C   UNL     1       8.541   7.278  19.198  0.00  0.00    +0.000 C 
ENDBRANCH  19  25
ENDBRANCH   1  21
TORSDOF 2
ENDMDL
MODEL 3
REMARK VINA RESULT:      -8.1      1.952      4.226
REMARK  Name = 
REMARK  4 active torsions:
REMARK  status: ('A' for Active; 'I' for Inactive)
REMARK    1  A    between atoms: C_1  and  C_2
REMARK    2  A    between atoms: C_2  and  C_3
REMARK    3  A    between atoms: C_2  and  N_4
REMARK    4  A    between atoms: C_6  and  C_7
REMARK                            x       y       z     vdW  Elec       q    Type
REMARK                         _______ _______ _______ _____ _____    ______ ____
ROOT
ATOM      1  C   UNL     1       2.774   7.728  17.998  0.00  0.00    +0.000 C 
ATOM      2  O   UNL     1       3.320   8.528  17.285  0.00  0.00    +0.000 OA
ATOM      3  N   UNL     1       2.865   6.332  17.806  0.00  0.00    +0.000 N 
ATOM      4  C   UNL     1       2.145   5.481  18.724  0.00  0.00    +0.000 C 
ATOM      5  C   UNL     1       2.485   4.040  18.694  0.00  0.00    +0.000 A 
ATOM      6  C   UNL     1       1.486   3.093  18.480  0.00  0.00    +0.000 A 
ATOM      7  C   UNL     1       1.789   1.739  18.573  0.00  0.00    +0.000 A 
ATOM      8  C   UNL     1       3.081   1.341  18.913  0.00  0.00    +0.000 A 
ATOM      9  C   UNL     1       4.086   2.293  19.104  0.00  0.00    +0.000 A 
ATOM     10  C   UNL     1       3.790   3.636  18.953  0.00  0.00    +0.000 A 
ATOM     11  O   UNL     1       4.797   4.564  19.128  0.00  0.00    +0.000 OA
ATOM     12  C   UNL     1       5.181   5.299  17.925  0.00  0.00    +0.000 C 
ATOM     13  C   UNL     1       6.179   4.422  17.132  0.00  0.00    +0.000 C 
ATOM     14  C   UNL     1       6.834   5.197  15.999  0.00  0.00    +0.000 C 
ATOM     15  O   UNL     1       7.502   6.355  16.493  0.00  0.00    +0.000 OA
ATOM     16  C   UNL     1       6.652   7.252  17.209  0.00  0.00    +0.000 C 
ATOM     17  C   UNL     1       5.976   6.544  18.384  0.00  0.00    +0.000 C 
ATOM     18  C   UNL     1       3.963   5.735  17.035  0.00  0.00    +0.000 C 
ENDROOT
BRANCH   1  21
ATOM     19  N   UNL     1       0.757   9.280  20.577  0.00  0.00    +0.000 N 
ATOM     20  C   UNL     1       1.197   9.246  19.286  0.00  0.00    +0.000 A 
ATOM     21  C   UNL     1       2.034   8.157  19.185  0.00  0.00    +0.000 A 
ATOM     22  C   UNL     1       1.964   7.581  20.477  0.00  0.00    +0.000 A 
ATOM     23  N   UNL     1       1.216   8.267  21.330  0.00  0.00    +0.000 NA
BRANCH  19  25
ATOM     24  C   UNL     1      -0.336   9.996  22.646  0.00  0.00    +0.000 C 
ATOM     25  C   UNL     1      -0.090  10.303  21.171  0.00  0.00    +0.000 C 
ATOM     26  C   UNL     1       0.511  11.696  20.980  0.00  0.00    +0.000 C 
ENDBRANCH  19  25
ENDBRANCH   1  21
TORSDOF 2
ENDMDL
MODEL 4
REMARK VINA RESULT:      -7.8      0.930      1.246
REMARK  Name = 
REMARK  4 active torsions:
REMARK  status: ('A' for Active; 'I' for Inactive)
REMARK    1  A    between atoms: C_1  and  C_2
REMARK    2  A    between atoms: C_2  and  C_3
REMARK    3  A    between atoms: C_2  and  N_4
REMARK    4  A    between atoms: C_6  and  C_7
REMARK                            x       y       z     vdW  Elec       q    Type
REMARK                         _______ _______ _______ _____ _____    ______ ____
ROOT
ATOM      1  C   UNL     1       2.324   6.038  20.471  0.00  0.00    +0.000 C 
ATOM      2  O   UNL     1       1.750   5.294  21.222  0.00  0.00    +0.000 OA
ATOM      3  N   UNL     1       3.447   5.650  19.706  0.00  0.00    +0.000 N 
ATOM      4  C   UNL     1       4.055   6.646  18.856  0.00  0.00    +0.000 C 
ATOM      5  C   UNL     1       5.027   6.155  17.854  0.00  0.00    +0.000 A 
ATOM      6  C   UNL     1       6.320   6.674  17.824  0.00  0.00    +0.000 A 
ATOM      7  C   UNL     1       7.190   6.298  16.806  0.00  0.00    +0.000 A 
ATOM      8  C   UNL     1       6.752   5.430  15.807  0.00  0.00    +0.000 A 
ATOM      9  C   UNL     1       5.463   4.893  15.854  0.00  0.00    +0.000 A 
ATOM     10  C   UNL     1       4.622   5.227  16.900  0.00  0.00    +0.000 A 
ATOM     11  O   UNL     1       3.358   4.675  16.941  0.00  0.00    +0.000 OA
ATOM     12  C   UNL     1       3.118   3.754  18.051  0.00  0.00    +0.000 C 
ATOM     13  C   UNL     1       3.668   2.367  17.643  0.00  0.00    +0.000 C 
ATOM     14  C   UNL     1       3.241   1.282  18.620  0.00  0.00    +0.000 C 
ATOM     15  O   UNL     1       1.821   1.221  18.724  0.00  0.00    +0.000 OA
ATOM     16  C   UNL     1       1.218   2.449  19.135  0.00  0.00    +0.000 C 
ATOM     17  C   UNL     1       1.585   3.586  18.181  0.00  0.00    +0.000 C 
ATOM     18  C   UNL     1       3.725   4.238  19.416  0.00  0.00    +0.000 C 
ENDROOT
BRANCH   1  21
ATOM     19  N   UNL     1       1.210   9.267  19.263  0.00  0.00    +0.000 N 
ATOM     20  C   UNL     1       1.639   7.997  19.008  0.00  0.00    +0.000 A 
ATOM     21  C   UNL     1       1.834   7.395  20.231  0.00  0.00    +0.000 A 
ATOM     22  C   UNL     1       1.426   8.396  21.148  0.00  0.00    +0.000 A 
ATOM     23  N   UNL     1       1.072   9.537  20.572  0.00  0.00    +0.000 NA
BRANCH  19  25
ATOM     24  C   UNL     1      -0.550  10.571  18.174  0.00  0.00    +0.000 C 
ATOM     25  C   UNL     1       0.949  10.302  18.275  0.00  0.00    +0.000 C 
ATOM     26  C   UNL     1       1.729  11.579  18.594  0.00  0.00    +0.000 C 
ENDBRANCH  19  25
ENDBRANCH   1  21
TORSDOF 2
ENDMDL
MODEL 5
REMARK VINA RESULT:      -7.7      7.209      9.767
REMARK  Name = 
REMARK  4 active torsions:
REMARK  status: ('A' for Active; 'I' for Inactive)
REMARK    1  A    between atoms: C_1  and  C_2
REMARK    2  A    between atoms: C_2  and  C_3
REMARK    3  A    between atoms: C_2  and  N_4
REMARK    4  A    between atoms: C_6  and  C_7
REMARK                            x       y       z     vdW  Elec       q    Type
REMARK                         _______ _______ _______ _____ _____    ______ ____
ROOT
ATOM      1  C   UNL     1      -2.414  14.003  21.501  0.00  0.00    +0.000 C 
ATOM      2  O   UNL     1      -1.695  14.884  21.894  0.00  0.00    +0.000 OA
ATOM      3  N   UNL     1      -2.297  13.425  20.217  0.00  0.00    +0.000 N 
ATOM      4  C   UNL     1      -3.235  12.386  19.862  0.00  0.00    +0.000 C 
ATOM      5  C   UNL     1      -2.918  11.597  18.650  0.00  0.00    +0.000 A 
ATOM      6  C   UNL     1      -3.846  11.509  17.614  0.00  0.00    +0.000 A 
ATOM      7  C   UNL     1      -3.595  10.670  16.533  0.00  0.00    +0.000 A 
ATOM      8  C   UNL     1      -2.433   9.899  16.511  0.00  0.00    +0.000 A 
ATOM      9  C   UNL     1      -1.495  10.008  17.541  0.00  0.00    +0.000 A 
ATOM     10  C   UNL     1      -1.725  10.887  18.583  0.00  0.00    +0.000 A 
ATOM     11  O   UNL     1      -0.779  10.995  19.584  0.00  0.00    +0.000 OA
ATOM     12  C   UNL     1      -0.098  12.286  19.658  0.00  0.00    +0.000 C 
ATOM     13  C   UNL     1       1.053  12.274  18.625  0.00  0.00    +0.000 C 
ATOM     14  C   UNL     1       1.980  13.468  18.799  0.00  0.00    +0.000 C 
ATOM     15  O   UNL     1       2.520  13.504  20.117  0.00  0.00    +0.000 OA
ATOM     16  C   UNL     1       1.532  13.557  21.147  0.00  0.00    +0.000 C 
ATOM     17  C   UNL     1       0.575  12.369  21.049  0.00  0.00    +0.000 C 
ATOM     18  C   UNL     1      -1.050  13.517  19.446  0.00  0.00    +0.000 C 
ENDROOT
BRANCH   1  21
ATOM     19  N   UNL     1      -5.313  12.902  23.375  0.00  0.00    +0.000 N 
ATOM     20  C   UNL     1      -4.773  13.654  22.372  0.00  0.00    +0.000 A 
ATOM     21  C   UNL     1      -3.420  13.401  22.376  0.00  0.00    +0.000 A 
ATOM     22  C   UNL     1      -3.281  12.427  23.395  0.00  0.00    +0.000 A 
ATOM     23  N   UNL     1      -4.414  12.139  24.019  0.00  0.00    +0.000 NA
BRANCH  19  25
ATOM     24  C   UNL     1      -7.176  14.329  24.065  0.00  0.00    +0.000 C 
ATOM     25  C   UNL     1      -6.704  12.902  23.797  0.00  0.00    +0.000 C 
ATOM     26  C   UNL     1      -7.593  12.201  22.769  0.00  0.00    +0.000 C 
ENDBRANCH  19  25
ENDBRANCH   1  21
TORSDOF 2
ENDMDL
MODEL 6
REMARK VINA RESULT:      -7.5      2.394      6.704
REMARK  Name = 
REMARK  4 active torsions:
REMARK  status: ('A' for Active; 'I' for Inactive)
REMARK    1  A    between atoms: C_1  and  C_2
REMARK    2  A    between atoms: C_2  and  C_3
REMARK    3  A    between atoms: C_2  and  N_4
REMARK    4  A    between atoms: C_6  and  C_7
REMARK                            x       y       z     vdW  Elec       q    Type
REMARK                         _______ _______ _______ _____ _____    ______ ____
ROOT
ATOM      1  C   UNL     1       5.290   6.050  17.452  0.00  0.00    +0.000 C 
ATOM      2  O   UNL     1       5.558   7.213  17.304  0.00  0.00    +0.000 OA
ATOM      3  N   UNL     1       4.608   5.552  18.585  0.00  0.00    +0.000 N 
ATOM      4  C   UNL     1       4.364   4.130  18.648  0.00  0.00    +0.000 C 
ATOM      5  C   UNL     1       3.404   3.670  19.677  0.00  0.00    +0.000 A 
ATOM      6  C   UNL     1       3.791   2.710  20.611  0.00  0.00    +0.000 A 
ATOM      7  C   UNL     1       2.851   2.194  21.497  0.00  0.00    +0.000 A 
ATOM      8  C   UNL     1       1.524   2.615  21.422  0.00  0.00    +0.000 A 
ATOM      9  C   UNL     1       1.146   3.595  20.500  0.00  0.00    +0.000 A 
ATOM     10  C   UNL     1       2.098   4.145  19.661  0.00  0.00    +0.000 A 
ATOM     11  O   UNL     1       1.712   5.124  18.767  0.00  0.00    +0.000 OA
ATOM     12  C   UNL     1       2.274   6.450  19.017  0.00  0.00    +0.000 C 
ATOM     13  C   UNL     1       1.400   7.140  20.091  0.00  0.00    +0.000 C 
ATOM     14  C   UNL     1       1.746   8.614  20.237  0.00  0.00    +0.000 C 
ATOM     15  O   UNL     1       1.603   9.296  18.993  0.00  0.00    +0.000 OA
ATOM     16  C   UNL     1       2.404   8.755  17.942  0.00  0.00    +0.000 C 
ATOM     17  C   UNL     1       2.091   7.275  17.721  0.00  0.00    +0.000 C 
ATOM     18  C   UNL     1       3.788   6.427  19.432  0.00  0.00    +0.000 C 
ENDROOT
BRANCH   1  21
ATOM     19  N   UNL     1       6.244   4.116  14.540  0.00  0.00    +0.000 N 
ATOM     20  C   UNL     1       6.224   5.304  15.213  0.00  0.00    +0.000 A 
ATOM     21  C   UNL     1       5.582   5.068  16.407  0.00  0.00    +0.000 A 
ATOM     22  C   UNL     1       5.316   3.677  16.358  0.00  0.00    +0.000 A 
ATOM     23  N   UNL     1       5.690   3.101  15.225  0.00  0.00    +0.000 NA
BRANCH  19  25
ATOM     24  C   UNL     1       5.613   3.521  12.253  0.00  0.00    +0.000 C 
ATOM     25  C   UNL     1       6.753   3.896  13.196  0.00  0.00    +0.000 C 
ATOM     26  C   UNL     1       7.523   5.117  12.691  0.00  0.00    +0.000 C 
ENDBRANCH  19  25
ENDBRANCH   1  21
TORSDOF 2
ENDMDL
MODEL 7
REMARK VINA RESULT:      -7.4      1.893      4.282
REMARK  Name = 
REMARK  4 active torsions:
REMARK  status: ('A' for Active; 'I' for Inactive)
REMARK    1  A    between atoms: C_1  and  C_2
REMARK    2  A    between atoms: C_2  and  C_3
REMARK    3  A    between atoms: C_2  and  N_4
REMARK    4  A    between atoms: C_6  and  C_7
REMARK                            x       y       z     vdW  Elec       q    Type
REMARK                         _______ _______ _______ _____ _____    ______ ____
ROOT
ATOM      1  C   UNL     1       2.952   7.721  17.442  0.00  0.00    +0.000 C 
ATOM      2  O   UNL     1       3.707   8.297  16.703  0.00  0.00    +0.000 OA
ATOM      3  N   UNL     1       2.902   6.314  17.553  0.00  0.00    +0.000 N 
ATOM      4  C   UNL     1       1.936   5.748  18.465  0.00  0.00    +0.000 C 
ATOM      5  C   UNL     1       2.096   4.312  18.788  0.00  0.00    +0.000 A 
ATOM      6  C   UNL     1       1.039   3.428  18.577  0.00  0.00    +0.000 A 
ATOM      7  C   UNL     1       1.153   2.107  18.995  0.00  0.00    +0.000 A 
ATOM      8  C   UNL     1       2.309   1.685  19.650  0.00  0.00    +0.000 A 
ATOM      9  C   UNL     1       3.376   2.568  19.838  0.00  0.00    +0.000 A 
ATOM     10  C   UNL     1       3.278   3.865  19.369  0.00  0.00    +0.000 A 
ATOM     11  O   UNL     1       4.347   4.720  19.548  0.00  0.00    +0.000 OA
ATOM     12  C   UNL     1       5.018   5.140  18.319  0.00  0.00    +0.000 C 
ATOM     13  C   UNL     1       6.021   4.030  17.924  0.00  0.00    +0.000 C 
ATOM     14  C   UNL     1       6.950   4.481  16.808  0.00  0.00    +0.000 C 
ATOM     15  O   UNL     1       7.662   5.659  17.181  0.00  0.00    +0.000 OA
ATOM     16  C   UNL     1       6.819   6.758  17.527  0.00  0.00    +0.000 C 
ATOM     17  C   UNL     1       5.870   6.384  18.666  0.00  0.00    +0.000 C 
ATOM     18  C   UNL     1       4.034   5.473  17.142  0.00  0.00    +0.000 C 
ENDROOT
BRANCH   1  21
ATOM     19  N   UNL     1       1.044   9.181  20.155  0.00  0.00    +0.000 N 
ATOM     20  C   UNL     1       2.018   8.328  19.724  0.00  0.00    +0.000 A 
ATOM     21  C   UNL     1       2.079   8.459  18.355  0.00  0.00    +0.000 A 
ATOM     22  C   UNL     1       1.125   9.473  18.090  0.00  0.00    +0.000 A 
ATOM     23  N   UNL     1       0.479   9.895  19.167  0.00  0.00    +0.000 NA
BRANCH  19  25
ATOM     24  C   UNL     1       0.052  10.745  21.753  0.00  0.00    +0.000 C 
ATOM     25  C   UNL     1       0.572   9.329  21.522  0.00  0.00    +0.000 C 
ATOM     26  C   UNL     1      -0.489   8.279  21.857  0.00  0.00    +0.000 C 
ENDBRANCH  19  25
ENDBRANCH   1  21
TORSDOF 2
ENDMDL
MODEL 8
REMARK VINA RESULT:      -7.4      2.316      6.273
REMARK  Name = 
REMARK  4 active torsions:
REMARK  status: ('A' for Active; 'I' for Inactive)
REMARK    1  A    between atoms: C_1  and  C_2
REMARK    2  A    between atoms: C_2  and  C_3
REMARK    3  A    between atoms: C_2  and  N_4
REMARK    4  A    between atoms: C_6  and  C_7
REMARK                            x       y       z     vdW  Elec       q    Type
REMARK                         _______ _______ _______ _____ _____    ______ ____
ROOT
ATOM      1  C   UNL     1       4.035   3.572  16.976  0.00  0.00    +0.000 C 
ATOM      2  O   UNL     1       3.922   2.388  17.155  0.00  0.00    +0.000 OA
ATOM      3  N   UNL     1       3.147   4.525  17.522  0.00  0.00    +0.000 N 
ATOM      4  C   UNL     1       3.386   5.916  17.214  0.00  0.00    +0.000 C 
ATOM      5  C   UNL     1       2.640   6.908  18.021  0.00  0.00    +0.000 A 
ATOM      6  C   UNL     1       1.842   7.861  17.391  0.00  0.00    +0.000 A 
ATOM      7  C   UNL     1       1.242   8.864  18.145  0.00  0.00    +0.000 A 
ATOM      8  C   UNL     1       1.469   8.927  19.519  0.00  0.00    +0.000 A 
ATOM      9  C   UNL     1       2.250   7.956  20.150  0.00  0.00    +0.000 A 
ATOM     10  C   UNL     1       2.797   6.929  19.403  0.00  0.00    +0.000 A 
ATOM     11  O   UNL     1       3.552   5.967  20.044  0.00  0.00    +0.000 OA
ATOM     12  C   UNL     1       2.973   4.626  20.052  0.00  0.00    +0.000 C 
ATOM     13  C   UNL     1       1.960   4.554  21.220  0.00  0.00    +0.000 C 
ATOM     14  C   UNL     1       1.493   3.129  21.473  0.00  0.00    +0.000 C 
ATOM     15  O   UNL     1       2.598   2.271  21.745  0.00  0.00    +0.000 OA
ATOM     16  C   UNL     1       3.574   2.238  20.704  0.00  0.00    +0.000 C 
ATOM     17  C   UNL     1       4.110   3.639  20.410  0.00  0.00    +0.000 C 
ATOM     18  C   UNL     1       2.312   4.214  18.689  0.00  0.00    +0.000 C 
ENDROOT
BRANCH   1  21
ATOM     19  N   UNL     1       6.504   4.801  14.626  0.00  0.00    +0.000 N 
ATOM     20  C   UNL     1       5.257   4.307  14.875  0.00  0.00    +0.000 A 
ATOM     21  C   UNL     1       5.173   4.118  16.236  0.00  0.00    +0.000 A 
ATOM     22  C   UNL     1       6.423   4.597  16.702  0.00  0.00    +0.000 A 
ATOM     23  N   UNL     1       7.240   4.987  15.735  0.00  0.00    +0.000 NA
BRANCH  19  25
ATOM     24  C   UNL     1       8.542   5.476  13.454  0.00  0.00    +0.000 C 
ATOM     25  C   UNL     1       7.074   5.082  13.318  0.00  0.00    +0.000 C 
ATOM     26  C   UNL     1       6.896   3.894  12.371  0.00  0.00    +0.000 C 
ENDBRANCH  19  25
ENDBRANCH   1  21
TORSDOF 2
ENDMDL
MODEL 9
REMARK VINA RESULT:      -7.3      3.792      4.958
REMARK  Name = 
REMARK  4 active torsions:
REMARK  status: ('A' for Active; 'I' for Inactive)
REMARK    1  A    between atoms: C_1  and  C_2
REMARK    2  A    between atoms: C_2  and  C_3
REMARK    3  A    between atoms: C_2  and  N_4
REMARK    4  A    between atoms: C_6  and  C_7
REMARK                            x       y       z     vdW  Elec       q    Type
REMARK                         _______ _______ _______ _____ _____    ______ ____
ROOT
ATOM      1  C   UNL     1       7.378   5.964  18.752  0.00  0.00    +0.000 C 
ATOM      2  O   UNL     1       7.268   5.585  19.889  0.00  0.00    +0.000 OA
ATOM      3  N   UNL     1       7.082   5.153  17.634  0.00  0.00    +0.000 N 
ATOM      4  C   UNL     1       7.274   5.724  16.322  0.00  0.00    +0.000 C 
ATOM      5  C   UNL     1       6.686   4.981  15.185  0.00  0.00    +0.000 A 
ATOM      6  C   UNL     1       7.492   4.587  14.119  0.00  0.00    +0.000 A 
ATOM      7  C   UNL     1       6.914   3.996  13.000  0.00  0.00    +0.000 A 
ATOM      8  C   UNL     1       5.531   3.834  12.940  0.00  0.00    +0.000 A 
ATOM      9  C   UNL     1       4.729   4.209  14.021  0.00  0.00    +0.000 A 
ATOM     10  C   UNL     1       5.317   4.742  15.154  0.00  0.00    +0.000 A 
ATOM     11  O   UNL     1       4.512   5.092  16.220  0.00  0.00    +0.000 OA
ATOM     12  C   UNL     1       4.702   4.293  17.429  0.00  0.00    +0.000 C 
ATOM     13  C   UNL     1       3.871   2.998  17.277  0.00  0.00    +0.000 C 
ATOM     14  C   UNL     1       3.796   2.219  18.582  0.00  0.00    +0.000 C 
ATOM     15  O   UNL     1       3.244   3.022  19.622  0.00  0.00    +0.000 OA
ATOM     16  C   UNL     1       3.968   4.228  19.868  0.00  0.00    +0.000 C 
ATOM     17  C   UNL     1       4.063   5.078  18.600  0.00  0.00    +0.000 C 
ATOM     18  C   UNL     1       6.207   3.979  17.750  0.00  0.00    +0.000 C 
ENDROOT
BRANCH   1  21
ATOM     19  N   UNL     1       8.720   9.319  18.481  0.00  0.00    +0.000 N 
ATOM     20  C   UNL     1       8.754   8.078  19.047  0.00  0.00    +0.000 A 
ATOM     21  C   UNL     1       7.752   7.346  18.450  0.00  0.00    +0.000 A 
ATOM     22  C   UNL     1       7.225   8.248  17.493  0.00  0.00    +0.000 A 
ATOM     23  N   UNL     1       7.787   9.448  17.523  0.00  0.00    +0.000 NA
BRANCH  19  25
ATOM     24  C   UNL     1       9.198  11.667  17.988  0.00  0.00    +0.000 C 
ATOM     25  C   UNL     1       9.545  10.457  18.852  0.00  0.00    +0.000 C 
ATOM     26  C   UNL     1       9.412  10.774  20.342  0.00  0.00    +0.000 C 
ENDBRANCH  19  25
ENDBRANCH   1  21
TORSDOF 2
ENDMDL
