MODEL 1
REMARK VINA RESULT:      -7.9      0.000      0.000
REMARK  Name = 
REMARK  2 active torsions:
REMARK  status: ('A' for Active; 'I' for Inactive)
REMARK    1  A    between atoms: C_2  and  C_3
REMARK    2  A    between atoms: C_10  and  N_11
REMARK                            x       y       z     vdW  Elec       q    Type
REMARK                         _______ _______ _______ _____ _____    ______ ____
ROOT
ATOM      1  C   UNL     1       4.775   5.622  17.761  0.00  0.00    +0.000 A 
ATOM      2  C   UNL     1       3.866   6.657  17.864  0.00  0.00    +0.000 A 
ATOM      3  C   UNL     1       2.742   6.458  18.649  0.00  0.00    +0.000 A 
ATOM      4  C   UNL     1       2.551   5.236  19.301  0.00  0.00    +0.000 A 
ATOM      5  C   UNL     1       1.409   5.035  20.090  0.00  0.00    +0.000 A 
ATOM      6  C   UNL     1       1.183   3.823  20.733  0.00  0.00    +0.000 A 
ATOM      7  C   UNL     1       2.103   2.794  20.590  0.00  0.00    +0.000 A 
ATOM      8  C   UNL     1       3.248   3.011  19.804  0.00  0.00    +0.000 A 
ATOM      9  C   UNL     1       3.518   4.211  19.144  0.00  0.00    +0.000 A 
ATOM     10  N   UNL     1       4.614   4.422  18.379  0.00  0.00    +0.000 NA
ENDROOT
BRANCH   1  12
ATOM     11  O   UNL     1       6.789   6.715  17.268  0.00  0.00    +0.000 OA
ATOM     12  C   UNL     1       5.990   5.847  16.914  0.00  0.00    +0.000 C 
ATOM     13  N   UNL     1       6.211   5.050  15.803  0.00  0.00    +0.000 N 
ATOM     14  C   UNL     1       7.435   5.147  15.036  0.00  0.00    +0.000 C 
ATOM     15  C   UNL     1       6.991   4.849  13.618  0.00  0.00    +0.000 C 
ATOM     16  C   UNL     1       5.886   3.816  13.810  0.00  0.00    +0.000 C 
ATOM     17  C   UNL     1       5.228   4.221  15.121  0.00  0.00    +0.000 C 
ENDBRANCH   1  12
BRANCH   8  18
ATOM     18  N   UNL     1       4.173   1.905  19.664  0.00  0.00    +0.000 N 
ATOM     19  O   UNL     1       3.941   1.097  18.756  0.00  0.00    +0.000 OA
ATOM     20  O   UNL     1       5.076   1.799  20.507  0.00  0.00    +0.000 OA
ENDBRANCH   8  18
TORSDOF 2
ENDMDL
MODEL 2
REMARK VINA RESULT:      -7.7      0.714      1.037
REMARK  Name = 
REMARK  2 active torsions:
REMARK  status: ('A' for Active; 'I' for Inactive)
REMARK    1  A    between atoms: C_2  and  C_3
REMARK    2  A    between atoms: C_10  and  N_11
REMARK                            x       y       z     vdW  Elec       q    Type
REMARK                         _______ _______ _______ _____ _____    ______ ____
ROOT
ATOM      1  C   UNL     1       5.202   5.744  17.224  0.00  0.00    +0.000 A 
ATOM      2  C   UNL     1       4.480   6.920  17.283  0.00  0.00    +0.000 A 
ATOM      3  C   UNL     1       3.396   6.973  18.144  0.00  0.00    +0.000 A 
ATOM      4  C   UNL     1       3.057   5.856  18.913  0.00  0.00    +0.000 A 
ATOM      5  C   UNL     1       1.954   5.910  19.778  0.00  0.00    +0.000 A 
ATOM      6  C   UNL     1       1.582   4.808  20.540  0.00  0.00    +0.000 A 
ATOM      7  C   UNL     1       2.313   3.632  20.440  0.00  0.00    +0.000 A 
ATOM      8  C   UNL     1       3.422   3.593  19.575  0.00  0.00    +0.000 A 
ATOM      9  C   UNL     1       3.834   4.675  18.796  0.00  0.00    +0.000 A 
ATOM     10  N   UNL     1       4.894   4.640  17.956  0.00  0.00    +0.000 NA
ENDROOT
BRANCH   1  12
ATOM     11  O   UNL     1       7.370   6.364  16.583  0.00  0.00    +0.000 OA
ATOM     12  C   UNL     1       6.377   5.696  16.295  0.00  0.00    +0.000 C 
ATOM     13  N   UNL     1       6.339   4.872  15.182  0.00  0.00    +0.000 N 
ATOM     14  C   UNL     1       7.499   4.698  14.332  0.00  0.00    +0.000 C 
ATOM     15  C   UNL     1       6.904   4.509  12.951  0.00  0.00    +0.000 C 
ATOM     16  C   UNL     1       5.614   3.746  13.231  0.00  0.00    +0.000 C 
ATOM     17  C   UNL     1       5.153   4.283  14.578  0.00  0.00    +0.000 C 
ENDBRANCH   1  12
BRANCH   8  18
ATOM     18  N   UNL     1       4.146   2.342  19.484  0.00  0.00    +0.000 N 
ATOM     19  O   UNL     1       5.105   2.197  20.252  0.00  0.00    +0.000 OA
ATOM     20  O   UNL     1       3.811   1.546  18.594  0.00  0.00    +0.000 OA
ENDBRANCH   8  18
TORSDOF 2
ENDMDL
MODEL 3
REMARK VINA RESULT:      -7.6      2.532      5.927
REMARK  Name = 
REMARK  2 active torsions:
REMARK  status: ('A' for Active; 'I' for Inactive)
REMARK    1  A    between atoms: C_2  and  C_3
REMARK    2  A    between atoms: C_10  and  N_11
REMARK                            x       y       z     vdW  Elec       q    Type
REMARK                         _______ _______ _______ _____ _____    ______ ____
ROOT
ATOM      1  C   UNL     1       3.166   5.494  18.959  0.00  0.00    +0.000 A 
ATOM      2  C   UNL     1       2.492   4.827  17.955  0.00  0.00    +0.000 A 
ATOM      3  C   UNL     1       3.241   4.261  16.936  0.00  0.00    +0.000 A 
ATOM      4  C   UNL     1       4.633   4.380  16.941  0.00  0.00    +0.000 A 
ATOM      5  C   UNL     1       5.389   3.812  15.905  0.00  0.00    +0.000 A 
ATOM      6  C   UNL     1       6.773   3.933  15.873  0.00  0.00    +0.000 A 
ATOM      7  C   UNL     1       7.420   4.631  16.884  0.00  0.00    +0.000 A 
ATOM      8  C   UNL     1       6.653   5.189  17.922  0.00  0.00    +0.000 A 
ATOM      9  C   UNL     1       5.262   5.089  17.996  0.00  0.00    +0.000 A 
ATOM     10  N   UNL     1       4.519   5.631  18.988  0.00  0.00    +0.000 NA
ENDROOT
BRANCH   1  12
ATOM     11  O   UNL     1       2.045   5.384  21.015  0.00  0.00    +0.000 OA
ATOM     12  C   UNL     1       2.350   6.100  20.060  0.00  0.00    +0.000 C 
ATOM     13  N   UNL     1       2.010   7.441  20.006  0.00  0.00    +0.000 N 
ATOM     14  C   UNL     1       1.336   8.095  21.109  0.00  0.00    +0.000 C 
ATOM     15  C   UNL     1       0.454   9.122  20.428  0.00  0.00    +0.000 C 
ATOM     16  C   UNL     1       1.288   9.557  19.229  0.00  0.00    +0.000 C 
ATOM     17  C   UNL     1       2.043   8.298  18.829  0.00  0.00    +0.000 C 
ENDBRANCH   1  12
BRANCH   8  18
ATOM     18  N   UNL     1       7.363   5.926  18.946  0.00  0.00    +0.000 N 
ATOM     19  O   UNL     1       7.932   6.965  18.590  0.00  0.00    +0.000 OA
ATOM     20  O   UNL     1       7.422   5.426  20.079  0.00  0.00    +0.000 OA
ENDBRANCH   8  18
TORSDOF 2
ENDMDL
MODEL 4
REMARK VINA RESULT:      -7.2      4.305      6.305
REMARK  Name = 
REMARK  2 active torsions:
REMARK  status: ('A' for Active; 'I' for Inactive)
REMARK    1  A    between atoms: C_2  and  C_3
REMARK    2  A    between atoms: C_10  and  N_11
REMARK                            x       y       z     vdW  Elec       q    Type
REMARK                         _______ _______ _______ _____ _____    ______ ____
ROOT
ATOM      1  C   UNL     1       2.661   6.915  19.249  0.00  0.00    +0.000 A 
ATOM      2  C   UNL     1       2.831   7.390  17.963  0.00  0.00    +0.000 A 
ATOM      3  C   UNL     1       2.239   8.599  17.634  0.00  0.00    +0.000 A 
ATOM      4  C   UNL     1       1.491   9.295  18.588  0.00  0.00    +0.000 A 
ATOM      5  C   UNL     1       0.887  10.515  18.251  0.00  0.00    +0.000 A 
ATOM      6  C   UNL     1       0.122  11.219  19.173  0.00  0.00    +0.000 A 
ATOM      7  C   UNL     1      -0.050  10.703  20.451  0.00  0.00    +0.000 A 
ATOM      8  C   UNL     1       0.568   9.484  20.780  0.00  0.00    +0.000 A 
ATOM      9  C   UNL     1       1.348   8.746  19.888  0.00  0.00    +0.000 A 
ATOM     10  N   UNL     1       1.937   7.567  20.197  0.00  0.00    +0.000 NA
ENDROOT
BRANCH   1  12
ATOM     11  O   UNL     1       4.536   5.581  19.691  0.00  0.00    +0.000 OA
ATOM     12  C   UNL     1       3.309   5.610  19.598  0.00  0.00    +0.000 C 
ATOM     13  N   UNL     1       2.522   4.500  19.857  0.00  0.00    +0.000 N 
ATOM     14  C   UNL     1       3.100   3.257  20.325  0.00  0.00    +0.000 C 
ATOM     15  C   UNL     1       2.213   2.197  19.704  0.00  0.00    +0.000 C 
ATOM     16  C   UNL     1       0.834   2.847  19.715  0.00  0.00    +0.000 C 
ATOM     17  C   UNL     1       1.123   4.325  19.496  0.00  0.00    +0.000 C 
ENDBRANCH   1  12
BRANCH   8  18
ATOM     18  N   UNL     1       0.348   8.970  22.116  0.00  0.00    +0.000 N 
ATOM     19  O   UNL     1      -0.656   8.267  22.284  0.00  0.00    +0.000 OA
ATOM     20  O   UNL     1       1.125   9.337  23.010  0.00  0.00    +0.000 OA
ENDBRANCH   8  18
TORSDOF 2
ENDMDL
MODEL 5
REMARK VINA RESULT:      -6.8      3.262      5.629
REMARK  Name = 
REMARK  2 active torsions:
REMARK  status: ('A' for Active; 'I' for Inactive)
REMARK    1  A    between atoms: C_2  and  C_3
REMARK    2  A    between atoms: C_10  and  N_11
REMARK                            x       y       z     vdW  Elec       q    Type
REMARK                         _______ _______ _______ _____ _____    ______ ____
ROOT
ATOM      1  C   UNL     1       2.699   7.183  18.050  0.00  0.00    +0.000 A 
ATOM      2  C   UNL     1       3.903   7.212  17.372  0.00  0.00    +0.000 A 
ATOM      3  C   UNL     1       4.530   6.004  17.112  0.00  0.00    +0.000 A 
ATOM      4  C   UNL     1       3.949   4.807  17.538  0.00  0.00    +0.000 A 
ATOM      5  C   UNL     1       4.589   3.586  17.279  0.00  0.00    +0.000 A 
ATOM      6  C   UNL     1       4.044   2.382  17.708  0.00  0.00    +0.000 A 
ATOM      7  C   UNL     1       2.846   2.387  18.408  0.00  0.00    +0.000 A 
ATOM      8  C   UNL     1       2.208   3.616  18.654  0.00  0.00    +0.000 A 
ATOM      9  C   UNL     1       2.717   4.848  18.238  0.00  0.00    +0.000 A 
ATOM     10  N   UNL     1       2.112   6.034  18.480  0.00  0.00    +0.000 NA
ENDROOT
BRANCH   1  12
ATOM     11  O   UNL     1       2.003   9.330  17.421  0.00  0.00    +0.000 OA
ATOM     12  C   UNL     1       2.025   8.492  18.323  0.00  0.00    +0.000 C 
ATOM     13  N   UNL     1       1.404   8.704  19.543  0.00  0.00    +0.000 N 
ATOM     14  C   UNL     1       0.631   9.901  19.799  0.00  0.00    +0.000 C 
ATOM     15  C   UNL     1       0.858  10.163  21.274  0.00  0.00    +0.000 C 
ATOM     16  C   UNL     1       0.953   8.761  21.866  0.00  0.00    +0.000 C 
ATOM     17  C   UNL     1       1.612   7.942  20.766  0.00  0.00    +0.000 C 
ENDBRANCH   1  12
BRANCH   8  18
ATOM     18  N   UNL     1       0.970   3.581  19.405  0.00  0.00    +0.000 N 
ATOM     19  O   UNL     1       0.922   4.270  20.431  0.00  0.00    +0.000 OA
ATOM     20  O   UNL     1       0.084   2.805  19.018  0.00  0.00    +0.000 OA
ENDBRANCH   8  18
TORSDOF 2
ENDMDL
MODEL 6
REMARK VINA RESULT:      -6.7      2.676      3.530
REMARK  Name = 
REMARK  2 active torsions:
REMARK  status: ('A' for Active; 'I' for Inactive)
REMARK    1  A    between atoms: C_2  and  C_3
REMARK    2  A    between atoms: C_10  and  N_11
REMARK                            x       y       z     vdW  Elec       q    Type
REMARK                         _______ _______ _______ _____ _____    ______ ____
ROOT
ATOM      1  C   UNL     1       5.538   4.687  18.734  0.00  0.00    +0.000 A 
ATOM      2  C   UNL     1       5.582   4.108  17.481  0.00  0.00    +0.000 A 
ATOM      3  C   UNL     1       4.477   3.387  17.060  0.00  0.00    +0.000 A 
ATOM      4  C   UNL     1       3.365   3.256  17.897  0.00  0.00    +0.000 A 
ATOM      5  C   UNL     1       2.250   2.520  17.472  0.00  0.00    +0.000 A 
ATOM      6  C   UNL     1       1.139   2.358  18.291  0.00  0.00    +0.000 A 
ATOM      7  C   UNL     1       1.134   2.932  19.555  0.00  0.00    +0.000 A 
ATOM      8  C   UNL     1       2.255   3.675  19.967  0.00  0.00    +0.000 A 
ATOM      9  C   UNL     1       3.389   3.868  19.177  0.00  0.00    +0.000 A 
ATOM     10  N   UNL     1       4.473   4.575  19.573  0.00  0.00    +0.000 NA
ENDROOT
BRANCH   1  12
ATOM     11  O   UNL     1       7.301   5.119  20.217  0.00  0.00    +0.000 OA
ATOM     12  C   UNL     1       6.735   5.470  19.181  0.00  0.00    +0.000 C 
ATOM     13  N   UNL     1       7.202   6.516  18.402  0.00  0.00    +0.000 N 
ATOM     14  C   UNL     1       8.430   7.211  18.730  0.00  0.00    +0.000 C 
ATOM     15  C   UNL     1       8.164   8.634  18.279  0.00  0.00    +0.000 C 
ATOM     16  C   UNL     1       7.295   8.449  17.040  0.00  0.00    +0.000 C 
ATOM     17  C   UNL     1       6.472   7.207  17.349  0.00  0.00    +0.000 C 
ENDBRANCH   1  12
BRANCH   8  18
ATOM     18  N   UNL     1       2.219   4.241  21.300  0.00  0.00    +0.000 N 
ATOM     19  O   UNL     1       2.275   3.444  22.245  0.00  0.00    +0.000 OA
ATOM     20  O   UNL     1       2.049   5.465  21.402  0.00  0.00    +0.000 OA
ENDBRANCH   8  18
TORSDOF 2
ENDMDL
MODEL 7
REMARK VINA RESULT:      -6.6      3.582      5.781
REMARK  Name = 
REMARK  2 active torsions:
REMARK  status: ('A' for Active; 'I' for Inactive)
REMARK    1  A    between atoms: C_2  and  C_3
REMARK    2  A    between atoms: C_10  and  N_11
REMARK                            x       y       z     vdW  Elec       q    Type
REMARK                         _______ _______ _______ _____ _____    ______ ____
ROOT
ATOM      1  C   UNL     1       2.173   7.150  19.701  0.00  0.00    +0.000 A 
ATOM      2  C   UNL     1       2.822   7.513  18.537  0.00  0.00    +0.000 A 
ATOM      3  C   UNL     1       3.391   6.509  17.771  0.00  0.00    +0.000 A 
ATOM      4  C   UNL     1       3.306   5.177  18.187  0.00  0.00    +0.000 A 
ATOM      5  C   UNL     1       3.889   4.163  17.414  0.00  0.00    +0.000 A 
ATOM      6  C   UNL     1       3.837   2.832  17.814  0.00  0.00    +0.000 A 
ATOM      7  C   UNL     1       3.199   2.502  19.001  0.00  0.00    +0.000 A 
ATOM      8  C   UNL     1       2.610   3.527  19.764  0.00  0.00    +0.000 A 
ATOM      9  C   UNL     1       2.634   4.874  19.399  0.00  0.00    +0.000 A 
ATOM     10  N   UNL     1       2.077   5.865  20.134  0.00  0.00    +0.000 NA
ENDROOT
BRANCH   1  12
ATOM     11  O   UNL     1       1.618   8.148  21.748  0.00  0.00    +0.000 OA
ATOM     12  C   UNL     1       1.556   8.241  20.521  0.00  0.00    +0.000 C 
ATOM     13  N   UNL     1       0.988   9.337  19.892  0.00  0.00    +0.000 N 
ATOM     14  C   UNL     1       0.499  10.472  20.647  0.00  0.00    +0.000 C 
ATOM     15  C   UNL     1      -0.684  10.957  19.834  0.00  0.00    +0.000 C 
ATOM     16  C   UNL     1      -0.251  10.689  18.397  0.00  0.00    +0.000 C 
ATOM     17  C   UNL     1       0.589   9.424  18.495  0.00  0.00    +0.000 C 
ENDBRANCH   1  12
BRANCH   8  18
ATOM     18  N   UNL     1       1.971   3.143  21.006  0.00  0.00    +0.000 N 
ATOM     19  O   UNL     1       2.714   2.946  21.976  0.00  0.00    +0.000 OA
ATOM     20  O   UNL     1       0.746   2.957  20.990  0.00  0.00    +0.000 OA
ENDBRANCH   8  18
TORSDOF 2
ENDMDL
MODEL 8
REMARK VINA RESULT:      -6.4      4.287      6.147
REMARK  Name = 
REMARK  2 active torsions:
REMARK  status: ('A' for Active; 'I' for Inactive)
REMARK    1  A    between atoms: C_2  and  C_3
REMARK    2  A    between atoms: C_10  and  N_11
REMARK                            x       y       z     vdW  Elec       q    Type
REMARK                         _______ _______ _______ _____ _____    ______ ____
ROOT
ATOM      1  C   UNL     1       2.202   6.268  19.640  0.00  0.00    +0.000 A 
ATOM      2  C   UNL     1       2.589   6.531  18.341  0.00  0.00    +0.000 A 
ATOM      3  C   UNL     1       2.419   7.820  17.861  0.00  0.00    +0.000 A 
ATOM      4  C   UNL     1       1.865   8.805  18.682  0.00  0.00    +0.000 A 
ATOM      5  C   UNL     1       1.689  10.108  18.192  0.00  0.00    +0.000 A 
ATOM      6  C   UNL     1       1.122  11.103  18.980  0.00  0.00    +0.000 A 
ATOM      7  C   UNL     1       0.721  10.802  20.274  0.00  0.00    +0.000 A 
ATOM      8  C   UNL     1       0.912   9.495  20.758  0.00  0.00    +0.000 A 
ATOM      9  C   UNL     1       1.480   8.466  20.004  0.00  0.00    +0.000 A 
ATOM     10  N   UNL     1       1.657   7.205  20.461  0.00  0.00    +0.000 NA
ENDROOT
BRANCH   1  12
ATOM     11  O   UNL     1       2.542   4.720  21.366  0.00  0.00    +0.000 OA
ATOM     12  C   UNL     1       2.393   4.874  20.153  0.00  0.00    +0.000 C 
ATOM     13  N   UNL     1       2.342   3.805  19.274  0.00  0.00    +0.000 N 
ATOM     14  C   UNL     1       2.391   2.436  19.746  0.00  0.00    +0.000 C 
ATOM     15  C   UNL     1       3.128   1.706  18.641  0.00  0.00    +0.000 C 
ATOM     16  C   UNL     1       2.664   2.424  17.379  0.00  0.00    +0.000 C 
ATOM     17  C   UNL     1       2.473   3.866  17.826  0.00  0.00    +0.000 C 
ENDBRANCH   1  12
BRANCH   8  18
ATOM     18  N   UNL     1       0.462   9.216  22.106  0.00  0.00    +0.000 N 
ATOM     19  O   UNL     1      -0.679   8.754  22.227  0.00  0.00    +0.000 OA
ATOM     20  O   UNL     1       1.211   9.538  23.041  0.00  0.00    +0.000 OA
ENDBRANCH   8  18
TORSDOF 2
ENDMDL
MODEL 9
REMARK VINA RESULT:      -6.3      3.317      5.700
REMARK  Name = 
REMARK  2 active torsions:
REMARK  status: ('A' for Active; 'I' for Inactive)
REMARK    1  A    between atoms: C_2  and  C_3
REMARK    2  A    between atoms: C_10  and  N_11
REMARK                            x       y       z     vdW  Elec       q    Type
REMARK                         _______ _______ _______ _____ _____    ______ ____
ROOT
ATOM      1  C   UNL     1       2.678   7.367  18.414  0.00  0.00    +0.000 A 
ATOM      2  C   UNL     1       3.696   7.360  17.481  0.00  0.00    +0.000 A 
ATOM      3  C   UNL     1       4.431   6.195  17.331  0.00  0.00    +0.000 A 
ATOM      4  C   UNL     1       4.138   5.076  18.116  0.00  0.00    +0.000 A 
ATOM      5  C   UNL     1       4.888   3.900  17.967  0.00  0.00    +0.000 A 
ATOM      6  C   UNL     1       4.632   2.779  18.748  0.00  0.00    +0.000 A 
ATOM      7  C   UNL     1       3.618   2.826  19.695  0.00  0.00    +0.000 A 
ATOM      8  C   UNL     1       2.867   4.007  19.829  0.00  0.00    +0.000 A 
ATOM      9  C   UNL     1       3.086   5.154  19.064  0.00  0.00    +0.000 A 
ATOM     10  N   UNL     1       2.373   6.296  19.196  0.00  0.00    +0.000 NA
ENDROOT
BRANCH   1  12
ATOM     11  O   UNL     1       1.813   9.387  17.600  0.00  0.00    +0.000 OA
ATOM     12  C   UNL     1       1.885   8.629  18.568  0.00  0.00    +0.000 C 
ATOM     13  N   UNL     1       1.218   8.881  19.754  0.00  0.00    +0.000 N 
ATOM     14  C   UNL     1       0.336  10.022  19.897  0.00  0.00    +0.000 C 
ATOM     15  C   UNL     1       0.502  10.420  21.350  0.00  0.00    +0.000 C 
ATOM     16  C   UNL     1       0.704   9.083  22.056  0.00  0.00    +0.000 C 
ATOM     17  C   UNL     1       1.460   8.240  21.039  0.00  0.00    +0.000 C 
ENDBRANCH   1  12
BRANCH   8  18
ATOM     18  N   UNL     1       1.832   4.022  20.842  0.00  0.00    +0.000 N 
ATOM     19  O   UNL     1       0.699   4.356  20.475  0.00  0.00    +0.000 OA
ATOM     20  O   UNL     1       2.168   3.784  22.012  0.00  0.00    +0.000 OA
ENDBRANCH   8  18
TORSDOF 2
ENDMDL
