MODEL 1
REMARK VINA RESULT:      -7.6      0.000      0.000
REMARK  Name = 
REMARK  5 active torsions:
REMARK  status: ('A' for Active; 'I' for Inactive)
REMARK    1  A    between atoms: C_2  and  C_3
REMARK    2  A    between atoms: C_2  and  C_9
REMARK    3  A    between atoms: C_11  and  C_12
REMARK    4  A    between atoms: C_12  and  O_13
REMARK    5  A    between atoms: C_12  and  C_14
REMARK                            x       y       z     vdW  Elec       q    Type
REMARK                         _______ _______ _______ _____ _____    ______ ____
ROOT
ATOM      1  C   UNL     1       4.461   6.300  17.648  0.00  0.00    +0.000 C 
ATOM      2  O   UNL     1       5.817   6.668  17.312  0.00  0.00    +0.000 OA
ATOM      3  C   UNL     1       5.125   5.880  16.341  0.00  0.00    +0.000 C 
ENDROOT
BRANCH   1   5
ATOM      4  O   UNL     1       5.314   5.365  19.635  0.00  0.00    +0.000 OA
ATOM      5  C   UNL     1       4.364   5.450  18.864  0.00  0.00    +0.000 C 
BRANCH   5   6
ATOM      6  C   UNL     1       3.106   4.703  19.134  0.00  0.00    +0.000 A 
ATOM      7  C   UNL     1       2.608   4.682  20.445  0.00  0.00    +0.000 A 
ATOM      8  C   UNL     1       1.455   3.954  20.752  0.00  0.00    +0.000 A 
ATOM      9  C   UNL     1       0.797   3.244  19.750  0.00  0.00    +0.000 A 
ATOM     10  C   UNL     1       1.280   3.271  18.443  0.00  0.00    +0.000 A 
ATOM     11  C   UNL     1       2.429   4.000  18.129  0.00  0.00    +0.000 A 
ENDBRANCH   5   6
ENDBRANCH   1   5
BRANCH   3  12
ATOM     12  C   UNL     1       5.719   4.532  16.045  0.00  0.00    +0.000 C 
BRANCH  12  13
ATOM     13  C   UNL     1       6.191   4.421  14.603  0.00  0.00    +0.000 A 
ATOM     14  C   UNL     1       5.517   3.575  13.703  0.00  0.00    +0.000 A 
ATOM     15  C   UNL     1       5.955   3.437  12.382  0.00  0.00    +0.000 A 
ATOM     16  C   UNL     1       7.068   4.146  11.937  0.00  0.00    +0.000 A 
ATOM     17  C   UNL     1       7.731   5.006  12.807  0.00  0.00    +0.000 A 
ATOM     18  C   UNL     1       7.289   5.150  14.125  0.00  0.00    +0.000 A 
ENDBRANCH  12  13
BRANCH  12  19
ATOM     19  O   UNL     1       6.753   4.192  16.961  0.00  0.00    +0.000 OA
ATOM     20  H   UNL     1       7.520   4.754  16.743  0.00  0.00    +0.000 HD
ENDBRANCH  12  19
ENDBRANCH   3  12
TORSDOF 5
ENDMDL
MODEL 2
REMARK VINA RESULT:      -7.5      0.087      1.111
REMARK  Name = 
REMARK  5 active torsions:
REMARK  status: ('A' for Active; 'I' for Inactive)
REMARK    1  A    between atoms: C_2  and  C_3
REMARK    2  A    between atoms: C_2  and  C_9
REMARK    3  A    between atoms: C_11  and  C_12
REMARK    4  A    between atoms: C_12  and  O_13
REMARK    5  A    between atoms: C_12  and  C_14
REMARK                            x       y       z     vdW  Elec       q    Type
REMARK                         _______ _______ _______ _____ _____    ______ ____
ROOT
ATOM      1  C   UNL     1       4.443   6.240  17.657  0.00  0.00    +0.000 C 
ATOM      2  O   UNL     1       5.780   6.622  17.263  0.00  0.00    +0.000 OA
ATOM      3  C   UNL     1       5.063   5.811  16.331  0.00  0.00    +0.000 C 
ENDROOT
BRANCH   1   5
ATOM      4  O   UNL     1       5.383   5.354  19.627  0.00  0.00    +0.000 OA
ATOM      5  C   UNL     1       4.406   5.406  18.887  0.00  0.00    +0.000 C 
BRANCH   5   6
ATOM      6  C   UNL     1       3.175   4.635  19.209  0.00  0.00    +0.000 A 
ATOM      7  C   UNL     1       2.574   3.878  18.192  0.00  0.00    +0.000 A 
ATOM      8  C   UNL     1       1.391   3.177  18.438  0.00  0.00    +0.000 A 
ATOM      9  C   UNL     1       0.805   3.229  19.701  0.00  0.00    +0.000 A 
ATOM     10  C   UNL     1       1.404   3.968  20.720  0.00  0.00    +0.000 A 
ATOM     11  C   UNL     1       2.588   4.669  20.480  0.00  0.00    +0.000 A 
ENDBRANCH   5   6
ENDBRANCH   1   5
BRANCH   3  12
ATOM     12  C   UNL     1       5.664   4.466  16.030  0.00  0.00    +0.000 C 
BRANCH  12  13
ATOM     13  C   UNL     1       6.166   4.374  14.598  0.00  0.00    +0.000 A 
ATOM     14  C   UNL     1       5.507   3.546  13.670  0.00  0.00    +0.000 A 
ATOM     15  C   UNL     1       5.972   3.425  12.357  0.00  0.00    +0.000 A 
ATOM     16  C   UNL     1       7.099   4.133  11.947  0.00  0.00    +0.000 A 
ATOM     17  C   UNL     1       7.749   4.976  12.844  0.00  0.00    +0.000 A 
ATOM     18  C   UNL     1       7.280   5.103  14.154  0.00  0.00    +0.000 A 
ENDBRANCH  12  13
BRANCH  12  19
ATOM     19  O   UNL     1       6.679   4.117  16.964  0.00  0.00    +0.000 OA
ATOM     20  H   UNL     1       7.298   3.523  16.499  0.00  0.00    +0.000 HD
ENDBRANCH  12  19
ENDBRANCH   3  12
TORSDOF 5
ENDMDL
MODEL 3
REMARK VINA RESULT:      -7.5      1.116      6.622
REMARK  Name = 
REMARK  5 active torsions:
REMARK  status: ('A' for Active; 'I' for Inactive)
REMARK    1  A    between atoms: C_2  and  C_3
REMARK    2  A    between atoms: C_2  and  C_9
REMARK    3  A    between atoms: C_11  and  C_12
REMARK    4  A    between atoms: C_12  and  O_13
REMARK    5  A    between atoms: C_12  and  C_14
REMARK                            x       y       z     vdW  Elec       q    Type
REMARK                         _______ _______ _______ _____ _____    ______ ____
ROOT
ATOM      1  C   UNL     1       6.823   4.450  17.187  0.00  0.00    +0.000 C 
ATOM      2  O   UNL     1       6.651   5.158  18.435  0.00  0.00    +0.000 OA
ATOM      3  C   UNL     1       5.528   4.394  17.990  0.00  0.00    +0.000 C 
ENDROOT
BRANCH   1   5
ATOM      4  O   UNL     1       7.385   6.518  16.211  0.00  0.00    +0.000 OA
ATOM      5  C   UNL     1       7.067   5.349  16.028  0.00  0.00    +0.000 C 
BRANCH   5   6
ATOM      6  C   UNL     1       6.918   4.815  14.646  0.00  0.00    +0.000 A 
ATOM      7  C   UNL     1       7.763   5.311  13.643  0.00  0.00    +0.000 A 
ATOM      8  C   UNL     1       7.626   4.872  12.324  0.00  0.00    +0.000 A 
ATOM      9  C   UNL     1       6.645   3.937  12.003  0.00  0.00    +0.000 A 
ATOM     10  C   UNL     1       5.811   3.430  12.998  0.00  0.00    +0.000 A 
ATOM     11  C   UNL     1       5.945   3.863  14.319  0.00  0.00    +0.000 A 
ENDBRANCH   5   6
ENDBRANCH   1   5
BRANCH   3  12
ATOM     12  C   UNL     1       4.276   5.173  17.703  0.00  0.00    +0.000 C 
BRANCH  12  13
ATOM     13  C   UNL     1       3.115   4.732  18.582  0.00  0.00    +0.000 A 
ATOM     14  C   UNL     1       2.259   3.701  18.154  0.00  0.00    +0.000 A 
ATOM     15  C   UNL     1       1.169   3.303  18.935  0.00  0.00    +0.000 A 
ATOM     16  C   UNL     1       0.921   3.923  20.157  0.00  0.00    +0.000 A 
ATOM     17  C   UNL     1       1.772   4.928  20.606  0.00  0.00    +0.000 A 
ATOM     18  C   UNL     1       2.866   5.321  19.830  0.00  0.00    +0.000 A 
ENDBRANCH  12  13
BRANCH  12  19
ATOM     19  O   UNL     1       4.491   6.577  17.787  0.00  0.00    +0.000 OA
ATOM     20  H   UNL     1       5.279   6.709  18.347  0.00  0.00    +0.000 HD
ENDBRANCH  12  19
ENDBRANCH   3  12
TORSDOF 5
ENDMDL
MODEL 4
REMARK VINA RESULT:      -7.5      1.105      6.581
REMARK  Name = 
REMARK  5 active torsions:
REMARK  status: ('A' for Active; 'I' for Inactive)
REMARK    1  A    between atoms: C_2  and  C_3
REMARK    2  A    between atoms: C_2  and  C_9
REMARK    3  A    between atoms: C_11  and  C_12
REMARK    4  A    between atoms: C_12  and  O_13
REMARK    5  A    between atoms: C_12  and  C_14
REMARK                            x       y       z     vdW  Elec       q    Type
REMARK                         _______ _______ _______ _____ _____    ______ ____
ROOT
ATOM      1  C   UNL     1       6.820   4.553  17.301  0.00  0.00    +0.000 C 
ATOM      2  O   UNL     1       6.564   5.306  18.508  0.00  0.00    +0.000 OA
ATOM      3  C   UNL     1       5.500   4.463  18.061  0.00  0.00    +0.000 C 
ENDROOT
BRANCH   1   5
ATOM      4  O   UNL     1       7.407   6.578  16.251  0.00  0.00    +0.000 OA
ATOM      5  C   UNL     1       7.058   5.411  16.111  0.00  0.00    +0.000 C 
BRANCH   5   6
ATOM      6  C   UNL     1       6.868   4.840  14.750  0.00  0.00    +0.000 A 
ATOM      7  C   UNL     1       7.724   5.259  13.721  0.00  0.00    +0.000 A 
ATOM      8  C   UNL     1       7.551   4.784  12.420  0.00  0.00    +0.000 A 
ATOM      9  C   UNL     1       6.521   3.889  12.140  0.00  0.00    +0.000 A 
ATOM     10  C   UNL     1       5.674   3.458  13.159  0.00  0.00    +0.000 A 
ATOM     11  C   UNL     1       5.845   3.927  14.464  0.00  0.00    +0.000 A 
ENDBRANCH   5   6
ENDBRANCH   1   5
BRANCH   3  12
ATOM     12  C   UNL     1       4.220   5.159  17.694  0.00  0.00    +0.000 C 
BRANCH  12  13
ATOM     13  C   UNL     1       3.022   4.571  18.424  0.00  0.00    +0.000 A 
ATOM     14  C   UNL     1       2.670   5.050  19.700  0.00  0.00    +0.000 A 
ATOM     15  C   UNL     1       1.590   4.501  20.399  0.00  0.00    +0.000 A 
ATOM     16  C   UNL     1       0.842   3.472  19.835  0.00  0.00    +0.000 A 
ATOM     17  C   UNL     1       1.161   3.004  18.564  0.00  0.00    +0.000 A 
ATOM     18  C   UNL     1       2.235   3.557  17.861  0.00  0.00    +0.000 A 
ENDBRANCH  12  13
BRANCH  12  19
ATOM     19  O   UNL     1       4.307   6.566  17.880  0.00  0.00    +0.000 OA
ATOM     20  H   UNL     1       3.471   6.947  17.553  0.00  0.00    +0.000 HD
ENDBRANCH  12  19
ENDBRANCH   3  12
TORSDOF 5
ENDMDL
MODEL 5
REMARK VINA RESULT:      -7.4      3.245      6.606
REMARK  Name = 
REMARK  5 active torsions:
REMARK  status: ('A' for Active; 'I' for Inactive)
REMARK    1  A    between atoms: C_2  and  C_3
REMARK    2  A    between atoms: C_2  and  C_9
REMARK    3  A    between atoms: C_11  and  C_12
REMARK    4  A    between atoms: C_12  and  O_13
REMARK    5  A    between atoms: C_12  and  C_14
REMARK                            x       y       z     vdW  Elec       q    Type
REMARK                         _______ _______ _______ _____ _____    ______ ____
ROOT
ATOM      1  C   UNL     1       3.529   4.264  18.278  0.00  0.00    +0.000 C 
ATOM      2  O   UNL     1       2.564   3.790  19.243  0.00  0.00    +0.000 OA
ATOM      3  C   UNL     1       2.425   5.154  18.840  0.00  0.00    +0.000 C 
ENDROOT
BRANCH   1   5
ATOM      4  O   UNL     1       5.299   3.317  19.509  0.00  0.00    +0.000 OA
ATOM      5  C   UNL     1       4.929   4.228  18.777  0.00  0.00    +0.000 C 
BRANCH   5   6
ATOM      6  C   UNL     1       5.873   5.309  18.382  0.00  0.00    +0.000 A 
ATOM      7  C   UNL     1       7.080   5.434  19.085  0.00  0.00    +0.000 A 
ATOM      8  C   UNL     1       7.974   6.462  18.778  0.00  0.00    +0.000 A 
ATOM      9  C   UNL     1       7.664   7.371  17.769  0.00  0.00    +0.000 A 
ATOM     10  C   UNL     1       6.471   7.246  17.058  0.00  0.00    +0.000 A 
ATOM     11  C   UNL     1       5.576   6.217  17.358  0.00  0.00    +0.000 A 
ENDBRANCH   5   6
ENDBRANCH   1   5
BRANCH   3  12
ATOM     12  C   UNL     1       2.584   6.180  19.927  0.00  0.00    +0.000 C 
BRANCH  12  13
ATOM     13  C   UNL     1       2.084   7.550  19.496  0.00  0.00    +0.000 A 
ATOM     14  C   UNL     1       2.350   8.021  18.197  0.00  0.00    +0.000 A 
ATOM     15  C   UNL     1       1.924   9.290  17.793  0.00  0.00    +0.000 A 
ATOM     16  C   UNL     1       1.222  10.106  18.676  0.00  0.00    +0.000 A 
ATOM     17  C   UNL     1       0.930   9.646  19.956  0.00  0.00    +0.000 A 
ATOM     18  C   UNL     1       1.348   8.375  20.358  0.00  0.00    +0.000 A 
ENDBRANCH  12  13
BRANCH  12  19
ATOM     19  O   UNL     1       1.980   5.762  21.146  0.00  0.00    +0.000 OA
ATOM     20  H   UNL     1       1.739   6.572  21.634  0.00  0.00    +0.000 HD
ENDBRANCH  12  19
ENDBRANCH   3  12
TORSDOF 5
ENDMDL
MODEL 6
REMARK VINA RESULT:      -7.4      0.833      1.626
REMARK  Name = 
REMARK  5 active torsions:
REMARK  status: ('A' for Active; 'I' for Inactive)
REMARK    1  A    between atoms: C_2  and  C_3
REMARK    2  A    between atoms: C_2  and  C_9
REMARK    3  A    between atoms: C_11  and  C_12
REMARK    4  A    between atoms: C_12  and  O_13
REMARK    5  A    between atoms: C_12  and  C_14
REMARK                            x       y       z     vdW  Elec       q    Type
REMARK                         _______ _______ _______ _____ _____    ______ ____
ROOT
ATOM      1  C   UNL     1       5.034   5.995  17.835  0.00  0.00    +0.000 C 
ATOM      2  O   UNL     1       6.341   6.561  17.591  0.00  0.00    +0.000 OA
ATOM      3  C   UNL     1       5.786   5.789  16.524  0.00  0.00    +0.000 C 
ENDROOT
BRANCH   1   5
ATOM      4  O   UNL     1       6.059   4.656  19.479  0.00  0.00    +0.000 OA
ATOM      5  C   UNL     1       5.011   5.028  18.964  0.00  0.00    +0.000 C 
BRANCH   5   6
ATOM      6  C   UNL     1       3.704   4.516  19.459  0.00  0.00    +0.000 A 
ATOM      7  C   UNL     1       3.378   3.172  19.220  0.00  0.00    +0.000 A 
ATOM      8  C   UNL     1       2.143   2.662  19.626  0.00  0.00    +0.000 A 
ATOM      9  C   UNL     1       1.229   3.492  20.271  0.00  0.00    +0.000 A 
ATOM     10  C   UNL     1       1.551   4.824  20.523  0.00  0.00    +0.000 A 
ATOM     11  C   UNL     1       2.787   5.339  20.123  0.00  0.00    +0.000 A 
ENDBRANCH   5   6
ENDBRANCH   1   5
BRANCH   3  12
ATOM     12  C   UNL     1       6.559   4.560  16.133  0.00  0.00    +0.000 C 
BRANCH  12  13
ATOM     13  C   UNL     1       6.722   4.445  14.625  0.00  0.00    +0.000 A 
ATOM     14  C   UNL     1       7.651   5.260  13.952  0.00  0.00    +0.000 A 
ATOM     15  C   UNL     1       7.793   5.190  12.563  0.00  0.00    +0.000 A 
ATOM     16  C   UNL     1       7.016   4.301  11.825  0.00  0.00    +0.000 A 
ATOM     17  C   UNL     1       6.110   3.471  12.477  0.00  0.00    +0.000 A 
ATOM     18  C   UNL     1       5.973   3.535  13.866  0.00  0.00    +0.000 A 
ENDBRANCH  12  13
BRANCH  12  19
ATOM     19  O   UNL     1       7.812   4.483  16.802  0.00  0.00    +0.000 OA
ATOM     20  H   UNL     1       7.623   4.261  17.733  0.00  0.00    +0.000 HD
ENDBRANCH  12  19
ENDBRANCH   3  12
TORSDOF 5
ENDMDL
MODEL 7
REMARK VINA RESULT:      -7.4      0.930      1.767
REMARK  Name = 
REMARK  5 active torsions:
REMARK  status: ('A' for Active; 'I' for Inactive)
REMARK    1  A    between atoms: C_2  and  C_3
REMARK    2  A    between atoms: C_2  and  C_9
REMARK    3  A    between atoms: C_11  and  C_12
REMARK    4  A    between atoms: C_12  and  O_13
REMARK    5  A    between atoms: C_12  and  C_14
REMARK                            x       y       z     vdW  Elec       q    Type
REMARK                         _______ _______ _______ _____ _____    ______ ____
ROOT
ATOM      1  C   UNL     1       4.186   6.282  17.272  0.00  0.00    +0.000 C 
ATOM      2  O   UNL     1       5.264   7.245  17.263  0.00  0.00    +0.000 OA
ATOM      3  C   UNL     1       5.217   6.350  16.150  0.00  0.00    +0.000 C 
ENDROOT
BRANCH   1   5
ATOM      4  O   UNL     1       5.142   5.438  19.252  0.00  0.00    +0.000 OA
ATOM      5  C   UNL     1       4.244   5.343  18.424  0.00  0.00    +0.000 C 
BRANCH   5   6
ATOM      6  C   UNL     1       3.202   4.288  18.557  0.00  0.00    +0.000 A 
ATOM      7  C   UNL     1       3.312   3.135  17.766  0.00  0.00    +0.000 A 
ATOM      8  C   UNL     1       2.332   2.142  17.825  0.00  0.00    +0.000 A 
ATOM      9  C   UNL     1       1.240   2.296  18.675  0.00  0.00    +0.000 A 
ATOM     10  C   UNL     1       1.131   3.433  19.474  0.00  0.00    +0.000 A 
ATOM     11  C   UNL     1       2.110   4.428  19.422  0.00  0.00    +0.000 A 
ENDBRANCH   5   6
ENDBRANCH   1   5
BRANCH   3  12
ATOM     12  C   UNL     1       6.404   5.444  15.985  0.00  0.00    +0.000 C 
BRANCH  12  13
ATOM     13  C   UNL     1       6.474   4.844  14.589  0.00  0.00    +0.000 A 
ATOM     14  C   UNL     1       7.521   5.201  13.719  0.00  0.00    +0.000 A 
ATOM     15  C   UNL     1       7.585   4.684  12.421  0.00  0.00    +0.000 A 
ATOM     16  C   UNL     1       6.609   3.797  11.974  0.00  0.00    +0.000 A 
ATOM     17  C   UNL     1       5.580   3.414  12.829  0.00  0.00    +0.000 A 
ATOM     18  C   UNL     1       5.520   3.925  14.128  0.00  0.00    +0.000 A 
ENDBRANCH  12  13
BRANCH  12  19
ATOM     19  O   UNL     1       7.621   6.091  16.337  0.00  0.00    +0.000 OA
ATOM     20  H   UNL     1       7.725   5.993  17.302  0.00  0.00    +0.000 HD
ENDBRANCH  12  19
ENDBRANCH   3  12
TORSDOF 5
ENDMDL
MODEL 8
REMARK VINA RESULT:      -7.4      0.603      1.258
REMARK  Name = 
REMARK  5 active torsions:
REMARK  status: ('A' for Active; 'I' for Inactive)
REMARK    1  A    between atoms: C_2  and  C_3
REMARK    2  A    between atoms: C_2  and  C_9
REMARK    3  A    between atoms: C_11  and  C_12
REMARK    4  A    between atoms: C_12  and  O_13
REMARK    5  A    between atoms: C_12  and  C_14
REMARK                            x       y       z     vdW  Elec       q    Type
REMARK                         _______ _______ _______ _____ _____    ______ ____
ROOT
ATOM      1  C   UNL     1       4.627   6.154  17.770  0.00  0.00    +0.000 C 
ATOM      2  O   UNL     1       5.934   6.615  17.362  0.00  0.00    +0.000 OA
ATOM      3  C   UNL     1       5.254   5.767  16.435  0.00  0.00    +0.000 C 
ENDROOT
BRANCH   1   5
ATOM      4  O   UNL     1       5.676   5.239  19.670  0.00  0.00    +0.000 OA
ATOM      5  C   UNL     1       4.654   5.315  18.997  0.00  0.00    +0.000 C 
BRANCH   5   6
ATOM      6  C   UNL     1       3.430   4.568  19.397  0.00  0.00    +0.000 A 
ATOM      7  C   UNL     1       2.431   5.251  20.107  0.00  0.00    +0.000 A 
ATOM      8  C   UNL     1       1.288   4.577  20.543  0.00  0.00    +0.000 A 
ATOM      9  C   UNL     1       1.139   3.219  20.271  0.00  0.00    +0.000 A 
ATOM     10  C   UNL     1       2.121   2.537  19.556  0.00  0.00    +0.000 A 
ATOM     11  C   UNL     1       3.265   3.206  19.114  0.00  0.00    +0.000 A 
ENDBRANCH   5   6
ENDBRANCH   1   5
BRANCH   3  12
ATOM     12  C   UNL     1       5.930   4.461  16.121  0.00  0.00    +0.000 C 
BRANCH  12  13
ATOM     13  C   UNL     1       6.328   4.363  14.657  0.00  0.00    +0.000 A 
ATOM     14  C   UNL     1       7.390   5.142  14.160  0.00  0.00    +0.000 A 
ATOM     15  C   UNL     1       7.750   5.087  12.810  0.00  0.00    +0.000 A 
ATOM     16  C   UNL     1       7.062   4.250  11.936  0.00  0.00    +0.000 A 
ATOM     17  C   UNL     1       6.026   3.454  12.416  0.00  0.00    +0.000 A 
ATOM     18  C   UNL     1       5.670   3.502  13.766  0.00  0.00    +0.000 A 
ENDBRANCH  12  13
BRANCH  12  19
ATOM     19  O   UNL     1       7.036   4.214  16.982  0.00  0.00    +0.000 OA
ATOM     20  H   UNL     1       7.673   4.938  16.838  0.00  0.00    +0.000 HD
ENDBRANCH  12  19
ENDBRANCH   3  12
TORSDOF 5
ENDMDL
MODEL 9
REMARK VINA RESULT:      -7.4      1.039      6.681
REMARK  Name = 
REMARK  5 active torsions:
REMARK  status: ('A' for Active; 'I' for Inactive)
REMARK    1  A    between atoms: C_2  and  C_3
REMARK    2  A    between atoms: C_2  and  C_9
REMARK    3  A    between atoms: C_11  and  C_12
REMARK    4  A    between atoms: C_12  and  O_13
REMARK    5  A    between atoms: C_12  and  C_14
REMARK                            x       y       z     vdW  Elec       q    Type
REMARK                         _______ _______ _______ _____ _____    ______ ____
ROOT
ATOM      1  C   UNL     1       6.411   4.403  16.984  0.00  0.00    +0.000 C 
ATOM      2  O   UNL     1       6.303   5.016  18.288  0.00  0.00    +0.000 OA
ATOM      3  C   UNL     1       5.175   4.248  17.864  0.00  0.00    +0.000 C 
ENDROOT
BRANCH   1   5
ATOM      4  O   UNL     1       6.577   6.588  16.123  0.00  0.00    +0.000 OA
ATOM      5  C   UNL     1       6.550   5.387  15.879  0.00  0.00    +0.000 C 
BRANCH   5   6
ATOM      6  C   UNL     1       6.652   4.900  14.476  0.00  0.00    +0.000 A 
ATOM      7  C   UNL     1       5.775   3.891  14.053  0.00  0.00    +0.000 A 
ATOM      8  C   UNL     1       5.867   3.372  12.759  0.00  0.00    +0.000 A 
ATOM      9  C   UNL     1       6.836   3.858  11.885  0.00  0.00    +0.000 A 
ATOM     10  C   UNL     1       7.703   4.869  12.295  0.00  0.00    +0.000 A 
ATOM     11  C   UNL     1       7.614   5.395  13.587  0.00  0.00    +0.000 A 
ENDBRANCH   5   6
ENDBRANCH   1   5
BRANCH   3  12
ATOM     12  C   UNL     1       3.884   5.002  17.715  0.00  0.00    +0.000 C 
BRANCH  12  13
ATOM     13  C   UNL     1       2.748   4.348  18.487  0.00  0.00    +0.000 A 
ATOM     14  C   UNL     1       2.099   3.216  17.961  0.00  0.00    +0.000 A 
ATOM     15  C   UNL     1       1.033   2.619  18.642  0.00  0.00    +0.000 A 
ATOM     16  C   UNL     1       0.603   3.138  19.860  0.00  0.00    +0.000 A 
ATOM     17  C   UNL     1       1.251   4.242  20.406  0.00  0.00    +0.000 A 
ATOM     18  C   UNL     1       2.321   4.835  19.730  0.00  0.00    +0.000 A 
ENDBRANCH  12  13
BRANCH  12  19
ATOM     19  O   UNL     1       4.027   6.375  18.060  0.00  0.00    +0.000 OA
ATOM     20  H   UNL     1       4.029   6.878  17.224  0.00  0.00    +0.000 HD
ENDBRANCH  12  19
ENDBRANCH   3  12
TORSDOF 5
ENDMDL
