MODEL 1
REMARK VINA RESULT:      -7.4      0.000      0.000
REMARK  Name = 
REMARK  4 active torsions:
REMARK  status: ('A' for Active; 'I' for Inactive)
REMARK    1  A    between atoms: C_2  and  C_4
REMARK    2  A    between atoms: C_4  and  O_5
REMARK    3  A    between atoms: O_5  and  C_6
REMARK    4  A    between atoms: C_6  and  C_8
REMARK                            x       y       z     vdW  Elec       q    Type
REMARK                         _______ _______ _______ _____ _____    ______ ____
ROOT
ATOM      1  C   UNL     1       4.165   4.381  18.385  0.00  0.00    +0.000 A 
ATOM      2  C   UNL     1       3.389   5.408  18.976  0.00  0.00    +0.000 A 
ATOM      3  C   UNL     1       3.346   6.631  18.310  0.00  0.00    +0.000 A 
ATOM      4  N   UNL     1       3.981   6.853  17.137  0.00  0.00    +0.000 NA
ATOM      5  C   UNL     1       4.691   5.876  16.568  0.00  0.00    +0.000 A 
ATOM      6  C   UNL     1       5.310   6.165  15.359  0.00  0.00    +0.000 A 
ATOM      7  C   UNL     1       6.069   5.220  14.669  0.00  0.00    +0.000 A 
ATOM      8  C   UNL     1       6.222   3.955  15.204  0.00  0.00    +0.000 A 
ATOM      9  C   UNL     1       5.617   3.648  16.422  0.00  0.00    +0.000 A 
ATOM     10  C   UNL     1       4.828   4.596  17.136  0.00  0.00    +0.000 A 
ATOM     11  C   UNL     1       2.522   7.794  18.799  0.00  0.00    +0.000 C 
ATOM     12  C   UNL     1       1.980   7.645  20.216  0.00  0.00    +0.000 C 
ATOM     13  C   UNL     1       1.503   6.223  20.457  0.00  0.00    +0.000 C 
ATOM     14  C   UNL     1       2.670   5.261  20.296  0.00  0.00    +0.000 C 
ENDROOT
BRANCH   1  15
ATOM     15  C   UNL     1       4.296   3.043  19.040  0.00  0.00    +0.000 C 
ATOM     16  O   UNL     1       5.046   2.790  19.970  0.00  0.00    +0.000 OA
BRANCH  15  17
ATOM     17  O   UNL     1       3.430   2.163  18.492  0.00  0.00    +0.000 OA
BRANCH  17  18
ATOM     18  C   UNL     1       2.332   1.764  19.315  0.00  0.00    +0.000 C 
BRANCH  18  20
ATOM     19  N   UNL     1       0.228   2.794  20.032  0.00  0.00    +0.000 N 
ATOM     20  C   UNL     1       1.098   2.599  18.995  0.00  0.00    +0.000 C 
ATOM     21  O   UNL     1       0.881   3.077  17.896  0.00  0.00    +0.000 OA
ATOM     22  H   UNL     1      -0.613   3.331  19.859  0.00  0.00    +0.000 HD
ATOM     23  H   UNL     1       0.408   2.417  20.948  0.00  0.00    +0.000 HD
ENDBRANCH  18  20
ENDBRANCH  17  18
ENDBRANCH  15  17
ENDBRANCH   1  15
TORSDOF 4
ENDMDL
MODEL 2
REMARK VINA RESULT:      -7.4      2.455      5.257
REMARK  Name = 
REMARK  4 active torsions:
REMARK  status: ('A' for Active; 'I' for Inactive)
REMARK    1  A    between atoms: C_2  and  C_4
REMARK    2  A    between atoms: C_4  and  O_5
REMARK    3  A    between atoms: O_5  and  C_6
REMARK    4  A    between atoms: C_6  and  C_8
REMARK                            x       y       z     vdW  Elec       q    Type
REMARK                         _______ _______ _______ _____ _____    ______ ____
ROOT
ATOM      1  C   UNL     1       3.644   5.913  18.437  0.00  0.00    +0.000 A 
ATOM      2  C   UNL     1       3.423   4.824  19.314  0.00  0.00    +0.000 A 
ATOM      3  C   UNL     1       2.483   5.006  20.325  0.00  0.00    +0.000 A 
ATOM      4  N   UNL     1       1.775   6.148  20.475  0.00  0.00    +0.000 NA
ATOM      5  C   UNL     1       1.966   7.165  19.631  0.00  0.00    +0.000 A 
ATOM      6  C   UNL     1       1.199   8.307  19.832  0.00  0.00    +0.000 A 
ATOM      7  C   UNL     1       1.306   9.427  19.008  0.00  0.00    +0.000 A 
ATOM      8  C   UNL     1       2.207   9.412  17.961  0.00  0.00    +0.000 A 
ATOM      9  C   UNL     1       2.992   8.280  17.749  0.00  0.00    +0.000 A 
ATOM     10  C   UNL     1       2.890   7.121  18.571  0.00  0.00    +0.000 A 
ATOM     11  C   UNL     1       2.114   3.916  21.298  0.00  0.00    +0.000 C 
ATOM     12  C   UNL     1       3.043   2.708  21.291  0.00  0.00    +0.000 C 
ATOM     13  C   UNL     1       3.442   2.352  19.869  0.00  0.00    +0.000 C 
ATOM     14  C   UNL     1       4.186   3.522  19.241  0.00  0.00    +0.000 C 
ENDROOT
BRANCH   1  15
ATOM     15  C   UNL     1       4.655   5.823  17.338  0.00  0.00    +0.000 C 
ATOM     16  O   UNL     1       4.502   5.208  16.295  0.00  0.00    +0.000 OA
BRANCH  15  17
ATOM     17  O   UNL     1       5.745   6.562  17.641  0.00  0.00    +0.000 OA
BRANCH  17  18
ATOM     18  C   UNL     1       6.988   6.096  17.111  0.00  0.00    +0.000 C 
BRANCH  18  20
ATOM     19  N   UNL     1       7.442   5.313  19.388  0.00  0.00    +0.000 N 
ATOM     20  C   UNL     1       7.618   5.077  18.052  0.00  0.00    +0.000 C 
ATOM     21  O   UNL     1       8.238   4.102  17.664  0.00  0.00    +0.000 OA
ATOM     22  H   UNL     1       7.856   4.667  20.049  0.00  0.00    +0.000 HD
ATOM     23  H   UNL     1       6.916   6.106  19.717  0.00  0.00    +0.000 HD
ENDBRANCH  18  20
ENDBRANCH  17  18
ENDBRANCH  15  17
ENDBRANCH   1  15
TORSDOF 4
ENDMDL
MODEL 3
REMARK VINA RESULT:      -7.3      2.828      5.632
REMARK  Name = 
REMARK  4 active torsions:
REMARK  status: ('A' for Active; 'I' for Inactive)
REMARK    1  A    between atoms: C_2  and  C_4
REMARK    2  A    between atoms: C_4  and  O_5
REMARK    3  A    between atoms: O_5  and  C_6
REMARK    4  A    between atoms: C_6  and  C_8
REMARK                            x       y       z     vdW  Elec       q    Type
REMARK                         _______ _______ _______ _____ _____    ______ ____
ROOT
ATOM      1  C   UNL     1       2.967   5.665  18.343  0.00  0.00    +0.000 A 
ATOM      2  C   UNL     1       3.997   5.582  17.375  0.00  0.00    +0.000 A 
ATOM      3  C   UNL     1       4.393   4.306  16.980  0.00  0.00    +0.000 A 
ATOM      4  N   UNL     1       3.821   3.177  17.458  0.00  0.00    +0.000 NA
ATOM      5  C   UNL     1       2.832   3.259  18.351  0.00  0.00    +0.000 A 
ATOM      6  C   UNL     1       2.280   2.063  18.795  0.00  0.00    +0.000 A 
ATOM      7  C   UNL     1       1.238   2.025  19.719  0.00  0.00    +0.000 A 
ATOM      8  C   UNL     1       0.737   3.211  20.223  0.00  0.00    +0.000 A 
ATOM      9  C   UNL     1       1.284   4.421  19.797  0.00  0.00    +0.000 A 
ATOM     10  C   UNL     1       2.342   4.482  18.845  0.00  0.00    +0.000 A 
ATOM     11  C   UNL     1       5.441   4.071  15.924  0.00  0.00    +0.000 C 
ATOM     12  C   UNL     1       6.247   5.305  15.533  0.00  0.00    +0.000 C 
ATOM     13  C   UNL     1       5.345   6.523  15.448  0.00  0.00    +0.000 C 
ATOM     14  C   UNL     1       4.712   6.785  16.807  0.00  0.00    +0.000 C 
ENDROOT
BRANCH   1  15
ATOM     15  C   UNL     1       2.496   6.990  18.852  0.00  0.00    +0.000 C 
ATOM     16  O   UNL     1       2.669   7.406  19.987  0.00  0.00    +0.000 OA
BRANCH  15  17
ATOM     17  O   UNL     1       1.893   7.687  17.864  0.00  0.00    +0.000 OA
BRANCH  17  18
ATOM     18  C   UNL     1       2.072   9.105  17.893  0.00  0.00    +0.000 C 
BRANCH  18  20
ATOM     19  N   UNL     1      -0.197   9.999  17.668  0.00  0.00    +0.000 N 
ATOM     20  C   UNL     1       0.856   9.781  18.512  0.00  0.00    +0.000 C 
ATOM     21  O   UNL     1       0.798  10.110  19.684  0.00  0.00    +0.000 OA
ATOM     22  H   UNL     1      -1.021  10.459  18.035  0.00  0.00    +0.000 HD
ATOM     23  H   UNL     1      -0.165   9.714  16.702  0.00  0.00    +0.000 HD
ENDBRANCH  18  20
ENDBRANCH  17  18
ENDBRANCH  15  17
ENDBRANCH   1  15
TORSDOF 4
ENDMDL
MODEL 4
REMARK VINA RESULT:      -7.2      0.240      4.012
REMARK  Name = 
REMARK  4 active torsions:
REMARK  status: ('A' for Active; 'I' for Inactive)
REMARK    1  A    between atoms: C_2  and  C_4
REMARK    2  A    between atoms: C_4  and  O_5
REMARK    3  A    between atoms: O_5  and  C_6
REMARK    4  A    between atoms: C_6  and  C_8
REMARK                            x       y       z     vdW  Elec       q    Type
REMARK                         _______ _______ _______ _____ _____    ______ ____
ROOT
ATOM      1  C   UNL     1       4.167   4.453  18.296  0.00  0.00    +0.000 A 
ATOM      2  C   UNL     1       4.874   4.686  17.092  0.00  0.00    +0.000 A 
ATOM      3  C   UNL     1       4.732   5.943  16.508  0.00  0.00    +0.000 A 
ATOM      4  N   UNL     1       3.984   6.928  17.055  0.00  0.00    +0.000 NA
ATOM      5  C   UNL     1       3.339   6.715  18.205  0.00  0.00    +0.000 A 
ATOM      6  C   UNL     1       2.597   7.771  18.719  0.00  0.00    +0.000 A 
ATOM      7  C   UNL     1       1.890   7.667  19.917  0.00  0.00    +0.000 A 
ATOM      8  C   UNL     1       1.916   6.475  20.616  0.00  0.00    +0.000 A 
ATOM      9  C   UNL     1       2.648   5.401  20.111  0.00  0.00    +0.000 A 
ATOM     10  C   UNL     1       3.386   5.490  18.896  0.00  0.00    +0.000 A 
ATOM     11  C   UNL     1       5.464   6.344  15.254  0.00  0.00    +0.000 C 
ATOM     12  C   UNL     1       6.131   5.195  14.506  0.00  0.00    +0.000 C 
ATOM     13  C   UNL     1       6.775   4.228  15.483  0.00  0.00    +0.000 C 
ATOM     14  C   UNL     1       5.708   3.639  16.394  0.00  0.00    +0.000 C 
ENDROOT
BRANCH   1  15
ATOM     15  C   UNL     1       4.232   3.125  18.981  0.00  0.00    +0.000 C 
ATOM     16  O   UNL     1       4.942   2.866  19.940  0.00  0.00    +0.000 OA
BRANCH  15  17
ATOM     17  O   UNL     1       3.355   2.263  18.421  0.00  0.00    +0.000 OA
BRANCH  17  18
ATOM     18  C   UNL     1       2.298   1.802  19.265  0.00  0.00    +0.000 C 
BRANCH  18  20
ATOM     19  N   UNL     1       0.309   2.896  20.185  0.00  0.00    +0.000 N 
ATOM     20  C   UNL     1       1.048   2.650  19.062  0.00  0.00    +0.000 C 
ATOM     21  O   UNL     1       0.712   3.096  17.979  0.00  0.00    +0.000 OA
ATOM     22  H   UNL     1      -0.538   3.445  20.093  0.00  0.00    +0.000 HD
ATOM     23  H   UNL     1       0.589   2.546  21.087  0.00  0.00    +0.000 HD
ENDBRANCH  18  20
ENDBRANCH  17  18
ENDBRANCH  15  17
ENDBRANCH   1  15
TORSDOF 4
ENDMDL
MODEL 5
REMARK VINA RESULT:      -7.2      1.053      4.151
REMARK  Name = 
REMARK  4 active torsions:
REMARK  status: ('A' for Active; 'I' for Inactive)
REMARK    1  A    between atoms: C_2  and  C_4
REMARK    2  A    between atoms: C_4  and  O_5
REMARK    3  A    between atoms: O_5  and  C_6
REMARK    4  A    between atoms: C_6  and  C_8
REMARK                            x       y       z     vdW  Elec       q    Type
REMARK                         _______ _______ _______ _____ _____    ______ ____
ROOT
ATOM      1  C   UNL     1       4.013   4.696  18.296  0.00  0.00    +0.000 A 
ATOM      2  C   UNL     1       4.771   4.796  17.105  0.00  0.00    +0.000 A 
ATOM      3  C   UNL     1       4.719   6.010  16.422  0.00  0.00    +0.000 A 
ATOM      4  N   UNL     1       4.009   7.073  16.864  0.00  0.00    +0.000 NA
ATOM      5  C   UNL     1       3.316   6.984  18.002  0.00  0.00    +0.000 A 
ATOM      6  C   UNL     1       2.618   8.115  18.407  0.00  0.00    +0.000 A 
ATOM      7  C   UNL     1       1.867   8.142  19.582  0.00  0.00    +0.000 A 
ATOM      8  C   UNL     1       1.804   7.009  20.371  0.00  0.00    +0.000 A 
ATOM      9  C   UNL     1       2.491   5.861  19.976  0.00  0.00    +0.000 A 
ATOM     10  C   UNL     1       3.272   5.817  18.785  0.00  0.00    +0.000 A 
ATOM     11  C   UNL     1       5.512   6.272  15.169  0.00  0.00    +0.000 C 
ATOM     12  C   UNL     1       6.139   5.035  14.536  0.00  0.00    +0.000 C 
ATOM     13  C   UNL     1       6.696   4.113  15.607  0.00  0.00    +0.000 C 
ATOM     14  C   UNL     1       5.569   3.655  16.520  0.00  0.00    +0.000 C 
ENDROOT
BRANCH   1  15
ATOM     15  C   UNL     1       3.982   3.423  19.082  0.00  0.00    +0.000 C 
ATOM     16  O   UNL     1       4.837   3.073  19.880  0.00  0.00    +0.000 OA
BRANCH  15  17
ATOM     17  O   UNL     1       2.846   2.738  18.824  0.00  0.00    +0.000 OA
BRANCH  17  18
ATOM     18  C   UNL     1       2.397   1.853  19.852  0.00  0.00    +0.000 C 
BRANCH  18  20
ATOM     19  N   UNL     1       0.391   3.162  20.367  0.00  0.00    +0.000 N 
ATOM     20  C   UNL     1       1.537   2.604  20.861  0.00  0.00    +0.000 C 
ATOM     21  O   UNL     1       1.827   2.708  22.040  0.00  0.00    +0.000 OA
ATOM     22  H   UNL     1      -0.203   3.682  21.001  0.00  0.00    +0.000 HD
ATOM     23  H   UNL     1       0.135   3.065  19.398  0.00  0.00    +0.000 HD
ENDBRANCH  18  20
ENDBRANCH  17  18
ENDBRANCH  15  17
ENDBRANCH   1  15
TORSDOF 4
ENDMDL
MODEL 6
REMARK VINA RESULT:      -7.2      2.865      4.573
REMARK  Name = 
REMARK  4 active torsions:
REMARK  status: ('A' for Active; 'I' for Inactive)
REMARK    1  A    between atoms: C_2  and  C_4
REMARK    2  A    between atoms: C_4  and  O_5
REMARK    3  A    between atoms: O_5  and  C_6
REMARK    4  A    between atoms: C_6  and  C_8
REMARK                            x       y       z     vdW  Elec       q    Type
REMARK                         _______ _______ _______ _____ _____    ______ ____
ROOT
ATOM      1  C   UNL     1       2.862   5.684  18.368  0.00  0.00    +0.000 A 
ATOM      2  C   UNL     1       2.288   4.497  18.882  0.00  0.00    +0.000 A 
ATOM      3  C   UNL     1       2.734   3.292  18.342  0.00  0.00    +0.000 A 
ATOM      4  N   UNL     1       3.691   3.223  17.389  0.00  0.00    +0.000 NA
ATOM      5  C   UNL     1       4.250   4.343  16.924  0.00  0.00    +0.000 A 
ATOM      6  C   UNL     1       5.235   4.203  15.953  0.00  0.00    +0.000 A 
ATOM      7  C   UNL     1       5.894   5.301  15.402  0.00  0.00    +0.000 A 
ATOM      8  C   UNL     1       5.557   6.574  15.822  0.00  0.00    +0.000 A 
ATOM      9  C   UNL     1       4.564   6.735  16.788  0.00  0.00    +0.000 A 
ATOM     10  C   UNL     1       3.887   5.626  17.373  0.00  0.00    +0.000 A 
ATOM     11  C   UNL     1       2.246   1.953  18.828  0.00  0.00    +0.000 C 
ATOM     12  C   UNL     1       1.022   2.007  19.736  0.00  0.00    +0.000 C 
ATOM     13  C   UNL     1       1.129   3.172  20.704  0.00  0.00    +0.000 C 
ATOM     14  C   UNL     1       1.195   4.477  19.924  0.00  0.00    +0.000 C 
ENDROOT
BRANCH   1  15
ATOM     15  C   UNL     1       2.425   7.026  18.863  0.00  0.00    +0.000 C 
ATOM     16  O   UNL     1       2.658   7.471  19.975  0.00  0.00    +0.000 OA
BRANCH  15  17
ATOM     17  O   UNL     1       1.779   7.701  17.886  0.00  0.00    +0.000 OA
BRANCH  17  18
ATOM     18  C   UNL     1       1.962   9.118  17.873  0.00  0.00    +0.000 C 
BRANCH  18  20
ATOM     19  N   UNL     1      -0.289  10.054  17.634  0.00  0.00    +0.000 N 
ATOM     20  C   UNL     1       0.754   9.816  18.485  0.00  0.00    +0.000 C 
ATOM     21  O   UNL     1       0.695  10.145  19.657  0.00  0.00    +0.000 OA
ATOM     22  H   UNL     1      -1.108  10.528  17.997  0.00  0.00    +0.000 HD
ATOM     23  H   UNL     1      -0.256   9.769  16.668  0.00  0.00    +0.000 HD
ENDBRANCH  18  20
ENDBRANCH  17  18
ENDBRANCH  15  17
ENDBRANCH   1  15
TORSDOF 4
ENDMDL
MODEL 7
REMARK VINA RESULT:      -7.1      1.035      1.084
REMARK  Name = 
REMARK  4 active torsions:
REMARK  status: ('A' for Active; 'I' for Inactive)
REMARK    1  A    between atoms: C_2  and  C_4
REMARK    2  A    between atoms: C_4  and  O_5
REMARK    3  A    between atoms: O_5  and  C_6
REMARK    4  A    between atoms: C_6  and  C_8
REMARK                            x       y       z     vdW  Elec       q    Type
REMARK                         _______ _______ _______ _____ _____    ______ ____
ROOT
ATOM      1  C   UNL     1       3.967   4.631  18.472  0.00  0.00    +0.000 A 
ATOM      2  C   UNL     1       3.227   5.712  19.007  0.00  0.00    +0.000 A 
ATOM      3  C   UNL     1       3.250   6.909  18.295  0.00  0.00    +0.000 A 
ATOM      4  N   UNL     1       3.917   7.058  17.128  0.00  0.00    +0.000 NA
ATOM      5  C   UNL     1       4.593   6.029  16.611  0.00  0.00    +0.000 A 
ATOM      6  C   UNL     1       5.247   6.244  15.404  0.00  0.00    +0.000 A 
ATOM      7  C   UNL     1       5.976   5.241  14.767  0.00  0.00    +0.000 A 
ATOM      8  C   UNL     1       6.064   3.992  15.353  0.00  0.00    +0.000 A 
ATOM      9  C   UNL     1       5.422   3.760  16.568  0.00  0.00    +0.000 A 
ATOM     10  C   UNL     1       4.662   4.768  17.230  0.00  0.00    +0.000 A 
ATOM     11  C   UNL     1       2.470   8.125  18.723  0.00  0.00    +0.000 C 
ATOM     12  C   UNL     1       1.895   8.055  20.133  0.00  0.00    +0.000 C 
ATOM     13  C   UNL     1       1.351   6.666  20.417  0.00  0.00    +0.000 C 
ATOM     14  C   UNL     1       2.477   5.648  20.317  0.00  0.00    +0.000 C 
ENDROOT
BRANCH   1  15
ATOM     15  C   UNL     1       4.027   3.315  19.180  0.00  0.00    +0.000 C 
ATOM     16  O   UNL     1       4.927   2.962  19.925  0.00  0.00    +0.000 OA
BRANCH  15  17
ATOM     17  O   UNL     1       2.918   2.589  18.920  0.00  0.00    +0.000 OA
BRANCH  17  18
ATOM     18  C   UNL     1       2.450   1.752  19.979  0.00  0.00    +0.000 C 
BRANCH  18  20
ATOM     19  N   UNL     1       0.394   3.058  20.246  0.00  0.00    +0.000 N 
ATOM     20  C   UNL     1       1.482   2.518  20.874  0.00  0.00    +0.000 C 
ATOM     21  O   UNL     1       1.643   2.648  22.074  0.00  0.00    +0.000 OA
ATOM     22  H   UNL     1      -0.267   3.587  20.801  0.00  0.00    +0.000 HD
ATOM     23  H   UNL     1       0.245   2.940  19.257  0.00  0.00    +0.000 HD
ENDBRANCH  18  20
ENDBRANCH  17  18
ENDBRANCH  15  17
ENDBRANCH   1  15
TORSDOF 4
ENDMDL
MODEL 8
REMARK VINA RESULT:      -7.1      2.533      5.076
REMARK  Name = 
REMARK  4 active torsions:
REMARK  status: ('A' for Active; 'I' for Inactive)
REMARK    1  A    between atoms: C_2  and  C_4
REMARK    2  A    between atoms: C_4  and  O_5
REMARK    3  A    between atoms: O_5  and  C_6
REMARK    4  A    between atoms: C_6  and  C_8
REMARK                            x       y       z     vdW  Elec       q    Type
REMARK                         _______ _______ _______ _____ _____    ______ ____
ROOT
ATOM      1  C   UNL     1       4.048   4.726  18.601  0.00  0.00    +0.000 A 
ATOM      2  C   UNL     1       3.571   6.031  18.327  0.00  0.00    +0.000 A 
ATOM      3  C   UNL     1       2.522   6.500  19.114  0.00  0.00    +0.000 A 
ATOM      4  N   UNL     1       1.979   5.779  20.122  0.00  0.00    +0.000 NA
ATOM      5  C   UNL     1       2.448   4.559  20.396  0.00  0.00    +0.000 A 
ATOM      6  C   UNL     1       1.855   3.876  21.451  0.00  0.00    +0.000 A 
ATOM      7  C   UNL     1       2.268   2.600  21.834  0.00  0.00    +0.000 A 
ATOM      8  C   UNL     1       3.294   1.985  21.142  0.00  0.00    +0.000 A 
ATOM      9  C   UNL     1       3.895   2.651  20.075  0.00  0.00    +0.000 A 
ATOM     10  C   UNL     1       3.496   3.960  19.675  0.00  0.00    +0.000 A 
ATOM     11  C   UNL     1       1.949   7.885  18.964  0.00  0.00    +0.000 C 
ATOM     12  C   UNL     1       2.388   8.628  17.707  0.00  0.00    +0.000 C 
ATOM     13  C   UNL     1       3.861   8.382  17.431  0.00  0.00    +0.000 C 
ATOM     14  C   UNL     1       4.095   6.896  17.205  0.00  0.00    +0.000 C 
ENDROOT
BRANCH   1  15
ATOM     15  C   UNL     1       5.151   4.124  17.790  0.00  0.00    +0.000 C 
ATOM     16  O   UNL     1       5.033   3.708  16.649  0.00  0.00    +0.000 OA
BRANCH  15  17
ATOM     17  O   UNL     1       6.312   4.152  18.480  0.00  0.00    +0.000 OA
BRANCH  17  18
ATOM     18  C   UNL     1       7.387   4.873  17.874  0.00  0.00    +0.000 C 
BRANCH  18  20
ATOM     19  N   UNL     1       8.198   5.562  20.081  0.00  0.00    +0.000 N 
ATOM     20  C   UNL     1       7.890   5.965  18.811  0.00  0.00    +0.000 C 
ATOM     21  O   UNL     1       8.023   7.127  18.472  0.00  0.00    +0.000 OA
ATOM     22  H   UNL     1       8.524   6.259  20.740  0.00  0.00    +0.000 HD
ATOM     23  H   UNL     1       8.108   4.600  20.365  0.00  0.00    +0.000 HD
ENDBRANCH  18  20
ENDBRANCH  17  18
ENDBRANCH  15  17
ENDBRANCH   1  15
TORSDOF 4
ENDMDL
MODEL 9
REMARK VINA RESULT:      -7.0      2.392      5.013
REMARK  Name = 
REMARK  4 active torsions:
REMARK  status: ('A' for Active; 'I' for Inactive)
REMARK    1  A    between atoms: C_2  and  C_4
REMARK    2  A    between atoms: C_4  and  O_5
REMARK    3  A    between atoms: O_5  and  C_6
REMARK    4  A    between atoms: C_6  and  C_8
REMARK                            x       y       z     vdW  Elec       q    Type
REMARK                         _______ _______ _______ _____ _____    ______ ____
ROOT
ATOM      1  C   UNL     1       3.589   5.577  18.464  0.00  0.00    +0.000 A 
ATOM      2  C   UNL     1       2.917   6.821  18.546  0.00  0.00    +0.000 A 
ATOM      3  C   UNL     1       2.013   6.984  19.593  0.00  0.00    +0.000 A 
ATOM      4  N   UNL     1       1.785   6.030  20.524  0.00  0.00    +0.000 NA
ATOM      5  C   UNL     1       2.439   4.867  20.460  0.00  0.00    +0.000 A 
ATOM      6  C   UNL     1       2.168   3.934  21.453  0.00  0.00    +0.000 A 
ATOM      7  C   UNL     1       2.797   2.690  21.493  0.00  0.00    +0.000 A 
ATOM      8  C   UNL     1       3.716   2.365  20.513  0.00  0.00    +0.000 A 
ATOM      9  C   UNL     1       3.995   3.285  19.503  0.00  0.00    +0.000 A 
ATOM     10  C   UNL     1       3.371   4.565  19.451  0.00  0.00    +0.000 A 
ATOM     11  C   UNL     1       1.265   8.271  19.829  0.00  0.00    +0.000 C 
ATOM     12  C   UNL     1       1.337   9.273  18.682  0.00  0.00    +0.000 C 
ATOM     13  C   UNL     1       2.735   9.306  18.090  0.00  0.00    +0.000 C 
ATOM     14  C   UNL     1       3.086   7.932  17.537  0.00  0.00    +0.000 C 
ENDROOT
BRANCH   1  15
ATOM     15  C   UNL     1       4.555   5.296  17.357  0.00  0.00    +0.000 C 
ATOM     16  O   UNL     1       4.319   4.602  16.382  0.00  0.00    +0.000 OA
BRANCH  15  17
ATOM     17  O   UNL     1       5.712   5.963  17.563  0.00  0.00    +0.000 OA
BRANCH  17  18
ATOM     18  C   UNL     1       6.841   5.166  17.930  0.00  0.00    +0.000 C 
BRANCH  18  20
ATOM     19  N   UNL     1       8.257   6.951  18.829  0.00  0.00    +0.000 N 
ATOM     20  C   UNL     1       7.577   5.797  19.105  0.00  0.00    +0.000 C 
ATOM     21  O   UNL     1       7.571   5.327  20.229  0.00  0.00    +0.000 OA
ATOM     22  H   UNL     1       8.772   7.397  19.579  0.00  0.00    +0.000 HD
ATOM     23  H   UNL     1       8.253   7.356  17.907  0.00  0.00    +0.000 HD
ENDBRANCH  18  20
ENDBRANCH  17  18
ENDBRANCH  15  17
ENDBRANCH   1  15
TORSDOF 4
ENDMDL
