MODEL 1
REMARK VINA RESULT:      -7.2      0.000      0.000
REMARK  Name = 
REMARK  4 active torsions:
REMARK  status: ('A' for Active; 'I' for Inactive)
REMARK    1  A    between atoms: C_4  and  C_5
REMARK    2  A    between atoms: C_5  and  C_6
REMARK    3  A    between atoms: C_10  and  O_11
REMARK    4  A    between atoms: C_12  and  C_13
REMARK                            x       y       z     vdW  Elec       q    Type
REMARK                         _______ _______ _______ _____ _____    ______ ____
ROOT
ATOM      1  O   UNL     1       6.358   4.684  19.428  0.00  0.00    +0.000 OA
ATOM      2  C   UNL     1       5.829   4.413  18.354  0.00  0.00    +0.000 A 
ATOM      3  N   UNL     1       6.556   4.435  17.185  0.00  0.00    +0.000 N 
ATOM      4  C   UNL     1       6.038   4.193  15.933  0.00  0.00    +0.000 A 
ATOM      5  C   UNL     1       4.735   3.892  15.819  0.00  0.00    +0.000 A 
ATOM      6  C   UNL     1       3.904   3.777  16.999  0.00  0.00    +0.000 A 
ATOM      7  C   UNL     1       4.381   4.030  18.234  0.00  0.00    +0.000 A 
ATOM      8  H   UNL     1       7.536   4.671  17.291  0.00  0.00    +0.000 HD
ENDROOT
BRANCH   7   9
ATOM      9  C   UNL     1       3.547   3.879  19.437  0.00  0.00    +0.000 A 
ATOM     10  C   UNL     1       3.557   2.671  20.149  0.00  0.00    +0.000 A 
ATOM     11  C   UNL     1       2.764   2.512  21.287  0.00  0.00    +0.000 A 
ATOM     12  C   UNL     1       1.951   3.557  21.722  0.00  0.00    +0.000 A 
ATOM     13  C   UNL     1       1.931   4.761  21.018  0.00  0.00    +0.000 A 
ATOM     14  C   UNL     1       2.723   4.922  19.877  0.00  0.00    +0.000 A 
ENDBRANCH   7   9
BRANCH   6  15
ATOM     15  O   UNL     1       2.604   3.368  16.781  0.00  0.00    +0.000 OA
ATOM     16  H   UNL     1       2.522   3.028  15.876  0.00  0.00    +0.000 HD
ENDBRANCH   6  15
BRANCH   4  17
ATOM     17  C   UNL     1       6.971   4.308  14.749  0.00  0.00    +0.000 C 
BRANCH  17  18
ATOM     18  C   UNL     1       6.283   4.445  13.415  0.00  0.00    +0.000 C 
ATOM     19  C   UNL     1       7.082   4.294  12.143  0.00  0.00    +0.000 C 
ATOM     20  C   UNL     1       6.079   3.243  12.525  0.00  0.00    +0.000 C 
ENDBRANCH  17  18
ENDBRANCH   4  17
TORSDOF 4
ENDMDL
MODEL 2
REMARK VINA RESULT:      -7.1      0.247      1.161
REMARK  Name = 
REMARK  4 active torsions:
REMARK  status: ('A' for Active; 'I' for Inactive)
REMARK    1  A    between atoms: C_4  and  C_5
REMARK    2  A    between atoms: C_5  and  C_6
REMARK    3  A    between atoms: C_10  and  O_11
REMARK    4  A    between atoms: C_12  and  C_13
REMARK                            x       y       z     vdW  Elec       q    Type
REMARK                         _______ _______ _______ _____ _____    ______ ____
ROOT
ATOM      1  O   UNL     1       6.168   4.736  19.641  0.00  0.00    +0.000 OA
ATOM      2  C   UNL     1       5.708   4.450  18.539  0.00  0.00    +0.000 A 
ATOM      3  N   UNL     1       6.493   4.518  17.410  0.00  0.00    +0.000 N 
ATOM      4  C   UNL     1       6.053   4.263  16.131  0.00  0.00    +0.000 A 
ATOM      5  C   UNL     1       4.774   3.901  15.947  0.00  0.00    +0.000 A 
ATOM      6  C   UNL     1       3.889   3.735  17.082  0.00  0.00    +0.000 A 
ATOM      7  C   UNL     1       4.289   3.999  18.341  0.00  0.00    +0.000 A 
ATOM      8  H   UNL     1       7.453   4.800  17.569  0.00  0.00    +0.000 HD
ENDROOT
BRANCH   7   9
ATOM      9  C   UNL     1       3.402   3.796  19.499  0.00  0.00    +0.000 A 
ATOM     10  C   UNL     1       2.470   4.783  19.848  0.00  0.00    +0.000 A 
ATOM     11  C   UNL     1       1.629   4.607  20.948  0.00  0.00    +0.000 A 
ATOM     12  C   UNL     1       1.714   3.444  21.711  0.00  0.00    +0.000 A 
ATOM     13  C   UNL     1       2.641   2.457  21.374  0.00  0.00    +0.000 A 
ATOM     14  C   UNL     1       3.485   2.633  20.274  0.00  0.00    +0.000 A 
ENDBRANCH   7   9
BRANCH   6  15
ATOM     15  O   UNL     1       2.623   3.266  16.793  0.00  0.00    +0.000 OA
ATOM     16  H   UNL     1       2.078   3.997  16.463  0.00  0.00    +0.000 HD
ENDBRANCH   6  15
BRANCH   4  17
ATOM     17  C   UNL     1       7.039   4.434  14.998  0.00  0.00    +0.000 C 
BRANCH  17  18
ATOM     18  C   UNL     1       6.413   4.627  13.641  0.00  0.00    +0.000 C 
ATOM     19  C   UNL     1       7.269   4.527  12.402  0.00  0.00    +0.000 C 
ATOM     20  C   UNL     1       6.250   3.463  12.694  0.00  0.00    +0.000 C 
ENDBRANCH  17  18
ENDBRANCH   4  17
TORSDOF 4
ENDMDL
MODEL 3
REMARK VINA RESULT:      -7.0      0.627      1.962
REMARK  Name = 
REMARK  4 active torsions:
REMARK  status: ('A' for Active; 'I' for Inactive)
REMARK    1  A    between atoms: C_4  and  C_5
REMARK    2  A    between atoms: C_5  and  C_6
REMARK    3  A    between atoms: C_10  and  O_11
REMARK    4  A    between atoms: C_12  and  C_13
REMARK                            x       y       z     vdW  Elec       q    Type
REMARK                         _______ _______ _______ _____ _____    ______ ____
ROOT
ATOM      1  O   UNL     1       2.958   3.366  16.722  0.00  0.00    +0.000 OA
ATOM      2  C   UNL     1       4.089   3.786  16.952  0.00  0.00    +0.000 A 
ATOM      3  N   UNL     1       4.969   4.037  15.923  0.00  0.00    +0.000 N 
ATOM      4  C   UNL     1       6.267   4.463  16.087  0.00  0.00    +0.000 A 
ATOM      5  C   UNL     1       6.727   4.676  17.330  0.00  0.00    +0.000 A 
ATOM      6  C   UNL     1       5.853   4.506  18.473  0.00  0.00    +0.000 A 
ATOM      7  C   UNL     1       4.585   4.069  18.341  0.00  0.00    +0.000 A 
ATOM      8  H   UNL     1       4.606   3.863  14.993  0.00  0.00    +0.000 HD
ENDROOT
BRANCH   7   9
ATOM      9  C   UNL     1       3.685   3.930  19.498  0.00  0.00    +0.000 A 
ATOM     10  C   UNL     1       3.644   2.725  20.213  0.00  0.00    +0.000 A 
ATOM     11  C   UNL     1       2.789   2.579  21.306  0.00  0.00    +0.000 A 
ATOM     12  C   UNL     1       1.965   3.633  21.693  0.00  0.00    +0.000 A 
ATOM     13  C   UNL     1       1.996   4.835  20.987  0.00  0.00    +0.000 A 
ATOM     14  C   UNL     1       2.850   4.984  19.890  0.00  0.00    +0.000 A 
ENDBRANCH   7   9
BRANCH   6  15
ATOM     15  O   UNL     1       6.393   4.844  19.697  0.00  0.00    +0.000 OA
ATOM     16  H   UNL     1       6.614   5.789  19.701  0.00  0.00    +0.000 HD
ENDBRANCH   6  15
BRANCH   4  17
ATOM     17  C   UNL     1       7.113   4.642  14.846  0.00  0.00    +0.000 C 
BRANCH  17  18
ATOM     18  C   UNL     1       6.346   4.607  13.550  0.00  0.00    +0.000 C 
ATOM     19  C   UNL     1       7.089   4.438  12.247  0.00  0.00    +0.000 C 
ATOM     20  C   UNL     1       6.220   3.326  12.762  0.00  0.00    +0.000 C 
ENDBRANCH  17  18
ENDBRANCH   4  17
TORSDOF 4
ENDMDL
MODEL 4
REMARK VINA RESULT:      -7.0      0.628      2.268
REMARK  Name = 
REMARK  4 active torsions:
REMARK  status: ('A' for Active; 'I' for Inactive)
REMARK    1  A    between atoms: C_4  and  C_5
REMARK    2  A    between atoms: C_5  and  C_6
REMARK    3  A    between atoms: C_10  and  O_11
REMARK    4  A    between atoms: C_12  and  C_13
REMARK                            x       y       z     vdW  Elec       q    Type
REMARK                         _______ _______ _______ _____ _____    ______ ____
ROOT
ATOM      1  O   UNL     1       2.977   3.321  16.723  0.00  0.00    +0.000 OA
ATOM      2  C   UNL     1       4.102   3.756  16.956  0.00  0.00    +0.000 A 
ATOM      3  N   UNL     1       4.981   4.020  15.930  0.00  0.00    +0.000 N 
ATOM      4  C   UNL     1       6.273   4.462  16.097  0.00  0.00    +0.000 A 
ATOM      5  C   UNL     1       6.728   4.678  17.341  0.00  0.00    +0.000 A 
ATOM      6  C   UNL     1       5.854   4.494  18.482  0.00  0.00    +0.000 A 
ATOM      7  C   UNL     1       4.592   4.041  18.347  0.00  0.00    +0.000 A 
ATOM      8  H   UNL     1       4.622   3.844  14.998  0.00  0.00    +0.000 HD
ENDROOT
BRANCH   7   9
ATOM      9  C   UNL     1       3.692   3.888  19.502  0.00  0.00    +0.000 A 
ATOM     10  C   UNL     1       2.871   4.954  19.896  0.00  0.00    +0.000 A 
ATOM     11  C   UNL     1       2.020   4.824  20.995  0.00  0.00    +0.000 A 
ATOM     12  C   UNL     1       1.983   3.630  21.711  0.00  0.00    +0.000 A 
ATOM     13  C   UNL     1       2.799   2.565  21.329  0.00  0.00    +0.000 A 
ATOM     14  C   UNL     1       3.654   2.693  20.230  0.00  0.00    +0.000 A 
ENDBRANCH   7   9
BRANCH   6  15
ATOM     15  O   UNL     1       6.388   4.836  19.708  0.00  0.00    +0.000 OA
ATOM     16  H   UNL     1       5.943   4.328  20.405  0.00  0.00    +0.000 HD
ENDBRANCH   6  15
BRANCH   4  17
ATOM     17  C   UNL     1       7.119   4.655  14.858  0.00  0.00    +0.000 C 
BRANCH  17  18
ATOM     18  C   UNL     1       6.353   4.627  13.561  0.00  0.00    +0.000 C 
ATOM     19  C   UNL     1       7.096   4.452  12.259  0.00  0.00    +0.000 C 
ATOM     20  C   UNL     1       6.217   3.347  12.773  0.00  0.00    +0.000 C 
ENDBRANCH  17  18
ENDBRANCH   4  17
TORSDOF 4
ENDMDL
MODEL 5
REMARK VINA RESULT:      -6.9      1.530      1.634
REMARK  Name = 
REMARK  4 active torsions:
REMARK  status: ('A' for Active; 'I' for Inactive)
REMARK    1  A    between atoms: C_4  and  C_5
REMARK    2  A    between atoms: C_5  and  C_6
REMARK    3  A    between atoms: C_10  and  O_11
REMARK    4  A    between atoms: C_12  and  C_13
REMARK                            x       y       z     vdW  Elec       q    Type
REMARK                         _______ _______ _______ _____ _____    ______ ____
ROOT
ATOM      1  O   UNL     1       3.309   6.365  18.263  0.00  0.00    +0.000 OA
ATOM      2  C   UNL     1       3.821   5.427  17.657  0.00  0.00    +0.000 A 
ATOM      3  N   UNL     1       4.655   5.653  16.584  0.00  0.00    +0.000 N 
ATOM      4  C   UNL     1       5.233   4.668  15.818  0.00  0.00    +0.000 A 
ATOM      5  C   UNL     1       4.999   3.384  16.131  0.00  0.00    +0.000 A 
ATOM      6  C   UNL     1       4.191   3.046  17.285  0.00  0.00    +0.000 A 
ATOM      7  C   UNL     1       3.595   3.992  18.038  0.00  0.00    +0.000 A 
ATOM      8  H   UNL     1       4.813   6.629  16.360  0.00  0.00    +0.000 HD
ENDROOT
BRANCH   7   9
ATOM      9  C   UNL     1       2.803   3.652  19.231  0.00  0.00    +0.000 A 
ATOM     10  C   UNL     1       3.442   3.165  20.381  0.00  0.00    +0.000 A 
ATOM     11  C   UNL     1       2.701   2.831  21.515  0.00  0.00    +0.000 A 
ATOM     12  C   UNL     1       1.315   2.978  21.512  0.00  0.00    +0.000 A 
ATOM     13  C   UNL     1       0.670   3.459  20.372  0.00  0.00    +0.000 A 
ATOM     14  C   UNL     1       1.410   3.791  19.234  0.00  0.00    +0.000 A 
ENDBRANCH   7   9
BRANCH   6  15
ATOM     15  O   UNL     1       4.092   1.701  17.576  0.00  0.00    +0.000 OA
ATOM     16  H   UNL     1       4.721   1.478  18.281  0.00  0.00    +0.000 HD
ENDBRANCH   6  15
BRANCH   4  17
ATOM     17  C   UNL     1       6.085   5.095  14.644  0.00  0.00    +0.000 C 
BRANCH  17  18
ATOM     18  C   UNL     1       6.549   3.967  13.759  0.00  0.00    +0.000 C 
ATOM     19  C   UNL     1       5.754   3.608  12.527  0.00  0.00    +0.000 C 
ATOM     20  C   UNL     1       7.106   4.245  12.384  0.00  0.00    +0.000 C 
ENDBRANCH  17  18
ENDBRANCH   4  17
TORSDOF 4
ENDMDL
MODEL 6
REMARK VINA RESULT:      -6.8      3.079      4.202
REMARK  Name = 
REMARK  4 active torsions:
REMARK  status: ('A' for Active; 'I' for Inactive)
REMARK    1  A    between atoms: C_4  and  C_5
REMARK    2  A    between atoms: C_5  and  C_6
REMARK    3  A    between atoms: C_10  and  O_11
REMARK    4  A    between atoms: C_12  and  C_13
REMARK                            x       y       z     vdW  Elec       q    Type
REMARK                         _______ _______ _______ _____ _____    ______ ____
ROOT
ATOM      1  O   UNL     1       2.914   7.002  17.687  0.00  0.00    +0.000 OA
ATOM      2  C   UNL     1       4.005   6.478  17.891  0.00  0.00    +0.000 A 
ATOM      3  N   UNL     1       5.173   7.143  17.588  0.00  0.00    +0.000 N 
ATOM      4  C   UNL     1       6.436   6.618  17.738  0.00  0.00    +0.000 A 
ATOM      5  C   UNL     1       6.567   5.378  18.233  0.00  0.00    +0.000 A 
ATOM      6  C   UNL     1       5.400   4.626  18.645  0.00  0.00    +0.000 A 
ATOM      7  C   UNL     1       4.151   5.108  18.488  0.00  0.00    +0.000 A 
ATOM      8  H   UNL     1       5.052   8.075  17.210  0.00  0.00    +0.000 HD
ENDROOT
BRANCH   7   9
ATOM      9  C   UNL     1       2.966   4.360  18.940  0.00  0.00    +0.000 A 
ATOM     10  C   UNL     1       2.476   4.543  20.241  0.00  0.00    +0.000 A 
ATOM     11  C   UNL     1       1.358   3.834  20.683  0.00  0.00    +0.000 A 
ATOM     12  C   UNL     1       0.722   2.933  19.832  0.00  0.00    +0.000 A 
ATOM     13  C   UNL     1       1.204   2.742  18.537  0.00  0.00    +0.000 A 
ATOM     14  C   UNL     1       2.324   3.449  18.092  0.00  0.00    +0.000 A 
ENDBRANCH   7   9
BRANCH   6  15
ATOM     15  O   UNL     1       5.650   3.401  19.230  0.00  0.00    +0.000 OA
ATOM     16  H   UNL     1       6.585   3.174  19.111  0.00  0.00    +0.000 HD
ENDBRANCH   6  15
BRANCH   4  17
ATOM     17  C   UNL     1       7.609   7.470  17.309  0.00  0.00    +0.000 C 
BRANCH  17  18
ATOM     18  C   UNL     1       7.680   8.824  17.966  0.00  0.00    +0.000 C 
ATOM     19  C   UNL     1       8.855   9.166  18.850  0.00  0.00    +0.000 C 
ATOM     20  C   UNL     1       8.697   9.847  17.520  0.00  0.00    +0.000 C 
ENDBRANCH  17  18
ENDBRANCH   4  17
TORSDOF 4
ENDMDL
MODEL 7
REMARK VINA RESULT:      -6.8      3.107      4.205
REMARK  Name = 
REMARK  4 active torsions:
REMARK  status: ('A' for Active; 'I' for Inactive)
REMARK    1  A    between atoms: C_4  and  C_5
REMARK    2  A    between atoms: C_5  and  C_6
REMARK    3  A    between atoms: C_10  and  O_11
REMARK    4  A    between atoms: C_12  and  C_13
REMARK                            x       y       z     vdW  Elec       q    Type
REMARK                         _______ _______ _______ _____ _____    ______ ____
ROOT
ATOM      1  O   UNL     1       2.966   7.102  17.710  0.00  0.00    +0.000 OA
ATOM      2  C   UNL     1       4.056   6.571  17.904  0.00  0.00    +0.000 A 
ATOM      3  N   UNL     1       5.225   7.233  17.604  0.00  0.00    +0.000 N 
ATOM      4  C   UNL     1       6.487   6.701  17.743  0.00  0.00    +0.000 A 
ATOM      5  C   UNL     1       6.614   5.454  18.222  0.00  0.00    +0.000 A 
ATOM      6  C   UNL     1       5.444   4.703  18.630  0.00  0.00    +0.000 A 
ATOM      7  C   UNL     1       4.197   5.192  18.485  0.00  0.00    +0.000 A 
ATOM      8  H   UNL     1       5.108   8.170  17.237  0.00  0.00    +0.000 HD
ENDROOT
BRANCH   7   9
ATOM      9  C   UNL     1       3.010   4.445  18.932  0.00  0.00    +0.000 A 
ATOM     10  C   UNL     1       2.370   3.557  18.056  0.00  0.00    +0.000 A 
ATOM     11  C   UNL     1       1.239   2.850  18.466  0.00  0.00    +0.000 A 
ATOM     12  C   UNL     1       0.735   3.025  19.753  0.00  0.00    +0.000 A 
ATOM     13  C   UNL     1       1.363   3.909  20.631  0.00  0.00    +0.000 A 
ATOM     14  C   UNL     1       2.494   4.620  20.222  0.00  0.00    +0.000 A 
ENDBRANCH   7   9
BRANCH   6  15
ATOM     15  O   UNL     1       5.690   3.470  19.200  0.00  0.00    +0.000 OA
ATOM     16  H   UNL     1       6.605   3.206  19.011  0.00  0.00    +0.000 HD
ENDBRANCH   6  15
BRANCH   4  17
ATOM     17  C   UNL     1       7.662   7.552  17.319  0.00  0.00    +0.000 C 
BRANCH  17  18
ATOM     18  C   UNL     1       7.720   8.913  17.962  0.00  0.00    +0.000 C 
ATOM     19  C   UNL     1       8.843   9.242  18.916  0.00  0.00    +0.000 C 
ATOM     20  C   UNL     1       8.786   9.907  17.570  0.00  0.00    +0.000 C 
ENDBRANCH  17  18
ENDBRANCH   4  17
TORSDOF 4
ENDMDL
MODEL 8
REMARK VINA RESULT:      -6.7      1.597      1.906
REMARK  Name = 
REMARK  4 active torsions:
REMARK  status: ('A' for Active; 'I' for Inactive)
REMARK    1  A    between atoms: C_4  and  C_5
REMARK    2  A    between atoms: C_5  and  C_6
REMARK    3  A    between atoms: C_10  and  O_11
REMARK    4  A    between atoms: C_12  and  C_13
REMARK                            x       y       z     vdW  Elec       q    Type
REMARK                         _______ _______ _______ _____ _____    ______ ____
ROOT
ATOM      1  O   UNL     1       2.991   6.391  18.228  0.00  0.00    +0.000 OA
ATOM      2  C   UNL     1       3.618   5.496  17.669  0.00  0.00    +0.000 A 
ATOM      3  N   UNL     1       4.474   5.779  16.629  0.00  0.00    +0.000 N 
ATOM      4  C   UNL     1       5.180   4.839  15.914  0.00  0.00    +0.000 A 
ATOM      5  C   UNL     1       5.056   3.545  16.248  0.00  0.00    +0.000 A 
ATOM      6  C   UNL     1       4.232   3.155  17.373  0.00  0.00    +0.000 A 
ATOM      7  C   UNL     1       3.514   4.053  18.075  0.00  0.00    +0.000 A 
ATOM      8  H   UNL     1       4.549   6.761  16.387  0.00  0.00    +0.000 HD
ENDROOT
BRANCH   7   9
ATOM      9  C   UNL     1       2.703   3.663  19.241  0.00  0.00    +0.000 A 
ATOM     10  C   UNL     1       1.337   3.391  19.085  0.00  0.00    +0.000 A 
ATOM     11  C   UNL     1       0.557   3.028  20.184  0.00  0.00    +0.000 A 
ATOM     12  C   UNL     1       1.133   2.937  21.449  0.00  0.00    +0.000 A 
ATOM     13  C   UNL     1       2.491   3.209  21.615  0.00  0.00    +0.000 A 
ATOM     14  C   UNL     1       3.274   3.575  20.517  0.00  0.00    +0.000 A 
ENDBRANCH   7   9
BRANCH   6  15
ATOM     15  O   UNL     1       4.249   1.813  17.694  0.00  0.00    +0.000 OA
ATOM     16  H   UNL     1       4.250   1.713  18.659  0.00  0.00    +0.000 HD
ENDBRANCH   6  15
BRANCH   4  17
ATOM     17  C   UNL     1       6.040   5.322  14.768  0.00  0.00    +0.000 C 
BRANCH  17  18
ATOM     18  C   UNL     1       6.719   4.229  13.984  0.00  0.00    +0.000 C 
ATOM     19  C   UNL     1       6.034   3.642  12.773  0.00  0.00    +0.000 C 
ATOM     20  C   UNL     1       7.260   4.493  12.600  0.00  0.00    +0.000 C 
ENDBRANCH  17  18
ENDBRANCH   4  17
TORSDOF 4
ENDMDL
MODEL 9
REMARK VINA RESULT:      -6.6      1.543      2.093
REMARK  Name = 
REMARK  4 active torsions:
REMARK  status: ('A' for Active; 'I' for Inactive)
REMARK    1  A    between atoms: C_4  and  C_5
REMARK    2  A    between atoms: C_5  and  C_6
REMARK    3  A    between atoms: C_10  and  O_11
REMARK    4  A    between atoms: C_12  and  C_13
REMARK                            x       y       z     vdW  Elec       q    Type
REMARK                         _______ _______ _______ _____ _____    ______ ____
ROOT
ATOM      1  O   UNL     1       4.084   1.764  17.508  0.00  0.00    +0.000 OA
ATOM      2  C   UNL     1       4.239   2.966  17.311  0.00  0.00    +0.000 A 
ATOM      3  N   UNL     1       4.948   3.415  16.220  0.00  0.00    +0.000 N 
ATOM      4  C   UNL     1       5.212   4.737  15.945  0.00  0.00    +0.000 A 
ATOM      5  C   UNL     1       4.738   5.679  16.776  0.00  0.00    +0.000 A 
ATOM      6  C   UNL     1       3.922   5.307  17.914  0.00  0.00    +0.000 A 
ATOM      7  C   UNL     1       3.667   4.019  18.217  0.00  0.00    +0.000 A 
ATOM      8  H   UNL     1       5.304   2.689  15.608  0.00  0.00    +0.000 HD
ENDROOT
BRANCH   7   9
ATOM      9  C   UNL     1       2.809   3.642  19.352  0.00  0.00    +0.000 A 
ATOM     10  C   UNL     1       1.414   3.732  19.236  0.00  0.00    +0.000 A 
ATOM     11  C   UNL     1       0.590   3.385  20.307  0.00  0.00    +0.000 A 
ATOM     12  C   UNL     1       1.151   2.949  21.506  0.00  0.00    +0.000 A 
ATOM     13  C   UNL     1       2.537   2.860  21.633  0.00  0.00    +0.000 A 
ATOM     14  C   UNL     1       3.365   3.208  20.562  0.00  0.00    +0.000 A 
ENDBRANCH   7   9
BRANCH   6  15
ATOM     15  O   UNL     1       3.404   6.354  18.648  0.00  0.00    +0.000 OA
ATOM     16  H   UNL     1       3.371   7.150  18.094  0.00  0.00    +0.000 HD
ENDBRANCH   6  15
BRANCH   4  17
ATOM     17  C   UNL     1       6.051   5.051  14.726  0.00  0.00    +0.000 C 
BRANCH  17  18
ATOM     18  C   UNL     1       6.337   3.869  13.837  0.00  0.00    +0.000 C 
ATOM     19  C   UNL     1       5.470   3.617  12.627  0.00  0.00    +0.000 C 
ATOM     20  C   UNL     1       6.893   4.066  12.447  0.00  0.00    +0.000 C 
ENDBRANCH  17  18
ENDBRANCH   4  17
TORSDOF 4
ENDMDL
