MODEL 1
REMARK VINA RESULT:      -8.4      0.000      0.000
REMARK  Name = 
REMARK  6 active torsions:
REMARK  status: ('A' for Active; 'I' for Inactive)
REMARK    1  A    between atoms: C_2  and  O_3
REMARK    2  A    between atoms: C_2  and  C_12
REMARK    3  A    between atoms: O_3  and  C_4
REMARK    4  A    between atoms: C_4  and  C_5
REMARK    5  A    between atoms: C_17  and  C_18
REMARK    6  A    between atoms: C_18  and  C_20
REMARK                            x       y       z     vdW  Elec       q    Type
REMARK                         _______ _______ _______ _____ _____    ______ ____
ROOT
ATOM      1  C   UNL     1       2.539   3.501  18.920  0.00  0.00    +0.000 A 
ATOM      2  C   UNL     1       1.967   2.288  19.371  0.00  0.00    +0.000 A 
ATOM      3  C   UNL     1       1.444   2.153  20.657  0.00  0.00    +0.000 A 
ATOM      4  C   UNL     1       1.492   3.228  21.530  0.00  0.00    +0.000 A 
ATOM      5  C   UNL     1       2.076   4.426  21.119  0.00  0.00    +0.000 A 
ATOM      6  C   UNL     1       2.588   4.594  19.811  0.00  0.00    +0.000 A 
ENDROOT
BRANCH   1   8
ATOM      7  O   UNL     1       2.272   3.424  16.550  0.00  0.00    +0.000 OA
ATOM      8  C   UNL     1       3.035   3.432  17.509  0.00  0.00    +0.000 C 
BRANCH   8   9
ATOM      9  O   UNL     1       4.358   3.239  17.446  0.00  0.00    +0.000 OA
BRANCH   9  10
ATOM     10  C   UNL     1       5.074   3.935  16.410  0.00  0.00    +0.000 C 
BRANCH  10  11
ATOM     11  C   UNL     1       6.011   4.959  17.017  0.00  0.00    +0.000 A 
ATOM     12  C   UNL     1       6.918   4.573  18.025  0.00  0.00    +0.000 A 
ATOM     13  C   UNL     1       7.799   5.487  18.603  0.00  0.00    +0.000 A 
ATOM     14  C   UNL     1       7.776   6.818  18.203  0.00  0.00    +0.000 A 
ATOM     15  C   UNL     1       6.863   7.231  17.233  0.00  0.00    +0.000 A 
ATOM     16  C   UNL     1       5.982   6.313  16.649  0.00  0.00    +0.000 A 
ATOM     17 CL   UNL     1       4.865   6.918  15.479  0.00  0.00    +0.000 Cl
ENDBRANCH  10  11
ENDBRANCH   9  10
ENDBRANCH   8   9
ENDBRANCH   1   8
BRANCH   6  18
ATOM     18  C   UNL     1       3.237   5.911  19.541  0.00  0.00    +0.000 C 
ATOM     19  O   UNL     1       4.449   6.035  19.682  0.00  0.00    +0.000 OA
BRANCH  18  20
ATOM     20  C   UNL     1       2.440   7.155  19.316  0.00  0.00    +0.000 A 
ATOM     21  C   UNL     1       1.723   7.806  20.329  0.00  0.00    +0.000 A 
ATOM     22  C   UNL     1       1.111   9.038  20.072  0.00  0.00    +0.000 A 
ATOM     23  C   UNL     1       1.179   9.607  18.800  0.00  0.00    +0.000 A 
ATOM     24  C   UNL     1       1.846   8.940  17.774  0.00  0.00    +0.000 A 
ATOM     25  C   UNL     1       2.469   7.721  18.029  0.00  0.00    +0.000 A 
ENDBRANCH  18  20
ENDBRANCH   6  18
TORSDOF 6
ENDMDL
MODEL 2
REMARK VINA RESULT:      -8.0      2.566      6.421
REMARK  Name = 
REMARK  6 active torsions:
REMARK  status: ('A' for Active; 'I' for Inactive)
REMARK    1  A    between atoms: C_2  and  O_3
REMARK    2  A    between atoms: C_2  and  C_12
REMARK    3  A    between atoms: O_3  and  C_4
REMARK    4  A    between atoms: C_4  and  C_5
REMARK    5  A    between atoms: C_17  and  C_18
REMARK    6  A    between atoms: C_18  and  C_20
REMARK                            x       y       z     vdW  Elec       q    Type
REMARK                         _______ _______ _______ _____ _____    ______ ____
ROOT
ATOM      1  C   UNL     1       5.158   5.380  18.146  0.00  0.00    +0.000 A 
ATOM      2  C   UNL     1       4.066   6.141  18.627  0.00  0.00    +0.000 A 
ATOM      3  C   UNL     1       3.425   7.093  17.834  0.00  0.00    +0.000 A 
ATOM      4  C   UNL     1       3.869   7.316  16.542  0.00  0.00    +0.000 A 
ATOM      5  C   UNL     1       4.962   6.599  16.053  0.00  0.00    +0.000 A 
ATOM      6  C   UNL     1       5.610   5.610  16.830  0.00  0.00    +0.000 A 
ENDROOT
BRANCH   1   8
ATOM      7  O   UNL     1       6.468   4.760  20.042  0.00  0.00    +0.000 OA
ATOM      8  C   UNL     1       5.695   4.414  19.155  0.00  0.00    +0.000 C 
BRANCH   8   9
ATOM      9  O   UNL     1       5.352   3.150  18.880  0.00  0.00    +0.000 OA
BRANCH   9  10
ATOM     10  C   UNL     1       4.730   2.394  19.934  0.00  0.00    +0.000 C 
BRANCH  10  11
ATOM     11  C   UNL     1       3.249   2.703  20.000  0.00  0.00    +0.000 A 
ATOM     12  C   UNL     1       2.637   2.957  21.245  0.00  0.00    +0.000 A 
ATOM     13  C   UNL     1       1.277   3.251  21.344  0.00  0.00    +0.000 A 
ATOM     14  C   UNL     1       0.490   3.272  20.198  0.00  0.00    +0.000 A 
ATOM     15  C   UNL     1       1.064   2.989  18.960  0.00  0.00    +0.000 A 
ATOM     16  C   UNL     1       2.431   2.699  18.860  0.00  0.00    +0.000 A 
ATOM     17 CL   UNL     1       3.051   2.330  17.291  0.00  0.00    +0.000 Cl
ENDBRANCH  10  11
ENDBRANCH   9  10
ENDBRANCH   8   9
ENDBRANCH   1   8
BRANCH   6  18
ATOM     18  C   UNL     1       6.800   4.974  16.192  0.00  0.00    +0.000 C 
ATOM     19  O   UNL     1       7.857   4.899  16.809  0.00  0.00    +0.000 OA
BRANCH  18  20
ATOM     20  C   UNL     1       6.824   4.614  14.741  0.00  0.00    +0.000 A 
ATOM     21  C   UNL     1       5.964   3.670  14.167  0.00  0.00    +0.000 A 
ATOM     22  C   UNL     1       5.955   3.484  12.780  0.00  0.00    +0.000 A 
ATOM     23  C   UNL     1       6.826   4.209  11.966  0.00  0.00    +0.000 A 
ATOM     24  C   UNL     1       7.721   5.112  12.536  0.00  0.00    +0.000 A 
ATOM     25  C   UNL     1       7.723   5.311  13.914  0.00  0.00    +0.000 A 
ENDBRANCH  18  20
ENDBRANCH   6  18
TORSDOF 6
ENDMDL
MODEL 3
REMARK VINA RESULT:      -7.8      2.452      6.161
REMARK  Name = 
REMARK  6 active torsions:
REMARK  status: ('A' for Active; 'I' for Inactive)
REMARK    1  A    between atoms: C_2  and  O_3
REMARK    2  A    between atoms: C_2  and  C_12
REMARK    3  A    between atoms: O_3  and  C_4
REMARK    4  A    between atoms: C_4  and  C_5
REMARK    5  A    between atoms: C_17  and  C_18
REMARK    6  A    between atoms: C_18  and  C_20
REMARK                            x       y       z     vdW  Elec       q    Type
REMARK                         _______ _______ _______ _____ _____    ______ ____
ROOT
ATOM      1  C   UNL     1       2.473   5.541  19.536  0.00  0.00    +0.000 A 
ATOM      2  C   UNL     1       1.564   5.135  20.540  0.00  0.00    +0.000 A 
ATOM      3  C   UNL     1       1.619   3.865  21.116  0.00  0.00    +0.000 A 
ATOM      4  C   UNL     1       2.581   2.964  20.691  0.00  0.00    +0.000 A 
ATOM      5  C   UNL     1       3.472   3.331  19.683  0.00  0.00    +0.000 A 
ATOM      6  C   UNL     1       3.452   4.621  19.104  0.00  0.00    +0.000 A 
ENDROOT
BRANCH   1   8
ATOM      7  O   UNL     1       2.470   7.281  17.903  0.00  0.00    +0.000 OA
ATOM      8  C   UNL     1       2.242   6.940  19.058  0.00  0.00    +0.000 C 
BRANCH   8   9
ATOM      9  O   UNL     1       1.909   7.768  20.055  0.00  0.00    +0.000 OA
BRANCH   9  10
ATOM     10  C   UNL     1       1.301   9.021  19.694  0.00  0.00    +0.000 C 
BRANCH  10  11
ATOM     11  C   UNL     1       0.545   9.597  20.874  0.00  0.00    +0.000 A 
ATOM     12  C   UNL     1       0.589   8.946  22.124  0.00  0.00    +0.000 A 
ATOM     13  C   UNL     1      -0.091   9.449  23.233  0.00  0.00    +0.000 A 
ATOM     14  C   UNL     1      -0.853  10.606  23.111  0.00  0.00    +0.000 A 
ATOM     15  C   UNL     1      -0.941  11.247  21.876  0.00  0.00    +0.000 A 
ATOM     16  C   UNL     1      -0.255  10.745  20.763  0.00  0.00    +0.000 A 
ATOM     17 CL   UNL     1      -0.445  11.585  19.267  0.00  0.00    +0.000 Cl
ENDBRANCH  10  11
ENDBRANCH   9  10
ENDBRANCH   8   9
ENDBRANCH   1   8
BRANCH   6  18
ATOM     18  C   UNL     1       4.427   4.840  17.994  0.00  0.00    +0.000 C 
ATOM     19  O   UNL     1       4.313   4.211  16.948  0.00  0.00    +0.000 OA
BRANCH  18  20
ATOM     20  C   UNL     1       5.674   5.641  18.183  0.00  0.00    +0.000 A 
ATOM     21  C   UNL     1       6.626   5.364  19.173  0.00  0.00    +0.000 A 
ATOM     22  C   UNL     1       7.832   6.074  19.203  0.00  0.00    +0.000 A 
ATOM     23  C   UNL     1       8.078   7.084  18.273  0.00  0.00    +0.000 A 
ATOM     24  C   UNL     1       7.114   7.400  17.318  0.00  0.00    +0.000 A 
ATOM     25  C   UNL     1       5.919   6.686  17.275  0.00  0.00    +0.000 A 
ENDBRANCH  18  20
ENDBRANCH   6  18
TORSDOF 6
ENDMDL
MODEL 4
REMARK VINA RESULT:      -7.8      2.277      6.136
REMARK  Name = 
REMARK  6 active torsions:
REMARK  status: ('A' for Active; 'I' for Inactive)
REMARK    1  A    between atoms: C_2  and  O_3
REMARK    2  A    between atoms: C_2  and  C_12
REMARK    3  A    between atoms: O_3  and  C_4
REMARK    4  A    between atoms: C_4  and  C_5
REMARK    5  A    between atoms: C_17  and  C_18
REMARK    6  A    between atoms: C_18  and  C_20
REMARK                            x       y       z     vdW  Elec       q    Type
REMARK                         _______ _______ _______ _____ _____    ______ ____
ROOT
ATOM      1  C   UNL     1       2.776   5.296  19.513  0.00  0.00    +0.000 A 
ATOM      2  C   UNL     1       1.502   4.863  19.951  0.00  0.00    +0.000 A 
ATOM      3  C   UNL     1       1.286   3.570  20.429  0.00  0.00    +0.000 A 
ATOM      4  C   UNL     1       2.340   2.673  20.469  0.00  0.00    +0.000 A 
ATOM      5  C   UNL     1       3.599   3.066  20.016  0.00  0.00    +0.000 A 
ATOM      6  C   UNL     1       3.847   4.379  19.553  0.00  0.00    +0.000 A 
ENDROOT
BRANCH   1   8
ATOM      7  O   UNL     1       3.352   7.057  18.010  0.00  0.00    +0.000 OA
ATOM      8  C   UNL     1       2.789   6.717  19.045  0.00  0.00    +0.000 C 
BRANCH   8   9
ATOM      9  O   UNL     1       2.255   7.553  19.944  0.00  0.00    +0.000 OA
BRANCH   9  10
ATOM     10  C   UNL     1       1.517   8.679  19.437  0.00  0.00    +0.000 C 
BRANCH  10  11
ATOM     11  C   UNL     1       0.782   9.375  20.564  0.00  0.00    +0.000 A 
ATOM     12  C   UNL     1       0.191   8.615  21.594  0.00  0.00    +0.000 A 
ATOM     13  C   UNL     1      -0.490   9.221  22.650  0.00  0.00    +0.000 A 
ATOM     14  C   UNL     1      -0.616  10.605  22.687  0.00  0.00    +0.000 A 
ATOM     15  C   UNL     1      -0.071  11.376  21.661  0.00  0.00    +0.000 A 
ATOM     16  C   UNL     1       0.617  10.768  20.604  0.00  0.00    +0.000 A 
ATOM     17 CL   UNL     1       1.232  11.797  19.361  0.00  0.00    +0.000 Cl
ENDBRANCH  10  11
ENDBRANCH   9  10
ENDBRANCH   8   9
ENDBRANCH   1   8
BRANCH   6  18
ATOM     18  C   UNL     1       5.228   4.629  19.044  0.00  0.00    +0.000 C 
ATOM     19  O   UNL     1       6.063   5.152  19.775  0.00  0.00    +0.000 OA
BRANCH  18  20
ATOM     20  C   UNL     1       5.583   4.467  17.601  0.00  0.00    +0.000 A 
ATOM     21  C   UNL     1       4.652   4.119  16.614  0.00  0.00    +0.000 A 
ATOM     22  C   UNL     1       5.030   4.117  15.266  0.00  0.00    +0.000 A 
ATOM     23  C   UNL     1       6.342   4.425  14.901  0.00  0.00    +0.000 A 
ATOM     24  C   UNL     1       7.285   4.721  15.883  0.00  0.00    +0.000 A 
ATOM     25  C   UNL     1       6.910   4.738  17.224  0.00  0.00    +0.000 A 
ENDBRANCH  18  20
ENDBRANCH   6  18
TORSDOF 6
ENDMDL
MODEL 5
REMARK VINA RESULT:      -7.8      2.264      5.990
REMARK  Name = 
REMARK  6 active torsions:
REMARK  status: ('A' for Active; 'I' for Inactive)
REMARK    1  A    between atoms: C_2  and  O_3
REMARK    2  A    between atoms: C_2  and  C_12
REMARK    3  A    between atoms: O_3  and  C_4
REMARK    4  A    between atoms: C_4  and  C_5
REMARK    5  A    between atoms: C_17  and  C_18
REMARK    6  A    between atoms: C_18  and  C_20
REMARK                            x       y       z     vdW  Elec       q    Type
REMARK                         _______ _______ _______ _____ _____    ______ ____
ROOT
ATOM      1  C   UNL     1       2.553   5.130  19.730  0.00  0.00    +0.000 A 
ATOM      2  C   UNL     1       1.744   4.811  20.847  0.00  0.00    +0.000 A 
ATOM      3  C   UNL     1       1.891   3.612  21.545  0.00  0.00    +0.000 A 
ATOM      4  C   UNL     1       2.846   2.696  21.136  0.00  0.00    +0.000 A 
ATOM      5  C   UNL     1       3.637   2.975  20.021  0.00  0.00    +0.000 A 
ATOM      6  C   UNL     1       3.523   4.195  19.314  0.00  0.00    +0.000 A 
ENDROOT
BRANCH   1   8
ATOM      7  O   UNL     1       2.213   6.645  17.918  0.00  0.00    +0.000 OA
ATOM      8  C   UNL     1       2.233   6.464  19.131  0.00  0.00    +0.000 C 
BRANCH   8   9
ATOM      9  O   UNL     1       2.124   7.423  20.057  0.00  0.00    +0.000 OA
BRANCH   9  10
ATOM     10  C   UNL     1       1.602   8.694  19.629  0.00  0.00    +0.000 C 
BRANCH  10  11
ATOM     11  C   UNL     1       0.811   9.340  20.747  0.00  0.00    +0.000 A 
ATOM     12  C   UNL     1       0.911   8.839  22.061  0.00  0.00    +0.000 A 
ATOM     13  C   UNL     1       0.202   9.412  23.117  0.00  0.00    +0.000 A 
ATOM     14  C   UNL     1      -0.647  10.486  22.877  0.00  0.00    +0.000 A 
ATOM     15  C   UNL     1      -0.790  10.976  21.580  0.00  0.00    +0.000 A 
ATOM     16  C   UNL     1      -0.074  10.405  20.521  0.00  0.00    +0.000 A 
ATOM     17 CL   UNL     1      -0.337  11.055  18.943  0.00  0.00    +0.000 Cl
ENDBRANCH  10  11
ENDBRANCH   9  10
ENDBRANCH   8   9
ENDBRANCH   1   8
BRANCH   6  18
ATOM     18  C   UNL     1       4.394   4.319  18.108  0.00  0.00    +0.000 C 
ATOM     19  O   UNL     1       4.251   3.545  17.168  0.00  0.00    +0.000 OA
BRANCH  18  20
ATOM     20  C   UNL     1       5.590   5.216  18.083  0.00  0.00    +0.000 A 
ATOM     21  C   UNL     1       5.714   6.311  17.218  0.00  0.00    +0.000 A 
ATOM     22  C   UNL     1       6.801   7.183  17.344  0.00  0.00    +0.000 A 
ATOM     23  C   UNL     1       7.785   6.948  18.305  0.00  0.00    +0.000 A 
ATOM     24  C   UNL     1       7.695   5.831  19.135  0.00  0.00    +0.000 A 
ATOM     25  C   UNL     1       6.607   4.970  19.022  0.00  0.00    +0.000 A 
ENDBRANCH  18  20
ENDBRANCH   6  18
TORSDOF 6
ENDMDL
MODEL 6
REMARK VINA RESULT:      -7.7      1.952      4.829
REMARK  Name = 
REMARK  6 active torsions:
REMARK  status: ('A' for Active; 'I' for Inactive)
REMARK    1  A    between atoms: C_2  and  O_3
REMARK    2  A    between atoms: C_2  and  C_12
REMARK    3  A    between atoms: O_3  and  C_4
REMARK    4  A    between atoms: C_4  and  C_5
REMARK    5  A    between atoms: C_17  and  C_18
REMARK    6  A    between atoms: C_18  and  C_20
REMARK                            x       y       z     vdW  Elec       q    Type
REMARK                         _______ _______ _______ _____ _____    ______ ____
ROOT
ATOM      1  C   UNL     1       5.794   4.866  17.027  0.00  0.00    +0.000 A 
ATOM      2  C   UNL     1       7.028   4.297  17.418  0.00  0.00    +0.000 A 
ATOM      3  C   UNL     1       7.961   5.007  18.175  0.00  0.00    +0.000 A 
ATOM      4  C   UNL     1       7.685   6.311  18.549  0.00  0.00    +0.000 A 
ATOM      5  C   UNL     1       6.487   6.905  18.153  0.00  0.00    +0.000 A 
ATOM      6  C   UNL     1       5.516   6.195  17.409  0.00  0.00    +0.000 A 
ENDROOT
BRANCH   1   8
ATOM      7  O   UNL     1       5.248   3.579  15.093  0.00  0.00    +0.000 OA
ATOM      8  C   UNL     1       4.940   3.934  16.226  0.00  0.00    +0.000 C 
BRANCH   8   9
ATOM      9  O   UNL     1       3.774   3.671  16.827  0.00  0.00    +0.000 OA
BRANCH   9  10
ATOM     10  C   UNL     1       3.719   2.509  17.674  0.00  0.00    +0.000 C 
BRANCH  10  11
ATOM     11  C   UNL     1       2.876   2.792  18.901  0.00  0.00    +0.000 A 
ATOM     12  C   UNL     1       1.605   3.386  18.759  0.00  0.00    +0.000 A 
ATOM     13  C   UNL     1       0.799   3.657  19.865  0.00  0.00    +0.000 A 
ATOM     14  C   UNL     1       1.258   3.364  21.143  0.00  0.00    +0.000 A 
ATOM     15  C   UNL     1       2.527   2.810  21.311  0.00  0.00    +0.000 A 
ATOM     16  C   UNL     1       3.334   2.533  20.201  0.00  0.00    +0.000 A 
ATOM     17 CL   UNL     1       4.902   1.877  20.504  0.00  0.00    +0.000 Cl
ENDBRANCH  10  11
ENDBRANCH   9  10
ENDBRANCH   8   9
ENDBRANCH   1   8
BRANCH   6  18
ATOM     18  C   UNL     1       4.314   6.985  17.007  0.00  0.00    +0.000 C 
ATOM     19  O   UNL     1       4.261   7.493  15.892  0.00  0.00    +0.000 OA
BRANCH  18  20
ATOM     20  C   UNL     1       3.255   7.372  17.989  0.00  0.00    +0.000 A 
ATOM     21  C   UNL     1       2.994   6.653  19.163  0.00  0.00    +0.000 A 
ATOM     22  C   UNL     1       2.079   7.150  20.098  0.00  0.00    +0.000 A 
ATOM     23  C   UNL     1       1.397   8.343  19.852  0.00  0.00    +0.000 A 
ATOM     24  C   UNL     1       1.615   9.035  18.663  0.00  0.00    +0.000 A 
ATOM     25  C   UNL     1       2.534   8.552  17.736  0.00  0.00    +0.000 A 
ENDBRANCH  18  20
ENDBRANCH   6  18
TORSDOF 6
ENDMDL
MODEL 7
REMARK VINA RESULT:      -7.6      2.450      6.695
REMARK  Name = 
REMARK  6 active torsions:
REMARK  status: ('A' for Active; 'I' for Inactive)
REMARK    1  A    between atoms: C_2  and  O_3
REMARK    2  A    between atoms: C_2  and  C_12
REMARK    3  A    between atoms: O_3  and  C_4
REMARK    4  A    between atoms: C_4  and  C_5
REMARK    5  A    between atoms: C_17  and  C_18
REMARK    6  A    between atoms: C_18  and  C_20
REMARK                            x       y       z     vdW  Elec       q    Type
REMARK                         _______ _______ _______ _____ _____    ______ ____
ROOT
ATOM      1  C   UNL     1       3.408   6.484  17.734  0.00  0.00    +0.000 A 
ATOM      2  C   UNL     1       4.557   7.150  17.247  0.00  0.00    +0.000 A 
ATOM      3  C   UNL     1       5.509   6.499  16.461  0.00  0.00    +0.000 A 
ATOM      4  C   UNL     1       5.340   5.160  16.153  0.00  0.00    +0.000 A 
ATOM      5  C   UNL     1       4.230   4.473  16.644  0.00  0.00    +0.000 A 
ATOM      6  C   UNL     1       3.239   5.119  17.420  0.00  0.00    +0.000 A 
ENDROOT
BRANCH   1   8
ATOM      7  O   UNL     1       2.371   7.205  19.758  0.00  0.00    +0.000 OA
ATOM      8  C   UNL     1       2.516   7.364  18.551  0.00  0.00    +0.000 C 
BRANCH   8   9
ATOM      9  O   UNL     1       1.814   8.216  17.795  0.00  0.00    +0.000 OA
BRANCH   9  10
ATOM     10  C   UNL     1       1.863   9.609  18.156  0.00  0.00    +0.000 C 
BRANCH  10  11
ATOM     11  C   UNL     1       0.461  10.155  18.334  0.00  0.00    +0.000 A 
ATOM     12  C   UNL     1      -0.607   9.605  17.597  0.00  0.00    +0.000 A 
ATOM     13  C   UNL     1      -1.912  10.079  17.740  0.00  0.00    +0.000 A 
ATOM     14  C   UNL     1      -2.174  11.134  18.606  0.00  0.00    +0.000 A 
ATOM     15  C   UNL     1      -1.127  11.718  19.318  0.00  0.00    +0.000 A 
ATOM     16  C   UNL     1       0.182  11.239  19.180  0.00  0.00    +0.000 A 
ATOM     17 CL   UNL     1       1.420  12.042  20.076  0.00  0.00    +0.000 Cl
ENDBRANCH  10  11
ENDBRANCH   9  10
ENDBRANCH   8   9
ENDBRANCH   1   8
BRANCH   6  18
ATOM     18  C   UNL     1       2.145   4.237  17.924  0.00  0.00    +0.000 C 
ATOM     19  O   UNL     1       1.121   4.095  17.263  0.00  0.00    +0.000 OA
BRANCH  18  20
ATOM     20  C   UNL     1       2.149   3.683  19.312  0.00  0.00    +0.000 A 
ATOM     21  C   UNL     1       1.012   3.646  20.130  0.00  0.00    +0.000 A 
ATOM     22  C   UNL     1       1.060   2.992  21.367  0.00  0.00    +0.000 A 
ATOM     23  C   UNL     1       2.248   2.407  21.808  0.00  0.00    +0.000 A 
ATOM     24  C   UNL     1       3.396   2.486  21.022  0.00  0.00    +0.000 A 
ATOM     25  C   UNL     1       3.348   3.122  19.785  0.00  0.00    +0.000 A 
ENDBRANCH  18  20
ENDBRANCH   6  18
TORSDOF 6
ENDMDL
MODEL 8
REMARK VINA RESULT:      -7.6      2.152      5.761
REMARK  Name = 
REMARK  6 active torsions:
REMARK  status: ('A' for Active; 'I' for Inactive)
REMARK    1  A    between atoms: C_2  and  O_3
REMARK    2  A    between atoms: C_2  and  C_12
REMARK    3  A    between atoms: O_3  and  C_4
REMARK    4  A    between atoms: C_4  and  C_5
REMARK    5  A    between atoms: C_17  and  C_18
REMARK    6  A    between atoms: C_18  and  C_20
REMARK                            x       y       z     vdW  Elec       q    Type
REMARK                         _______ _______ _______ _____ _____    ______ ____
ROOT
ATOM      1  C   UNL     1       5.106   5.758  16.554  0.00  0.00    +0.000 A 
ATOM      2  C   UNL     1       5.551   5.933  15.223  0.00  0.00    +0.000 A 
ATOM      3  C   UNL     1       5.992   4.862  14.445  0.00  0.00    +0.000 A 
ATOM      4  C   UNL     1       6.009   3.587  14.987  0.00  0.00    +0.000 A 
ATOM      5  C   UNL     1       5.602   3.392  16.307  0.00  0.00    +0.000 A 
ATOM      6  C   UNL     1       5.126   4.459  17.104  0.00  0.00    +0.000 A 
ENDROOT
BRANCH   1   8
ATOM      7  O   UNL     1       5.478   7.851  17.637  0.00  0.00    +0.000 OA
ATOM      8  C   UNL     1       4.673   7.033  17.206  0.00  0.00    +0.000 C 
BRANCH   8   9
ATOM      9  O   UNL     1       3.347   7.089  17.382  0.00  0.00    +0.000 OA
BRANCH   9  10
ATOM     10  C   UNL     1       2.777   8.376  17.680  0.00  0.00    +0.000 C 
BRANCH  10  11
ATOM     11  C   UNL     1       2.026   8.326  18.995  0.00  0.00    +0.000 A 
ATOM     12  C   UNL     1       2.109   7.178  19.809  0.00  0.00    +0.000 A 
ATOM     13  C   UNL     1       1.435   7.098  21.028  0.00  0.00    +0.000 A 
ATOM     14  C   UNL     1       0.639   8.157  21.449  0.00  0.00    +0.000 A 
ATOM     15  C   UNL     1       0.512   9.288  20.643  0.00  0.00    +0.000 A 
ATOM     16  C   UNL     1       1.193   9.371  19.422  0.00  0.00    +0.000 A 
ATOM     17 CL   UNL     1       0.953  10.794  18.474  0.00  0.00    +0.000 Cl
ENDBRANCH  10  11
ENDBRANCH   9  10
ENDBRANCH   8   9
ENDBRANCH   1   8
BRANCH   6  18
ATOM     18  C   UNL     1       4.786   4.102  18.513  0.00  0.00    +0.000 C 
ATOM     19  O   UNL     1       5.680   3.826  19.307  0.00  0.00    +0.000 OA
BRANCH  18  20
ATOM     20  C   UNL     1       3.378   3.853  18.950  0.00  0.00    +0.000 A 
ATOM     21  C   UNL     1       2.293   3.809  18.065  0.00  0.00    +0.000 A 
ATOM     22  C   UNL     1       1.026   3.438  18.530  0.00  0.00    +0.000 A 
ATOM     23  C   UNL     1       0.828   3.147  19.880  0.00  0.00    +0.000 A 
ATOM     24  C   UNL     1       1.892   3.241  20.775  0.00  0.00    +0.000 A 
ATOM     25  C   UNL     1       3.157   3.594  20.314  0.00  0.00    +0.000 A 
ENDBRANCH  18  20
ENDBRANCH   6  18
TORSDOF 6
ENDMDL
MODEL 9
REMARK VINA RESULT:      -7.6      2.271      6.020
REMARK  Name = 
REMARK  6 active torsions:
REMARK  status: ('A' for Active; 'I' for Inactive)
REMARK    1  A    between atoms: C_2  and  O_3
REMARK    2  A    between atoms: C_2  and  C_12
REMARK    3  A    between atoms: O_3  and  C_4
REMARK    4  A    between atoms: C_4  and  C_5
REMARK    5  A    between atoms: C_17  and  C_18
REMARK    6  A    between atoms: C_18  and  C_20
REMARK                            x       y       z     vdW  Elec       q    Type
REMARK                         _______ _______ _______ _____ _____    ______ ____
ROOT
ATOM      1  C   UNL     1       2.771   4.923  18.733  0.00  0.00    +0.000 A 
ATOM      2  C   UNL     1       1.447   4.464  18.929  0.00  0.00    +0.000 A 
ATOM      3  C   UNL     1       1.158   3.118  19.159  0.00  0.00    +0.000 A 
ATOM      4  C   UNL     1       2.190   2.195  19.187  0.00  0.00    +0.000 A 
ATOM      5  C   UNL     1       3.501   2.617  18.968  0.00  0.00    +0.000 A 
ATOM      6  C   UNL     1       3.819   3.979  18.760  0.00  0.00    +0.000 A 
ENDROOT
BRANCH   1   8
ATOM      7  O   UNL     1       3.573   6.885  17.637  0.00  0.00    +0.000 OA
ATOM      8  C   UNL     1       2.858   6.399  18.508  0.00  0.00    +0.000 C 
BRANCH   8   9
ATOM      9  O   UNL     1       2.196   7.095  19.440  0.00  0.00    +0.000 OA
BRANCH   9  10
ATOM     10  C   UNL     1       1.814   8.442  19.107  0.00  0.00    +0.000 C 
BRANCH  10  11
ATOM     11  C   UNL     1       1.049   9.069  20.254  0.00  0.00    +0.000 A 
ATOM     12  C   UNL     1       1.301   8.654  21.578  0.00  0.00    +0.000 A 
ATOM     13  C   UNL     1       0.620   9.213  22.660  0.00  0.00    +0.000 A 
ATOM     14  C   UNL     1      -0.350  10.184  22.439  0.00  0.00    +0.000 A 
ATOM     15  C   UNL     1      -0.642  10.584  21.136  0.00  0.00    +0.000 A 
ATOM     16  C   UNL     1       0.045  10.028  20.050  0.00  0.00    +0.000 A 
ATOM     17 CL   UNL     1      -0.403  10.559  18.470  0.00  0.00    +0.000 Cl
ENDBRANCH  10  11
ENDBRANCH   9  10
ENDBRANCH   8   9
ENDBRANCH   1   8
BRANCH   6  18
ATOM     18  C   UNL     1       5.258   4.265  18.480  0.00  0.00    +0.000 C 
ATOM     19  O   UNL     1       6.021   4.522  19.405  0.00  0.00    +0.000 OA
BRANCH  18  20
ATOM     20  C   UNL     1       5.769   4.468  17.090  0.00  0.00    +0.000 A 
ATOM     21  C   UNL     1       7.065   4.918  16.804  0.00  0.00    +0.000 A 
ATOM     22  C   UNL     1       7.516   4.955  15.480  0.00  0.00    +0.000 A 
ATOM     23  C   UNL     1       6.669   4.582  14.436  0.00  0.00    +0.000 A 
ATOM     24  C   UNL     1       5.361   4.183  14.710  0.00  0.00    +0.000 A 
ATOM     25  C   UNL     1       4.914   4.130  16.027  0.00  0.00    +0.000 A 
ENDBRANCH  18  20
ENDBRANCH   6  18
TORSDOF 6
ENDMDL
