MODEL 1
REMARK VINA RESULT:      -8.3      0.000      0.000
REMARK  Name = 
REMARK  6 active torsions:
REMARK  status: ('A' for Active; 'I' for Inactive)
REMARK    1  A    between atoms: C_2  and  C_11
REMARK    2  A    between atoms: N_3  and  C_4
REMARK    3  A    between atoms: C_4  and  C_5
REMARK    4  A    between atoms: C_14  and  O_15
REMARK    5  A    between atoms: O_15  and  C_16
REMARK    6  A    between atoms: C_24  and  C_25
REMARK                            x       y       z     vdW  Elec       q    Type
REMARK                         _______ _______ _______ _____ _____    ______ ____
ROOT
ATOM      1  O   UNL     1       0.557  11.158  19.139  0.00  0.00    +0.000 OA
ENDROOT
BRANCH   1   2
ATOM      2  C   UNL     1       1.276  12.307  19.398  0.00  0.00    +0.000 A 
ATOM      3  C   UNL     1       1.096  12.886  20.659  0.00  0.00    +0.000 A 
ATOM      4  C   UNL     1       1.657  14.138  20.947  0.00  0.00    +0.000 A 
ATOM      5  C   UNL     1       2.377  14.820  19.966  0.00  0.00    +0.000 A 
ATOM      6  C   UNL     1       2.658  14.203  18.750  0.00  0.00    +0.000 A 
ATOM      7  C   UNL     1       2.130  12.936  18.491  0.00  0.00    +0.000 A 
ATOM      8  C   UNL     1       3.435  14.899  17.671  0.00  0.00    +0.000 C 
ATOM      9  C   UNL     1       3.996  16.221  18.166  0.00  0.00    +0.000 C 
ATOM     10  C   UNL     1       2.975  16.928  19.069  0.00  0.00    +0.000 C 
ATOM     11  O   UNL     1       2.747  16.111  20.245  0.00  0.00    +0.000 OA
BRANCH  10  12
ATOM     12  C   UNL     1       1.670  17.388  18.409  0.00  0.00    +0.000 A 
ATOM     13  C   UNL     1       1.690  17.974  17.130  0.00  0.00    +0.000 A 
ATOM     14  C   UNL     1       0.513  18.400  16.510  0.00  0.00    +0.000 A 
ATOM     15  C   UNL     1      -0.712  18.231  17.146  0.00  0.00    +0.000 A 
ATOM     16  C   UNL     1      -0.760  17.628  18.400  0.00  0.00    +0.000 A 
ATOM     17  C   UNL     1       0.419  17.202  19.022  0.00  0.00    +0.000 A 
ENDBRANCH  10  12
ENDBRANCH   1   2
BRANCH   1  21
ATOM     18  C   UNL     1       2.031   7.717  19.419  0.00  0.00    +0.000 A 
ATOM     19  C   UNL     1       1.513   8.135  20.624  0.00  0.00    +0.000 A 
ATOM     20  N   UNL     1       0.945   9.381  20.622  0.00  0.00    +0.000 NA
ATOM     21  C   UNL     1       1.023   9.933  19.431  0.00  0.00    +0.000 A 
ATOM     22  S   UNL     1       1.776   8.939  18.240  0.00  0.00    +0.000 S 
BRANCH  18  24
ATOM     23  O   UNL     1       2.869   5.638  20.094  0.00  0.00    +0.000 OA
ATOM     24  C   UNL     1       2.661   6.437  19.184  0.00  0.00    +0.000 C 
ATOM     25  N   UNL     1       3.019   6.152  17.885  0.00  0.00    +0.000 N 
ATOM     26  H   UNL     1       2.903   6.865  17.178  0.00  0.00    +0.000 HD
BRANCH  25  27
ATOM     27  C   UNL     1       3.651   4.902  17.538  0.00  0.00    +0.000 C 
BRANCH  27  28
ATOM     28  C   UNL     1       4.981   5.103  16.867  0.00  0.00    +0.000 A 
ATOM     29  C   UNL     1       5.934   5.968  17.415  0.00  0.00    +0.000 A 
ATOM     30  C   UNL     1       7.155   6.108  16.778  0.00  0.00    +0.000 A 
ATOM     31  N   UNL     1       7.487   5.458  15.641  0.00  0.00    +0.000 NA
ATOM     32  C   UNL     1       6.547   4.639  15.118  0.00  0.00    +0.000 A 
ATOM     33  C   UNL     1       5.299   4.436  15.681  0.00  0.00    +0.000 A 
ENDBRANCH  27  28
ENDBRANCH  25  27
ENDBRANCH  18  24
ENDBRANCH   1  21
TORSDOF 6
ENDMDL
MODEL 2
REMARK VINA RESULT:      -8.2      0.939      1.026
REMARK  Name = 
REMARK  6 active torsions:
REMARK  status: ('A' for Active; 'I' for Inactive)
REMARK    1  A    between atoms: C_2  and  C_11
REMARK    2  A    between atoms: N_3  and  C_4
REMARK    3  A    between atoms: C_4  and  C_5
REMARK    4  A    between atoms: C_14  and  O_15
REMARK    5  A    between atoms: O_15  and  C_16
REMARK    6  A    between atoms: C_24  and  C_25
REMARK                            x       y       z     vdW  Elec       q    Type
REMARK                         _______ _______ _______ _____ _____    ______ ____
ROOT
ATOM      1  O   UNL     1       0.495  11.349  19.157  0.00  0.00    +0.000 OA
ENDROOT
BRANCH   1   2
ATOM      2  C   UNL     1       1.198  12.507  19.423  0.00  0.00    +0.000 A 
ATOM      3  C   UNL     1       0.991  13.090  20.677  0.00  0.00    +0.000 A 
ATOM      4  C   UNL     1       1.534  14.349  20.969  0.00  0.00    +0.000 A 
ATOM      5  C   UNL     1       2.264  15.033  19.997  0.00  0.00    +0.000 A 
ATOM      6  C   UNL     1       2.573  14.413  18.790  0.00  0.00    +0.000 A 
ATOM      7  C   UNL     1       2.062  13.140  18.528  0.00  0.00    +0.000 A 
ATOM      8  C   UNL     1       3.362  15.111  17.721  0.00  0.00    +0.000 C 
ATOM      9  C   UNL     1       3.900  16.441  18.219  0.00  0.00    +0.000 C 
ATOM     10  C   UNL     1       2.857  17.143  19.100  0.00  0.00    +0.000 C 
ATOM     11  O   UNL     1       2.616  16.329  20.276  0.00  0.00    +0.000 OA
BRANCH  10  12
ATOM     12  C   UNL     1       1.559  17.586  18.415  0.00  0.00    +0.000 A 
ATOM     13  C   UNL     1       1.587  18.096  17.103  0.00  0.00    +0.000 A 
ATOM     14  C   UNL     1       0.417  18.506  16.460  0.00  0.00    +0.000 A 
ATOM     15  C   UNL     1      -0.810  18.395  17.106  0.00  0.00    +0.000 A 
ATOM     16  C   UNL     1      -0.866  17.869  18.393  0.00  0.00    +0.000 A 
ATOM     17  C   UNL     1       0.306  17.459  19.039  0.00  0.00    +0.000 A 
ENDBRANCH  10  12
ENDBRANCH   1   2
BRANCH   1  21
ATOM     18  C   UNL     1       2.072   7.956  18.853  0.00  0.00    +0.000 A 
ATOM     19  C   UNL     1       2.142   8.645  17.663  0.00  0.00    +0.000 A 
ATOM     20  N   UNL     1       1.596   9.900  17.675  0.00  0.00    +0.000 NA
ATOM     21  C   UNL     1       1.101  10.188  18.858  0.00  0.00    +0.000 A 
ATOM     22  S   UNL     1       1.302   8.939  20.030  0.00  0.00    +0.000 S 
BRANCH  18  24
ATOM     23  O   UNL     1       2.439   6.037  20.144  0.00  0.00    +0.000 OA
ATOM     24  C   UNL     1       2.594   6.626  19.076  0.00  0.00    +0.000 C 
ATOM     25  N   UNL     1       3.278   6.046  18.032  0.00  0.00    +0.000 N 
ATOM     26  H   UNL     1       3.453   6.591  17.199  0.00  0.00    +0.000 HD
BRANCH  25  27
ATOM     27  C   UNL     1       3.837   4.720  18.145  0.00  0.00    +0.000 C 
BRANCH  27  28
ATOM     28  C   UNL     1       5.212   4.629  17.543  0.00  0.00    +0.000 A 
ATOM     29  C   UNL     1       6.351   4.786  18.339  0.00  0.00    +0.000 A 
ATOM     30  C   UNL     1       7.599   4.673  17.749  0.00  0.00    +0.000 A 
ATOM     31  N   UNL     1       7.789   4.422  16.435  0.00  0.00    +0.000 NA
ATOM     32  C   UNL     1       6.675   4.289  15.680  0.00  0.00    +0.000 A 
ATOM     33  C   UNL     1       5.387   4.388  16.178  0.00  0.00    +0.000 A 
ENDBRANCH  27  28
ENDBRANCH  25  27
ENDBRANCH  18  24
ENDBRANCH   1  21
TORSDOF 6
ENDMDL
MODEL 3
REMARK VINA RESULT:      -8.1      0.684      1.057
REMARK  Name = 
REMARK  6 active torsions:
REMARK  status: ('A' for Active; 'I' for Inactive)
REMARK    1  A    between atoms: C_2  and  C_11
REMARK    2  A    between atoms: N_3  and  C_4
REMARK    3  A    between atoms: C_4  and  C_5
REMARK    4  A    between atoms: C_14  and  O_15
REMARK    5  A    between atoms: O_15  and  C_16
REMARK    6  A    between atoms: C_24  and  C_25
REMARK                            x       y       z     vdW  Elec       q    Type
REMARK                         _______ _______ _______ _____ _____    ______ ____
ROOT
ATOM      1  O   UNL     1       0.712  11.060  18.918  0.00  0.00    +0.000 OA
ENDROOT
BRANCH   1   2
ATOM      2  C   UNL     1       1.402  12.215  19.226  0.00  0.00    +0.000 A 
ATOM      3  C   UNL     1       1.177  12.758  20.496  0.00  0.00    +0.000 A 
ATOM      4  C   UNL     1       1.708  14.011  20.831  0.00  0.00    +0.000 A 
ATOM      5  C   UNL     1       2.441  14.731  19.888  0.00  0.00    +0.000 A 
ATOM      6  C   UNL     1       2.768  14.151  18.666  0.00  0.00    +0.000 A 
ATOM      7  C   UNL     1       2.270  12.882  18.360  0.00  0.00    +0.000 A 
ATOM      8  C   UNL     1       3.561  14.887  17.627  0.00  0.00    +0.000 C 
ATOM      9  C   UNL     1       4.084  16.206  18.171  0.00  0.00    +0.000 C 
ATOM     10  C   UNL     1       3.025  16.871  19.063  0.00  0.00    +0.000 C 
ATOM     11  O   UNL     1       2.779  16.020  20.211  0.00  0.00    +0.000 OA
BRANCH  10  12
ATOM     12  C   UNL     1       1.731  17.325  18.378  0.00  0.00    +0.000 A 
ATOM     13  C   UNL     1       1.775  17.941  17.113  0.00  0.00    +0.000 A 
ATOM     14  C   UNL     1       0.609  18.362  16.471  0.00  0.00    +0.000 A 
ATOM     15  C   UNL     1      -0.630  18.158  17.070  0.00  0.00    +0.000 A 
ATOM     16  C   UNL     1      -0.701  17.527  18.308  0.00  0.00    +0.000 A 
ATOM     17  C   UNL     1       0.467  17.105  18.953  0.00  0.00    +0.000 A 
ENDBRANCH  10  12
ENDBRANCH   1   2
BRANCH   1  21
ATOM     18  C   UNL     1       1.857   7.602  19.829  0.00  0.00    +0.000 A 
ATOM     19  C   UNL     1       1.271   8.232  20.905  0.00  0.00    +0.000 A 
ATOM     20  N   UNL     1       0.814   9.501  20.668  0.00  0.00    +0.000 NA
ATOM     21  C   UNL     1       1.044   9.862  19.426  0.00  0.00    +0.000 A 
ATOM     22  S   UNL     1       1.814   8.651  18.470  0.00  0.00    +0.000 S 
BRANCH  18  24
ATOM     23  O   UNL     1       2.102   5.451  20.720  0.00  0.00    +0.000 OA
ATOM     24  C   UNL     1       2.394   6.261  19.842  0.00  0.00    +0.000 C 
ATOM     25  N   UNL     1       3.254   5.928  18.819  0.00  0.00    +0.000 N 
ATOM     26  H   UNL     1       3.531   6.642  18.161  0.00  0.00    +0.000 HD
BRANCH  25  27
ATOM     27  C   UNL     1       3.845   4.613  18.732  0.00  0.00    +0.000 C 
BRANCH  27  28
ATOM     28  C   UNL     1       5.158   4.627  18.002  0.00  0.00    +0.000 A 
ATOM     29  C   UNL     1       5.238   4.215  16.667  0.00  0.00    +0.000 A 
ATOM     30  C   UNL     1       6.464   4.265  16.024  0.00  0.00    +0.000 A 
ATOM     31  N   UNL     1       7.604   4.685  16.614  0.00  0.00    +0.000 NA
ATOM     32  C   UNL     1       7.509   5.064  17.909  0.00  0.00    +0.000 A 
ATOM     33  C   UNL     1       6.331   5.048  18.635  0.00  0.00    +0.000 A 
ENDBRANCH  27  28
ENDBRANCH  25  27
ENDBRANCH  18  24
ENDBRANCH   1  21
TORSDOF 6
ENDMDL
MODEL 4
REMARK VINA RESULT:      -7.9      5.781      7.451
REMARK  Name = 
REMARK  6 active torsions:
REMARK  status: ('A' for Active; 'I' for Inactive)
REMARK    1  A    between atoms: C_2  and  C_11
REMARK    2  A    between atoms: N_3  and  C_4
REMARK    3  A    between atoms: C_4  and  C_5
REMARK    4  A    between atoms: C_14  and  O_15
REMARK    5  A    between atoms: O_15  and  C_16
REMARK    6  A    between atoms: C_24  and  C_25
REMARK                            x       y       z     vdW  Elec       q    Type
REMARK                         _______ _______ _______ _____ _____    ______ ____
ROOT
ATOM      1  O   UNL     1       8.069   9.220  17.479  0.00  0.00    +0.000 OA
ENDROOT
BRANCH   1   2
ATOM      2  C   UNL     1       8.930   9.994  18.230  0.00  0.00    +0.000 A 
ATOM      3  C   UNL     1       8.723   9.998  19.614  0.00  0.00    +0.000 A 
ATOM      4  C   UNL     1       9.442  10.878  20.433  0.00  0.00    +0.000 A 
ATOM      5  C   UNL     1      10.350  11.772  19.865  0.00  0.00    +0.000 A 
ATOM      6  C   UNL     1      10.647  11.697  18.508  0.00  0.00    +0.000 A 
ATOM      7  C   UNL     1       9.955  10.785  17.708  0.00  0.00    +0.000 A 
ATOM      8  C   UNL     1      11.623  12.634  17.858  0.00  0.00    +0.000 C 
ATOM      9  C   UNL     1      12.333  13.488  18.895  0.00  0.00    +0.000 C 
ATOM     10  C   UNL     1      11.353  13.912  19.998  0.00  0.00    +0.000 C 
ATOM     11  O   UNL     1      10.888  12.726  20.690  0.00  0.00    +0.000 OA
BRANCH  10  12
ATOM     12  C   UNL     1      10.205  14.841  19.584  0.00  0.00    +0.000 A 
ATOM     13  C   UNL     1      10.406  15.819  18.592  0.00  0.00    +0.000 A 
ATOM     14  C   UNL     1       9.375  16.675  18.200  0.00  0.00    +0.000 A 
ATOM     15  C   UNL     1       8.114  16.558  18.776  0.00  0.00    +0.000 A 
ATOM     16  C   UNL     1       7.884  15.581  19.739  0.00  0.00    +0.000 A 
ATOM     17  C   UNL     1       8.917  14.723  20.134  0.00  0.00    +0.000 A 
ENDBRANCH  10  12
ENDBRANCH   1   2
BRANCH   1  21
ATOM     18  C   UNL     1       6.695   5.779  18.084  0.00  0.00    +0.000 A 
ATOM     19  C   UNL     1       7.792   6.024  18.881  0.00  0.00    +0.000 A 
ATOM     20  N   UNL     1       8.361   7.261  18.736  0.00  0.00    +0.000 NA
ATOM     21  C   UNL     1       7.723   7.972  17.834  0.00  0.00    +0.000 A 
ATOM     22  S   UNL     1       6.369   7.169  17.130  0.00  0.00    +0.000 S 
BRANCH  18  24
ATOM     23  O   UNL     1       5.569   4.016  17.033  0.00  0.00    +0.000 OA
ATOM     24  C   UNL     1       5.928   4.554  18.079  0.00  0.00    +0.000 C 
ATOM     25  N   UNL     1       5.615   4.014  19.306  0.00  0.00    +0.000 N 
ATOM     26  H   UNL     1       5.859   4.526  20.142  0.00  0.00    +0.000 HD
BRANCH  25  27
ATOM     27  C   UNL     1       4.857   2.791  19.416  0.00  0.00    +0.000 C 
BRANCH  27  28
ATOM     28  C   UNL     1       3.385   3.047  19.582  0.00  0.00    +0.000 A 
ATOM     29  C   UNL     1       2.829   3.220  20.854  0.00  0.00    +0.000 A 
ATOM     30  C   UNL     1       1.472   3.477  20.961  0.00  0.00    +0.000 A 
ATOM     31  N   UNL     1       0.638   3.565  19.901  0.00  0.00    +0.000 NA
ATOM     32  C   UNL     1       1.192   3.379  18.682  0.00  0.00    +0.000 A 
ATOM     33  C   UNL     1       2.536   3.116  18.475  0.00  0.00    +0.000 A 
ENDBRANCH  27  28
ENDBRANCH  25  27
ENDBRANCH  18  24
ENDBRANCH   1  21
TORSDOF 6
ENDMDL
MODEL 5
REMARK VINA RESULT:      -7.8      5.249      7.304
REMARK  Name = 
REMARK  6 active torsions:
REMARK  status: ('A' for Active; 'I' for Inactive)
REMARK    1  A    between atoms: C_2  and  C_11
REMARK    2  A    between atoms: N_3  and  C_4
REMARK    3  A    between atoms: C_4  and  C_5
REMARK    4  A    between atoms: C_14  and  O_15
REMARK    5  A    between atoms: O_15  and  C_16
REMARK    6  A    between atoms: C_24  and  C_25
REMARK                            x       y       z     vdW  Elec       q    Type
REMARK                         _______ _______ _______ _____ _____    ______ ____
ROOT
ATOM      1  O   UNL     1      -0.903  12.972  20.956  0.00  0.00    +0.000 OA
ENDROOT
BRANCH   1   2
ATOM      2  C   UNL     1      -2.182  13.087  21.463  0.00  0.00    +0.000 A 
ATOM      3  C   UNL     1      -2.448  12.400  22.652  0.00  0.00    +0.000 A 
ATOM      4  C   UNL     1      -3.756  12.328  23.148  0.00  0.00    +0.000 A 
ATOM      5  C   UNL     1      -4.802  12.923  22.442  0.00  0.00    +0.000 A 
ATOM      6  C   UNL     1      -4.532  13.704  21.322  0.00  0.00    +0.000 A 
ATOM      7  C   UNL     1      -3.217  13.805  20.862  0.00  0.00    +0.000 A 
ATOM      8  C   UNL     1      -5.626  14.368  20.538  0.00  0.00    +0.000 C 
ATOM      9  C   UNL     1      -6.967  14.218  21.236  0.00  0.00    +0.000 C 
ATOM     10  C   UNL     1      -7.093  12.819  21.855  0.00  0.00    +0.000 C 
ATOM     11  O   UNL     1      -6.076  12.667  22.878  0.00  0.00    +0.000 OA
BRANCH  10  12
ATOM     12  C   UNL     1      -7.131  11.634  20.883  0.00  0.00    +0.000 A 
ATOM     13  C   UNL     1      -6.717  11.797  19.548  0.00  0.00    +0.000 A 
ATOM     14  C   UNL     1      -6.744  10.731  18.646  0.00  0.00    +0.000 A 
ATOM     15  C   UNL     1      -7.165   9.473  19.064  0.00  0.00    +0.000 A 
ATOM     16  C   UNL     1      -7.554   9.281  20.386  0.00  0.00    +0.000 A 
ATOM     17  C   UNL     1      -7.528  10.348  21.291  0.00  0.00    +0.000 A 
ENDBRANCH  10  12
ENDBRANCH   1   2
BRANCH   1  21
ATOM     18  C   UNL     1       0.684  10.103  19.128  0.00  0.00    +0.000 A 
ATOM     19  C   UNL     1      -0.633  10.260  18.757  0.00  0.00    +0.000 A 
ATOM     20  N   UNL     1      -1.298  11.290  19.368  0.00  0.00    +0.000 NA
ATOM     21  C   UNL     1      -0.514  11.925  20.209  0.00  0.00    +0.000 A 
ATOM     22  S   UNL     1       1.095  11.309  20.279  0.00  0.00    +0.000 S 
BRANCH  18  24
ATOM     23  O   UNL     1       2.063   9.179  17.477  0.00  0.00    +0.000 OA
ATOM     24  C   UNL     1       1.581   9.097  18.604  0.00  0.00    +0.000 C 
ATOM     25  N   UNL     1       1.871   8.035  19.431  0.00  0.00    +0.000 N 
ATOM     26  H   UNL     1       1.395   7.962  20.319  0.00  0.00    +0.000 HD
BRANCH  25  27
ATOM     27  C   UNL     1       2.758   6.976  19.011  0.00  0.00    +0.000 C 
BRANCH  27  28
ATOM     28  C   UNL     1       2.145   5.616  19.192  0.00  0.00    +0.000 A 
ATOM     29  C   UNL     1       1.972   4.759  18.100  0.00  0.00    +0.000 A 
ATOM     30  C   UNL     1       1.424   3.505  18.314  0.00  0.00    +0.000 A 
ATOM     31  N   UNL     1       1.036   3.052  19.526  0.00  0.00    +0.000 NA
ATOM     32  C   UNL     1       1.197   3.901  20.566  0.00  0.00    +0.000 A 
ATOM     33  C   UNL     1       1.732   5.173  20.451  0.00  0.00    +0.000 A 
ENDBRANCH  27  28
ENDBRANCH  25  27
ENDBRANCH  18  24
ENDBRANCH   1  21
TORSDOF 6
ENDMDL
MODEL 6
REMARK VINA RESULT:      -7.8      0.707      1.222
REMARK  Name = 
REMARK  6 active torsions:
REMARK  status: ('A' for Active; 'I' for Inactive)
REMARK    1  A    between atoms: C_2  and  C_11
REMARK    2  A    between atoms: N_3  and  C_4
REMARK    3  A    between atoms: C_4  and  C_5
REMARK    4  A    between atoms: C_14  and  O_15
REMARK    5  A    between atoms: O_15  and  C_16
REMARK    6  A    between atoms: C_24  and  C_25
REMARK                            x       y       z     vdW  Elec       q    Type
REMARK                         _______ _______ _______ _____ _____    ______ ____
ROOT
ATOM      1  O   UNL     1       0.611  11.114  18.988  0.00  0.00    +0.000 OA
ENDROOT
BRANCH   1   2
ATOM      2  C   UNL     1       1.299  12.265  19.313  0.00  0.00    +0.000 A 
ATOM      3  C   UNL     1       1.008  12.838  20.556  0.00  0.00    +0.000 A 
ATOM      4  C   UNL     1       1.536  14.091  20.896  0.00  0.00    +0.000 A 
ATOM      5  C   UNL     1       2.335  14.781  19.983  0.00  0.00    +0.000 A 
ATOM      6  C   UNL     1       2.723  14.170  18.794  0.00  0.00    +0.000 A 
ATOM      7  C   UNL     1       2.225  12.902  18.486  0.00  0.00    +0.000 A 
ATOM      8  C   UNL     1       3.587  14.874  17.789  0.00  0.00    +0.000 C 
ATOM      9  C   UNL     1       4.096  16.197  18.336  0.00  0.00    +0.000 C 
ATOM     10  C   UNL     1       2.997  16.895  19.150  0.00  0.00    +0.000 C 
ATOM     11  O   UNL     1       2.672  16.072  20.299  0.00  0.00    +0.000 OA
BRANCH  10  12
ATOM     12  C   UNL     1       1.752  17.352  18.381  0.00  0.00    +0.000 A 
ATOM     13  C   UNL     1       0.483  17.296  18.987  0.00  0.00    +0.000 A 
ATOM     14  C   UNL     1      -0.664  17.706  18.306  0.00  0.00    +0.000 A 
ATOM     15  C   UNL     1      -0.566  18.202  17.010  0.00  0.00    +0.000 A 
ATOM     16  C   UNL     1       0.681  18.293  16.399  0.00  0.00    +0.000 A 
ATOM     17  C   UNL     1       1.831  17.881  17.081  0.00  0.00    +0.000 A 
ENDBRANCH  10  12
ENDBRANCH   1   2
BRANCH   1  21
ATOM     18  C   UNL     1       2.021   7.662  19.422  0.00  0.00    +0.000 A 
ATOM     19  C   UNL     1       1.458   8.120  20.593  0.00  0.00    +0.000 A 
ATOM     20  N   UNL     1       0.909   9.373  20.533  0.00  0.00    +0.000 NA
ATOM     21  C   UNL     1       1.046   9.891  19.333  0.00  0.00    +0.000 A 
ATOM     22  S   UNL     1       1.835   8.855  18.202  0.00  0.00    +0.000 S 
BRANCH  18  24
ATOM     23  O   UNL     1       1.984   5.329  19.223  0.00  0.00    +0.000 OA
ATOM     24  C   UNL     1       2.641   6.368  19.248  0.00  0.00    +0.000 C 
ATOM     25  N   UNL     1       4.011   6.351  19.112  0.00  0.00    +0.000 N 
ATOM     26  H   UNL     1       4.524   7.216  19.216  0.00  0.00    +0.000 HD
BRANCH  25  27
ATOM     27  C   UNL     1       4.733   5.114  18.928  0.00  0.00    +0.000 C 
BRANCH  27  28
ATOM     28  C   UNL     1       5.486   5.083  17.628  0.00  0.00    +0.000 A 
ATOM     29  C   UNL     1       4.887   5.525  16.444  0.00  0.00    +0.000 A 
ATOM     30  C   UNL     1       5.624   5.500  15.272  0.00  0.00    +0.000 A 
ATOM     31  N   UNL     1       6.901   5.065  15.197  0.00  0.00    +0.000 NA
ATOM     32  C   UNL     1       7.458   4.628  16.349  0.00  0.00    +0.000 A 
ATOM     33  C   UNL     1       6.800   4.612  17.568  0.00  0.00    +0.000 A 
ENDBRANCH  27  28
ENDBRANCH  25  27
ENDBRANCH  18  24
ENDBRANCH   1  21
TORSDOF 6
ENDMDL
MODEL 7
REMARK VINA RESULT:      -7.8      4.770      6.668
REMARK  Name = 
REMARK  6 active torsions:
REMARK  status: ('A' for Active; 'I' for Inactive)
REMARK    1  A    between atoms: C_2  and  C_11
REMARK    2  A    between atoms: N_3  and  C_4
REMARK    3  A    between atoms: C_4  and  C_5
REMARK    4  A    between atoms: C_14  and  O_15
REMARK    5  A    between atoms: O_15  and  C_16
REMARK    6  A    between atoms: C_24  and  C_25
REMARK                            x       y       z     vdW  Elec       q    Type
REMARK                         _______ _______ _______ _____ _____    ______ ____
ROOT
ATOM      1  O   UNL     1      -0.188  11.998  22.378  0.00  0.00    +0.000 OA
ENDROOT
BRANCH   1   2
ATOM      2  C   UNL     1      -1.467  12.501  22.506  0.00  0.00    +0.000 A 
ATOM      3  C   UNL     1      -2.274  11.914  23.486  0.00  0.00    +0.000 A 
ATOM      4  C   UNL     1      -3.632  12.248  23.575  0.00  0.00    +0.000 A 
ATOM      5  C   UNL     1      -4.187  13.151  22.668  0.00  0.00    +0.000 A 
ATOM      6  C   UNL     1      -3.370  13.826  21.766  0.00  0.00    +0.000 A 
ATOM      7  C   UNL     1      -2.009  13.516  21.717  0.00  0.00    +0.000 A 
ATOM      8  C   UNL     1      -3.925  14.810  20.779  0.00  0.00    +0.000 C 
ATOM      9  C   UNL     1      -5.397  15.078  21.043  0.00  0.00    +0.000 C 
ATOM     10  C   UNL     1      -6.112  13.779  21.442  0.00  0.00    +0.000 C 
ATOM     11  O   UNL     1      -5.550  13.302  22.690  0.00  0.00    +0.000 OA
BRANCH  10  12
ATOM     12  C   UNL     1      -6.197  12.681  20.375  0.00  0.00    +0.000 A 
ATOM     13  C   UNL     1      -6.835  11.460  20.663  0.00  0.00    +0.000 A 
ATOM     14  C   UNL     1      -6.923  10.446  19.707  0.00  0.00    +0.000 A 
ATOM     15  C   UNL     1      -6.395  10.638  18.435  0.00  0.00    +0.000 A 
ATOM     16  C   UNL     1      -5.784  11.848  18.118  0.00  0.00    +0.000 A 
ATOM     17  C   UNL     1      -5.694  12.864  19.076  0.00  0.00    +0.000 A 
ENDBRANCH  10  12
ENDBRANCH   1   2
BRANCH   1  21
ATOM     18  C   UNL     1       1.096   9.944  19.510  0.00  0.00    +0.000 A 
ATOM     19  C   UNL     1       0.826  11.235  19.115  0.00  0.00    +0.000 A 
ATOM     20  N   UNL     1       0.357  12.066  20.097  0.00  0.00    +0.000 NA
ATOM     21  C   UNL     1       0.256  11.433  21.243  0.00  0.00    +0.000 A 
ATOM     22  S   UNL     1       0.756   9.783  21.185  0.00  0.00    +0.000 S 
BRANCH  18  24
ATOM     23  O   UNL     1       1.584   8.996  17.426  0.00  0.00    +0.000 OA
ATOM     24  C   UNL     1       1.612   8.902  18.651  0.00  0.00    +0.000 C 
ATOM     25  N   UNL     1       2.139   7.791  19.272  0.00  0.00    +0.000 N 
ATOM     26  H   UNL     1       2.073   7.715  20.277  0.00  0.00    +0.000 HD
BRANCH  25  27
ATOM     27  C   UNL     1       2.685   6.694  18.510  0.00  0.00    +0.000 C 
BRANCH  27  28
ATOM     28  C   UNL     1       2.081   5.374  18.901  0.00  0.00    +0.000 A 
ATOM     29  C   UNL     1       1.820   4.394  17.938  0.00  0.00    +0.000 A 
ATOM     30  C   UNL     1       1.284   3.183  18.343  0.00  0.00    +0.000 A 
ATOM     31  N   UNL     1       0.987   2.886  19.628  0.00  0.00    +0.000 NA
ATOM     32  C   UNL     1       1.232   3.852  20.542  0.00  0.00    +0.000 A 
ATOM     33  C   UNL     1       1.763   5.092  20.232  0.00  0.00    +0.000 A 
ENDBRANCH  27  28
ENDBRANCH  25  27
ENDBRANCH  18  24
ENDBRANCH   1  21
TORSDOF 6
ENDMDL
MODEL 8
REMARK VINA RESULT:      -7.7      5.264      7.223
REMARK  Name = 
REMARK  6 active torsions:
REMARK  status: ('A' for Active; 'I' for Inactive)
REMARK    1  A    between atoms: C_2  and  C_11
REMARK    2  A    between atoms: N_3  and  C_4
REMARK    3  A    between atoms: C_4  and  C_5
REMARK    4  A    between atoms: C_14  and  O_15
REMARK    5  A    between atoms: O_15  and  C_16
REMARK    6  A    between atoms: C_24  and  C_25
REMARK                            x       y       z     vdW  Elec       q    Type
REMARK                         _______ _______ _______ _____ _____    ______ ____
ROOT
ATOM      1  O   UNL     1      -1.048  11.442  22.836  0.00  0.00    +0.000 OA
ENDROOT
BRANCH   1   2
ATOM      2  C   UNL     1      -2.264  12.072  22.662  0.00  0.00    +0.000 A 
ATOM      3  C   UNL     1      -3.075  12.193  23.795  0.00  0.00    +0.000 A 
ATOM      4  C   UNL     1      -4.387  12.669  23.677  0.00  0.00    +0.000 A 
ATOM      5  C   UNL     1      -4.896  13.001  22.421  0.00  0.00    +0.000 A 
ATOM      6  C   UNL     1      -4.064  12.995  21.306  0.00  0.00    +0.000 A 
ATOM      7  C   UNL     1      -2.744  12.560  21.445  0.00  0.00    +0.000 A 
ATOM      8  C   UNL     1      -4.569  13.352  19.939  0.00  0.00    +0.000 C 
ATOM      9  C   UNL     1      -5.992  13.878  20.003  0.00  0.00    +0.000 C 
ATOM     10  C   UNL     1      -6.810  13.082  21.029  0.00  0.00    +0.000 C 
ATOM     11  O   UNL     1      -6.235  13.288  22.345  0.00  0.00    +0.000 OA
BRANCH  10  12
ATOM     12  C   UNL     1      -7.055  11.600  20.719  0.00  0.00    +0.000 A 
ATOM     13  C   UNL     1      -6.617  11.048  19.501  0.00  0.00    +0.000 A 
ATOM     14  C   UNL     1      -6.829   9.702  19.198  0.00  0.00    +0.000 A 
ATOM     15  C   UNL     1      -7.466   8.872  20.115  0.00  0.00    +0.000 A 
ATOM     16  C   UNL     1      -7.884   9.389  21.337  0.00  0.00    +0.000 A 
ATOM     17  C   UNL     1      -7.673  10.738  21.642  0.00  0.00    +0.000 A 
ENDBRANCH  10  12
ENDBRANCH   1   2
BRANCH   1  21
ATOM     18  C   UNL     1       0.932   9.951  20.018  0.00  0.00    +0.000 A 
ATOM     19  C   UNL     1       1.200  11.295  20.157  0.00  0.00    +0.000 A 
ATOM     20  N   UNL     1       0.528  11.928  21.167  0.00  0.00    +0.000 NA
ATOM     21  C   UNL     1      -0.261  11.093  21.806  0.00  0.00    +0.000 A 
ATOM     22  S   UNL     1      -0.200   9.474  21.216  0.00  0.00    +0.000 S 
BRANCH  18  24
ATOM     23  O   UNL     1       1.697   9.431  17.867  0.00  0.00    +0.000 OA
ATOM     24  C   UNL     1       1.535   9.080  19.034  0.00  0.00    +0.000 C 
ATOM     25  N   UNL     1       1.922   7.831  19.466  0.00  0.00    +0.000 N 
ATOM     26  H   UNL     1       1.702   7.551  20.411  0.00  0.00    +0.000 HD
BRANCH  25  27
ATOM     27  C   UNL     1       2.539   6.884  18.568  0.00  0.00    +0.000 C 
BRANCH  27  28
ATOM     28  C   UNL     1       2.748   5.543  19.213  0.00  0.00    +0.000 A 
ATOM     29  C   UNL     1       3.792   4.707  18.800  0.00  0.00    +0.000 A 
ATOM     30  C   UNL     1       3.964   3.489  19.436  0.00  0.00    +0.000 A 
ATOM     31  N   UNL     1       3.174   3.047  20.439  0.00  0.00    +0.000 NA
ATOM     32  C   UNL     1       2.161   3.862  20.813  0.00  0.00    +0.000 A 
ATOM     33  C   UNL     1       1.909   5.095  20.236  0.00  0.00    +0.000 A 
ENDBRANCH  27  28
ENDBRANCH  25  27
ENDBRANCH  18  24
ENDBRANCH   1  21
TORSDOF 6
ENDMDL
MODEL 9
REMARK VINA RESULT:      -7.7      4.576     11.018
REMARK  Name = 
REMARK  6 active torsions:
REMARK  status: ('A' for Active; 'I' for Inactive)
REMARK    1  A    between atoms: C_2  and  C_11
REMARK    2  A    between atoms: N_3  and  C_4
REMARK    3  A    between atoms: C_4  and  C_5
REMARK    4  A    between atoms: C_14  and  O_15
REMARK    5  A    between atoms: O_15  and  C_16
REMARK    6  A    between atoms: C_24  and  C_25
REMARK                            x       y       z     vdW  Elec       q    Type
REMARK                         _______ _______ _______ _____ _____    ______ ____
ROOT
ATOM      1  O   UNL     1       1.375   9.537  18.169  0.00  0.00    +0.000 OA
ENDROOT
BRANCH   1   2
ATOM      2  C   UNL     1       1.624   8.259  18.627  0.00  0.00    +0.000 A 
ATOM      3  C   UNL     1       1.971   8.135  19.977  0.00  0.00    +0.000 A 
ATOM      4  C   UNL     1       2.399   6.901  20.485  0.00  0.00    +0.000 A 
ATOM      5  C   UNL     1       2.502   5.798  19.638  0.00  0.00    +0.000 A 
ATOM      6  C   UNL     1       2.050   5.881  18.324  0.00  0.00    +0.000 A 
ATOM      7  C   UNL     1       1.584   7.106  17.841  0.00  0.00    +0.000 A 
ATOM      8  C   UNL     1       2.136   4.717  17.382  0.00  0.00    +0.000 C 
ATOM      9  C   UNL     1       2.583   3.459  18.107  0.00  0.00    +0.000 C 
ATOM     10  C   UNL     1       3.666   3.797  19.142  0.00  0.00    +0.000 C 
ATOM     11  O   UNL     1       3.093   4.671  20.148  0.00  0.00    +0.000 OA
BRANCH  10  12
ATOM     12  C   UNL     1       5.002   4.317  18.600  0.00  0.00    +0.000 A 
ATOM     13  C   UNL     1       5.841   5.101  19.415  0.00  0.00    +0.000 A 
ATOM     14  C   UNL     1       7.062   5.585  18.942  0.00  0.00    +0.000 A 
ATOM     15  C   UNL     1       7.482   5.280  17.651  0.00  0.00    +0.000 A 
ATOM     16  C   UNL     1       6.681   4.485  16.836  0.00  0.00    +0.000 A 
ATOM     17  C   UNL     1       5.457   3.999  17.309  0.00  0.00    +0.000 A 
ENDBRANCH  10  12
ENDBRANCH   1   2
BRANCH   1  21
ATOM     18  C   UNL     1      -1.714  11.444  19.127  0.00  0.00    +0.000 A 
ATOM     19  C   UNL     1      -0.670  11.727  19.980  0.00  0.00    +0.000 A 
ATOM     20  N   UNL     1       0.507  11.082  19.707  0.00  0.00    +0.000 NA
ATOM     21  C   UNL     1       0.383  10.299  18.658  0.00  0.00    +0.000 A 
ATOM     22  S   UNL     1      -1.181  10.332  17.933  0.00  0.00    +0.000 S 
BRANCH  18  24
ATOM     23  O   UNL     1      -3.300  12.932  19.993  0.00  0.00    +0.000 OA
ATOM     24  C   UNL     1      -3.038  12.018  19.214  0.00  0.00    +0.000 C 
ATOM     25  N   UNL     1      -3.998  11.490  18.380  0.00  0.00    +0.000 N 
ATOM     26  H   UNL     1      -3.764  10.688  17.812  0.00  0.00    +0.000 HD
BRANCH  25  27
ATOM     27  C   UNL     1      -5.351  11.991  18.382  0.00  0.00    +0.000 C 
BRANCH  27  28
ATOM     28  C   UNL     1      -6.233  11.246  19.345  0.00  0.00    +0.000 A 
ATOM     29  C   UNL     1      -6.791  11.895  20.451  0.00  0.00    +0.000 A 
ATOM     30  C   UNL     1      -7.616  11.178  21.301  0.00  0.00    +0.000 A 
ATOM     31  N   UNL     1      -7.915   9.871  21.132  0.00  0.00    +0.000 NA
ATOM     32  C   UNL     1      -7.353   9.258  20.065  0.00  0.00    +0.000 A 
ATOM     33  C   UNL     1      -6.515   9.890  19.163  0.00  0.00    +0.000 A 
ENDBRANCH  27  28
ENDBRANCH  25  27
ENDBRANCH  18  24
ENDBRANCH   1  21
TORSDOF 6
ENDMDL
