MODEL 1
REMARK VINA RESULT:      -6.5      0.000      0.000
REMARK  Name = 
REMARK  10 active torsions:
REMARK  status: ('A' for Active; 'I' for Inactive)
REMARK    1  A    between atoms: C_1  and  C_2
REMARK    2  A    between atoms: C_9  and  C_10
REMARK    3  A    between atoms: C_19  and  C_20
REMARK    4  A    between atoms: C_20  and  O_21
REMARK    5  A    between atoms: C_20  and  C_26
REMARK    6  A    between atoms: O_21  and  C_22
REMARK    7  A    between atoms: C_22  and  C_23
REMARK    8  A    between atoms: C_22  and  C_24
REMARK    9  A    between atoms: C_22  and  C_25
REMARK   10  A    between atoms: C_26  and  O_28
REMARK                            x       y       z     vdW  Elec       q    Type
REMARK                         _______ _______ _______ _____ _____    ______ ____
ROOT
ATOM      1  C   UNL     1      -1.916   9.891  16.729  0.00  0.00    +0.000 C 
ATOM      2  C   UNL     1      -2.467  10.809  17.781  0.00  0.00    +0.000 A 
ATOM      3  N   UNL     1      -3.769  11.004  17.564  0.00  0.00    +0.000 NA
ATOM      4  C   UNL     1      -4.460  11.683  18.489  0.00  0.00    +0.000 A 
ATOM      5  S   UNL     1      -6.139  11.752  18.286  0.00  0.00    +0.000 S 
ATOM      6  C   UNL     1      -6.330  12.622  19.716  0.00  0.00    +0.000 A 
ATOM      7  C   UNL     1      -5.123  12.947  20.321  0.00  0.00    +0.000 A 
ATOM      8  C   UNL     1      -3.965  12.324  19.622  0.00  0.00    +0.000 A 
ATOM      9  C   UNL     1      -2.531  12.196  19.816  0.00  0.00    +0.000 A 
ATOM     10  C   UNL     1      -1.778  11.344  18.882  0.00  0.00    +0.000 A 
ATOM     11  C   UNL     1      -5.178  13.774  21.579  0.00  0.00    +0.000 C 
ATOM     12  C   UNL     1      -6.514  14.469  21.829  0.00  0.00    +0.000 C 
ATOM     13  C   UNL     1      -7.663  13.482  21.637  0.00  0.00    +0.000 C 
ATOM     14  C   UNL     1      -7.701  12.991  20.189  0.00  0.00    +0.000 C 
ENDROOT
BRANCH   9  15
ATOM     15  C   UNL     1      -1.894  12.906  20.981  0.00  0.00    +0.000 A 
ATOM     16  C   UNL     1      -1.902  12.346  22.266  0.00  0.00    +0.000 A 
ATOM     17  C   UNL     1      -1.576  13.085  23.421  0.00  0.00    +0.000 A 
ATOM     18  C   UNL     1      -1.032  14.373  23.293  0.00  0.00    +0.000 A 
ATOM     19  N   UNL     1      -0.638  15.209  24.327  0.00  0.00    +0.000 NA
ATOM     20  C   UNL     1      -0.105  16.304  23.831  0.00  0.00    +0.000 A 
ATOM     21  S   UNL     1      -0.048  16.404  22.120  0.00  0.00    +0.000 S 
ATOM     22  C   UNL     1      -0.857  14.882  22.007  0.00  0.00    +0.000 A 
ATOM     23  C   UNL     1      -1.321  14.192  20.862  0.00  0.00    +0.000 A 
ENDBRANCH   9  15
BRANCH  10  24
ATOM     24  C   UNL     1      -0.343  10.939  19.243  0.00  0.00    +0.000 C 
BRANCH  24  25
ATOM     25  C   UNL     1       0.936  11.406  18.516  0.00  0.00    +0.000 C 
ATOM     26  O   UNL     1       1.520  12.471  18.606  0.00  0.00    +0.000 OA
BRANCH  25  27
ATOM     27  O   UNL     1       1.460  10.387  17.769  0.00  0.00    +0.000 OA
ATOM     28  H   UNL     1       2.438  10.439  17.756  0.00  0.00    +0.000 HD
ENDBRANCH  25  27
ENDBRANCH  24  25
BRANCH  24  29
ATOM     29  O   UNL     1      -0.236   9.580  19.690  0.00  0.00    +0.000 OA
BRANCH  29  30
ATOM     30  C   UNL     1       0.434   9.215  20.907  0.00  0.00    +0.000 C 
ATOM     31  C   UNL     1       1.016  10.419  21.656  0.00  0.00    +0.000 C 
ATOM     32  C   UNL     1      -0.698   8.603  21.750  0.00  0.00    +0.000 C 
ATOM     33  C   UNL     1       1.513   8.134  20.761  0.00  0.00    +0.000 C 
ENDBRANCH  29  30
ENDBRANCH  24  29
ENDBRANCH  10  24
TORSDOF 6
ENDMDL
MODEL 2
REMARK VINA RESULT:      -6.5      0.388      1.028
REMARK  Name = 
REMARK  10 active torsions:
REMARK  status: ('A' for Active; 'I' for Inactive)
REMARK    1  A    between atoms: C_1  and  C_2
REMARK    2  A    between atoms: C_9  and  C_10
REMARK    3  A    between atoms: C_19  and  C_20
REMARK    4  A    between atoms: C_20  and  O_21
REMARK    5  A    between atoms: C_20  and  C_26
REMARK    6  A    between atoms: O_21  and  C_22
REMARK    7  A    between atoms: C_22  and  C_23
REMARK    8  A    between atoms: C_22  and  C_24
REMARK    9  A    between atoms: C_22  and  C_25
REMARK   10  A    between atoms: C_26  and  O_28
REMARK                            x       y       z     vdW  Elec       q    Type
REMARK                         _______ _______ _______ _____ _____    ______ ____
ROOT
ATOM      1  C   UNL     1      -2.066   9.782  16.725  0.00  0.00    +0.000 C 
ATOM      2  C   UNL     1      -2.595  10.756  17.735  0.00  0.00    +0.000 A 
ATOM      3  N   UNL     1      -3.869  11.039  17.455  0.00  0.00    +0.000 NA
ATOM      4  C   UNL     1      -4.551  11.783  18.337  0.00  0.00    +0.000 A 
ATOM      5  S   UNL     1      -6.209  11.968  18.056  0.00  0.00    +0.000 S 
ATOM      6  C   UNL     1      -6.400  12.876  19.462  0.00  0.00    +0.000 A 
ATOM      7  C   UNL     1      -5.201  13.125  20.117  0.00  0.00    +0.000 A 
ATOM      8  C   UNL     1      -4.062  12.408  19.482  0.00  0.00    +0.000 A 
ATOM      9  C   UNL     1      -2.650  12.182  19.744  0.00  0.00    +0.000 A 
ATOM     10  C   UNL     1      -1.920  11.261  18.859  0.00  0.00    +0.000 A 
ATOM     11  C   UNL     1      -5.254  13.977  21.359  0.00  0.00    +0.000 C 
ATOM     12  C   UNL     1      -6.546  14.771  21.535  0.00  0.00    +0.000 C 
ATOM     13  C   UNL     1      -7.753  13.864  21.306  0.00  0.00    +0.000 C 
ATOM     14  C   UNL     1      -7.761  13.351  19.866  0.00  0.00    +0.000 C 
ENDROOT
BRANCH   9  15
ATOM     15  C   UNL     1      -2.017  12.866  20.926  0.00  0.00    +0.000 A 
ATOM     16  C   UNL     1      -2.166  12.360  22.225  0.00  0.00    +0.000 A 
ATOM     17  C   UNL     1      -1.837  13.105  23.374  0.00  0.00    +0.000 A 
ATOM     18  C   UNL     1      -1.152  14.324  23.243  0.00  0.00    +0.000 A 
ATOM     19  N   UNL     1      -0.738  15.154  24.273  0.00  0.00    +0.000 NA
ATOM     20  C   UNL     1      -0.061  16.167  23.780  0.00  0.00    +0.000 A 
ATOM     21  S   UNL     1       0.114  16.195  22.074  0.00  0.00    +0.000 S 
ATOM     22  C   UNL     1      -0.843  14.762  21.956  0.00  0.00    +0.000 A 
ATOM     23  C   UNL     1      -1.304  14.080  20.804  0.00  0.00    +0.000 A 
ENDBRANCH   9  15
BRANCH  10  24
ATOM     24  C   UNL     1      -0.535  10.761  19.291  0.00  0.00    +0.000 C 
BRANCH  24  25
ATOM     25  C   UNL     1       0.749  10.807  18.436  0.00  0.00    +0.000 C 
ATOM     26  O   UNL     1       1.376   9.884  17.948  0.00  0.00    +0.000 OA
BRANCH  25  27
ATOM     27  O   UNL     1       1.095  12.103  18.166  0.00  0.00    +0.000 OA
ATOM     28  H   UNL     1       2.042  12.254  18.368  0.00  0.00    +0.000 HD
ENDBRANCH  25  27
ENDBRANCH  24  25
BRANCH  24  29
ATOM     29  O   UNL     1      -0.591   9.582  20.107  0.00  0.00    +0.000 OA
BRANCH  29  30
ATOM     30  C   UNL     1       0.230   9.408  21.274  0.00  0.00    +0.000 C 
ATOM     31  C   UNL     1       1.298   8.323  21.098  0.00  0.00    +0.000 C 
ATOM     32  C   UNL     1       0.924  10.774  21.411  0.00  0.00    +0.000 C 
ATOM     33  C   UNL     1      -0.536   9.165  22.580  0.00  0.00    +0.000 C 
ENDBRANCH  29  30
ENDBRANCH  24  29
ENDBRANCH  10  24
TORSDOF 6
ENDMDL
MODEL 3
REMARK VINA RESULT:      -6.3      1.940      2.460
REMARK  Name = 
REMARK  10 active torsions:
REMARK  status: ('A' for Active; 'I' for Inactive)
REMARK    1  A    between atoms: C_1  and  C_2
REMARK    2  A    between atoms: C_9  and  C_10
REMARK    3  A    between atoms: C_19  and  C_20
REMARK    4  A    between atoms: C_20  and  O_21
REMARK    5  A    between atoms: C_20  and  C_26
REMARK    6  A    between atoms: O_21  and  C_22
REMARK    7  A    between atoms: C_22  and  C_23
REMARK    8  A    between atoms: C_22  and  C_24
REMARK    9  A    between atoms: C_22  and  C_25
REMARK   10  A    between atoms: C_26  and  O_28
REMARK                            x       y       z     vdW  Elec       q    Type
REMARK                         _______ _______ _______ _____ _____    ______ ____
ROOT
ATOM      1  C   UNL     1       0.655  10.798  18.291  0.00  0.00    +0.000 C 
ATOM      2  C   UNL     1      -0.608  11.404  18.827  0.00  0.00    +0.000 A 
ATOM      3  N   UNL     1      -1.608  11.177  17.972  0.00  0.00    +0.000 NA
ATOM      4  C   UNL     1      -2.845  11.521  18.355  0.00  0.00    +0.000 A 
ATOM      5  S   UNL     1      -4.114  11.051  17.339  0.00  0.00    +0.000 S 
ATOM      6  C   UNL     1      -5.263  11.701  18.385  0.00  0.00    +0.000 A 
ATOM      7  C   UNL     1      -4.701  12.359  19.472  0.00  0.00    +0.000 A 
ATOM      8  C   UNL     1      -3.221  12.203  19.510  0.00  0.00    +0.000 A 
ATOM      9  C   UNL     1      -2.124  12.539  20.403  0.00  0.00    +0.000 A 
ATOM     10  C   UNL     1      -0.778  12.052  20.062  0.00  0.00    +0.000 A 
ATOM     11  C   UNL     1      -5.641  13.026  20.442  0.00  0.00    +0.000 C 
ATOM     12  C   UNL     1      -7.062  13.224  19.920  0.00  0.00    +0.000 C 
ATOM     13  C   UNL     1      -7.574  11.932  19.288  0.00  0.00    +0.000 C 
ATOM     14  C   UNL     1      -6.721  11.565  18.073  0.00  0.00    +0.000 C 
ENDROOT
BRANCH   9  15
ATOM     15  C   UNL     1      -2.425  13.329  21.648  0.00  0.00    +0.000 A 
ATOM     16  C   UNL     1      -2.937  12.711  22.797  0.00  0.00    +0.000 A 
ATOM     17  C   UNL     1      -3.490  13.437  23.870  0.00  0.00    +0.000 A 
ATOM     18  C   UNL     1      -3.359  14.835  23.907  0.00  0.00    +0.000 A 
ATOM     19  N   UNL     1      -3.823  15.681  24.902  0.00  0.00    +0.000 NA
ATOM     20  C   UNL     1      -3.453  16.915  24.640  0.00  0.00    +0.000 A 
ATOM     21  S   UNL     1      -2.547  17.139  23.202  0.00  0.00    +0.000 S 
ATOM     22  C   UNL     1      -2.697  15.455  22.849  0.00  0.00    +0.000 A 
ATOM     23  C   UNL     1      -2.275  14.734  21.707  0.00  0.00    +0.000 A 
ENDBRANCH   9  15
BRANCH  10  24
ATOM     24  C   UNL     1       0.323  12.114  21.128  0.00  0.00    +0.000 C 
BRANCH  24  25
ATOM     25  C   UNL     1       1.273  13.306  21.375  0.00  0.00    +0.000 C 
ATOM     26  O   UNL     1       1.168  14.212  22.181  0.00  0.00    +0.000 OA
BRANCH  25  27
ATOM     27  O   UNL     1       2.398  13.186  20.605  0.00  0.00    +0.000 OA
ATOM     28  H   UNL     1       2.177  13.294  19.657  0.00  0.00    +0.000 HD
ENDBRANCH  25  27
ENDBRANCH  24  25
BRANCH  24  29
ATOM     29  O   UNL     1       0.980  10.856  21.333  0.00  0.00    +0.000 OA
BRANCH  29  30
ATOM     30  C   UNL     1       0.408   9.803  22.126  0.00  0.00    +0.000 C 
ATOM     31  C   UNL     1      -0.230   8.696  21.282  0.00  0.00    +0.000 C 
ATOM     32  C   UNL     1       1.630   9.228  22.862  0.00  0.00    +0.000 C 
ATOM     33  C   UNL     1      -0.583  10.262  23.203  0.00  0.00    +0.000 C 
ENDBRANCH  29  30
ENDBRANCH  24  29
ENDBRANCH  10  24
TORSDOF 6
ENDMDL
MODEL 4
REMARK VINA RESULT:      -6.2      1.759      2.398
REMARK  Name = 
REMARK  10 active torsions:
REMARK  status: ('A' for Active; 'I' for Inactive)
REMARK    1  A    between atoms: C_1  and  C_2
REMARK    2  A    between atoms: C_9  and  C_10
REMARK    3  A    between atoms: C_19  and  C_20
REMARK    4  A    between atoms: C_20  and  O_21
REMARK    5  A    between atoms: C_20  and  C_26
REMARK    6  A    between atoms: O_21  and  C_22
REMARK    7  A    between atoms: C_22  and  C_23
REMARK    8  A    between atoms: C_22  and  C_24
REMARK    9  A    between atoms: C_22  and  C_25
REMARK   10  A    between atoms: C_26  and  O_28
REMARK                            x       y       z     vdW  Elec       q    Type
REMARK                         _______ _______ _______ _____ _____    ______ ____
ROOT
ATOM      1  C   UNL     1       0.350   9.792  18.036  0.00  0.00    +0.000 C 
ATOM      2  C   UNL     1      -0.767  10.688  18.483  0.00  0.00    +0.000 A 
ATOM      3  N   UNL     1      -1.855  10.442  17.750  0.00  0.00    +0.000 NA
ATOM      4  C   UNL     1      -2.996  11.048  18.105  0.00  0.00    +0.000 A 
ATOM      5  S   UNL     1      -4.397  10.575  17.282  0.00  0.00    +0.000 S 
ATOM      6  C   UNL     1      -5.354  11.605  18.211  0.00  0.00    +0.000 A 
ATOM      7  C   UNL     1      -4.618  12.384  19.095  0.00  0.00    +0.000 A 
ATOM      8  C   UNL     1      -3.177  12.011  19.095  0.00  0.00    +0.000 A 
ATOM      9  C   UNL     1      -1.975  12.355  19.837  0.00  0.00    +0.000 A 
ATOM     10  C   UNL     1      -0.743  11.603  19.549  0.00  0.00    +0.000 A 
ATOM     11  C   UNL     1      -5.373  13.381  19.935  0.00  0.00    +0.000 C 
ATOM     12  C   UNL     1      -6.789  13.682  19.450  0.00  0.00    +0.000 C 
ATOM     13  C   UNL     1      -7.528  12.380  19.149  0.00  0.00    +0.000 C 
ATOM     14  C   UNL     1      -6.837  11.633  18.008  0.00  0.00    +0.000 C 
ENDROOT
BRANCH   9  15
ATOM     15  C   UNL     1      -2.058  13.431  20.887  0.00  0.00    +0.000 A 
ATOM     16  C   UNL     1      -1.519  14.706  20.667  0.00  0.00    +0.000 A 
ATOM     17  C   UNL     1      -1.325  15.639  21.704  0.00  0.00    +0.000 A 
ATOM     18  C   UNL     1      -1.860  15.388  22.978  0.00  0.00    +0.000 A 
ATOM     19  N   UNL     1      -1.776  16.216  24.086  0.00  0.00    +0.000 NA
ATOM     20  C   UNL     1      -2.458  15.693  25.081  0.00  0.00    +0.000 A 
ATOM     21  S   UNL     1      -3.224  14.193  24.760  0.00  0.00    +0.000 S 
ATOM     22  C   UNL     1      -2.552  14.193  23.170  0.00  0.00    +0.000 A 
ATOM     23  C   UNL     1      -2.616  13.199  22.164  0.00  0.00    +0.000 A 
ENDBRANCH   9  15
BRANCH  10  24
ATOM     24  C   UNL     1       0.439  11.720  20.520  0.00  0.00    +0.000 C 
BRANCH  24  25
ATOM     25  C   UNL     1       1.570  12.768  20.443  0.00  0.00    +0.000 C 
ATOM     26  O   UNL     1       2.278  13.059  19.496  0.00  0.00    +0.000 OA
BRANCH  25  27
ATOM     27  O   UNL     1       1.645  13.475  21.611  0.00  0.00    +0.000 OA
ATOM     28  H   UNL     1       0.757  13.560  22.018  0.00  0.00    +0.000 HD
ENDBRANCH  25  27
ENDBRANCH  24  25
BRANCH  24  29
ATOM     29  O   UNL     1       0.920  10.449  20.977  0.00  0.00    +0.000 OA
BRANCH  29  30
ATOM     30  C   UNL     1       0.278   9.710  22.030  0.00  0.00    +0.000 C 
ATOM     31  C   UNL     1      -0.516   8.504  21.518  0.00  0.00    +0.000 C 
ATOM     32  C   UNL     1       1.466   9.206  22.867  0.00  0.00    +0.000 C 
ATOM     33  C   UNL     1      -0.604  10.543  22.968  0.00  0.00    +0.000 C 
ENDBRANCH  29  30
ENDBRANCH  24  29
ENDBRANCH  10  24
TORSDOF 6
ENDMDL
MODEL 5
REMARK VINA RESULT:      -6.2      1.848      2.718
REMARK  Name = 
REMARK  10 active torsions:
REMARK  status: ('A' for Active; 'I' for Inactive)
REMARK    1  A    between atoms: C_1  and  C_2
REMARK    2  A    between atoms: C_9  and  C_10
REMARK    3  A    between atoms: C_19  and  C_20
REMARK    4  A    between atoms: C_20  and  O_21
REMARK    5  A    between atoms: C_20  and  C_26
REMARK    6  A    between atoms: O_21  and  C_22
REMARK    7  A    between atoms: C_22  and  C_23
REMARK    8  A    between atoms: C_22  and  C_24
REMARK    9  A    between atoms: C_22  and  C_25
REMARK   10  A    between atoms: C_26  and  O_28
REMARK                            x       y       z     vdW  Elec       q    Type
REMARK                         _______ _______ _______ _____ _____    ______ ____
ROOT
ATOM      1  C   UNL     1      -0.221  10.114  18.013  0.00  0.00    +0.000 C 
ATOM      2  C   UNL     1      -1.285  10.950  18.664  0.00  0.00    +0.000 A 
ATOM      3  N   UNL     1      -2.352  11.011  17.865  0.00  0.00    +0.000 NA
ATOM      4  C   UNL     1      -3.457  11.596  18.346  0.00  0.00    +0.000 A 
ATOM      5  S   UNL     1      -4.851  11.493  17.391  0.00  0.00    +0.000 S 
ATOM      6  C   UNL     1      -5.766  12.311  18.545  0.00  0.00    +0.000 A 
ATOM      7  C   UNL     1      -5.014  12.750  19.627  0.00  0.00    +0.000 A 
ATOM      8  C   UNL     1      -3.608  12.264  19.559  0.00  0.00    +0.000 A 
ATOM      9  C   UNL     1      -2.420  12.284  20.396  0.00  0.00    +0.000 A 
ATOM     10  C   UNL     1      -1.239  11.532  19.941  0.00  0.00    +0.000 A 
ATOM     11  C   UNL     1      -5.727  13.542  20.691  0.00  0.00    +0.000 C 
ATOM     12  C   UNL     1      -7.091  14.089  20.275  0.00  0.00    +0.000 C 
ATOM     13  C   UNL     1      -7.915  12.990  19.608  0.00  0.00    +0.000 C 
ATOM     14  C   UNL     1      -7.231  12.526  18.322  0.00  0.00    +0.000 C 
ENDROOT
BRANCH   9  15
ATOM     15  C   UNL     1      -2.468  13.034  21.700  0.00  0.00    +0.000 A 
ATOM     16  C   UNL     1      -2.957  12.433  22.868  0.00  0.00    +0.000 A 
ATOM     17  C   UNL     1      -3.280  13.168  24.025  0.00  0.00    +0.000 A 
ATOM     18  C   UNL     1      -2.927  14.525  24.110  0.00  0.00    +0.000 A 
ATOM     19  N   UNL     1      -3.152  15.371  25.185  0.00  0.00    +0.000 NA
ATOM     20  C   UNL     1      -2.620  16.548  24.940  0.00  0.00    +0.000 A 
ATOM     21  S   UNL     1      -1.836  16.717  23.425  0.00  0.00    +0.000 S 
ATOM     22  C   UNL     1      -2.283  15.101  23.016  0.00  0.00    +0.000 A 
ATOM     23  C   UNL     1      -2.094  14.393  21.805  0.00  0.00    +0.000 A 
ENDBRANCH   9  15
BRANCH  10  24
ATOM     24  C   UNL     1      -0.099  11.273  20.934  0.00  0.00    +0.000 C 
BRANCH  24  25
ATOM     25  C   UNL     1      -0.131  10.263  22.101  0.00  0.00    +0.000 C 
ATOM     26  O   UNL     1      -0.087  10.478  23.299  0.00  0.00    +0.000 OA
BRANCH  25  27
ATOM     27  O   UNL     1      -0.332   8.995  21.628  0.00  0.00    +0.000 OA
ATOM     28  H   UNL     1      -1.095   8.975  21.014  0.00  0.00    +0.000 HD
ENDBRANCH  25  27
ENDBRANCH  24  25
BRANCH  24  29
ATOM     29  O   UNL     1       0.631  12.460  21.275  0.00  0.00    +0.000 OA
BRANCH  29  30
ATOM     30  C   UNL     1       1.414  13.190  20.316  0.00  0.00    +0.000 C 
ATOM     31  C   UNL     1       0.626  14.309  19.627  0.00  0.00    +0.000 C 
ATOM     32  C   UNL     1       2.518  13.819  21.184  0.00  0.00    +0.000 C 
ATOM     33  C   UNL     1       2.116  12.332  19.256  0.00  0.00    +0.000 C 
ENDBRANCH  29  30
ENDBRANCH  24  29
ENDBRANCH  10  24
TORSDOF 6
ENDMDL
MODEL 6
REMARK VINA RESULT:      -5.8      1.992      3.072
REMARK  Name = 
REMARK  10 active torsions:
REMARK  status: ('A' for Active; 'I' for Inactive)
REMARK    1  A    between atoms: C_1  and  C_2
REMARK    2  A    between atoms: C_9  and  C_10
REMARK    3  A    between atoms: C_19  and  C_20
REMARK    4  A    between atoms: C_20  and  O_21
REMARK    5  A    between atoms: C_20  and  C_26
REMARK    6  A    between atoms: O_21  and  C_22
REMARK    7  A    between atoms: C_22  and  C_23
REMARK    8  A    between atoms: C_22  and  C_24
REMARK    9  A    between atoms: C_22  and  C_25
REMARK   10  A    between atoms: C_26  and  O_28
REMARK                            x       y       z     vdW  Elec       q    Type
REMARK                         _______ _______ _______ _____ _____    ______ ____
ROOT
ATOM      1  C   UNL     1       0.576  10.293  18.113  0.00  0.00    +0.000 C 
ATOM      2  C   UNL     1      -0.640  10.981  18.659  0.00  0.00    +0.000 A 
ATOM      3  N   UNL     1      -1.639  10.883  17.780  0.00  0.00    +0.000 NA
ATOM      4  C   UNL     1      -2.849  11.315  18.160  0.00  0.00    +0.000 A 
ATOM      5  S   UNL     1      -4.134  11.007  17.103  0.00  0.00    +0.000 S 
ATOM      6  C   UNL     1      -5.242  11.704  18.163  0.00  0.00    +0.000 A 
ATOM      7  C   UNL     1      -4.646  12.257  19.290  0.00  0.00    +0.000 A 
ATOM      8  C   UNL     1      -3.187  11.971  19.342  0.00  0.00    +0.000 A 
ATOM      9  C   UNL     1      -2.083  12.166  20.267  0.00  0.00    +0.000 A 
ATOM     10  C   UNL     1      -0.777  11.581  19.922  0.00  0.00    +0.000 A 
ATOM     11  C   UNL     1      -5.544  12.956  20.277  0.00  0.00    +0.000 C 
ATOM     12  C   UNL     1      -6.933  13.303  19.744  0.00  0.00    +0.000 C 
ATOM     13  C   UNL     1      -7.542  12.091  19.041  0.00  0.00    +0.000 C 
ATOM     14  C   UNL     1      -6.700  11.710  17.823  0.00  0.00    +0.000 C 
ENDROOT
BRANCH   9  15
ATOM     15  C   UNL     1      -2.337  12.919  21.546  0.00  0.00    +0.000 A 
ATOM     16  C   UNL     1      -2.752  12.257  22.709  0.00  0.00    +0.000 A 
ATOM     17  C   UNL     1      -3.266  12.938  23.830  0.00  0.00    +0.000 A 
ATOM     18  C   UNL     1      -3.191  14.339  23.890  0.00  0.00    +0.000 A 
ATOM     19  N   UNL     1      -3.626  15.145  24.930  0.00  0.00    +0.000 NA
ATOM     20  C   UNL     1      -3.325  16.399  24.673  0.00  0.00    +0.000 A 
ATOM     21  S   UNL     1      -2.519  16.689  23.188  0.00  0.00    +0.000 S 
ATOM     22  C   UNL     1      -2.622  15.007  22.807  0.00  0.00    +0.000 A 
ATOM     23  C   UNL     1      -2.241  14.327  21.626  0.00  0.00    +0.000 A 
ENDBRANCH   9  15
BRANCH  10  24
ATOM     24  C   UNL     1       0.305  11.495  21.006  0.00  0.00    +0.000 C 
BRANCH  24  25
ATOM     25  C   UNL     1       0.539  10.301  21.956  0.00  0.00    +0.000 C 
ATOM     26  O   UNL     1       1.204   9.298  21.773  0.00  0.00    +0.000 OA
BRANCH  25  27
ATOM     27  O   UNL     1      -0.042  10.539  23.172  0.00  0.00    +0.000 OA
ATOM     28  H   UNL     1      -0.242  11.492  23.276  0.00  0.00    +0.000 HD
ENDBRANCH  25  27
ENDBRANCH  24  25
BRANCH  24  29
ATOM     29  O   UNL     1       0.552  12.750  21.655  0.00  0.00    +0.000 OA
BRANCH  29  30
ATOM     30  C   UNL     1       1.304  13.807  21.037  0.00  0.00    +0.000 C 
ATOM     31  C   UNL     1       1.463  15.036  21.938  0.00  0.00    +0.000 C 
ATOM     32  C   UNL     1       2.686  13.164  20.824  0.00  0.00    +0.000 C 
ATOM     33  C   UNL     1       0.801  14.247  19.657  0.00  0.00    +0.000 C 
ENDBRANCH  29  30
ENDBRANCH  24  29
ENDBRANCH  10  24
TORSDOF 6
ENDMDL
MODEL 7
REMARK VINA RESULT:      -5.8      0.960      1.330
REMARK  Name = 
REMARK  10 active torsions:
REMARK  status: ('A' for Active; 'I' for Inactive)
REMARK    1  A    between atoms: C_1  and  C_2
REMARK    2  A    between atoms: C_9  and  C_10
REMARK    3  A    between atoms: C_19  and  C_20
REMARK    4  A    between atoms: C_20  and  O_21
REMARK    5  A    between atoms: C_20  and  C_26
REMARK    6  A    between atoms: O_21  and  C_22
REMARK    7  A    between atoms: C_22  and  C_23
REMARK    8  A    between atoms: C_22  and  C_24
REMARK    9  A    between atoms: C_22  and  C_25
REMARK   10  A    between atoms: C_26  and  O_28
REMARK                            x       y       z     vdW  Elec       q    Type
REMARK                         _______ _______ _______ _____ _____    ______ ____
ROOT
ATOM      1  C   UNL     1      -0.681   9.737  17.447  0.00  0.00    +0.000 C 
ATOM      2  C   UNL     1      -1.501  10.664  18.295  0.00  0.00    +0.000 A 
ATOM      3  N   UNL     1      -2.756  10.690  17.840  0.00  0.00    +0.000 NA
ATOM      4  C   UNL     1      -3.667  11.353  18.564  0.00  0.00    +0.000 A 
ATOM      5  S   UNL     1      -5.280  11.213  18.070  0.00  0.00    +0.000 S 
ATOM      6  C   UNL     1      -5.812  12.162  19.357  0.00  0.00    +0.000 A 
ATOM      7  C   UNL     1      -4.772  12.670  20.126  0.00  0.00    +0.000 A 
ATOM      8  C   UNL     1      -3.452  12.133  19.698  0.00  0.00    +0.000 A 
ATOM      9  C   UNL     1      -2.070  12.186  20.147  0.00  0.00    +0.000 A 
ATOM     10  C   UNL     1      -1.080  11.357  19.442  0.00  0.00    +0.000 A 
ATOM     11  C   UNL     1      -5.137  13.579  21.270  0.00  0.00    +0.000 C 
ATOM     12  C   UNL     1      -6.559  14.133  21.219  0.00  0.00    +0.000 C 
ATOM     13  C   UNL     1      -7.549  13.008  20.929  0.00  0.00    +0.000 C 
ATOM     14  C   UNL     1      -7.276  12.407  19.550  0.00  0.00    +0.000 C 
ENDROOT
BRANCH   9  15
ATOM     15  C   UNL     1      -1.729  13.052  21.330  0.00  0.00    +0.000 A 
ATOM     16  C   UNL     1      -1.771  12.547  22.637  0.00  0.00    +0.000 A 
ATOM     17  C   UNL     1      -1.737  13.377  23.775  0.00  0.00    +0.000 A 
ATOM     18  C   UNL     1      -1.453  14.745  23.632  0.00  0.00    +0.000 A 
ATOM     19  N   UNL     1      -1.358  15.679  24.652  0.00  0.00    +0.000 NA
ATOM     20  C   UNL     1      -1.004  16.843  24.153  0.00  0.00    +0.000 A 
ATOM     21  S   UNL     1      -0.772  16.894  22.455  0.00  0.00    +0.000 S 
ATOM     22  C   UNL     1      -1.238  15.235  22.345  0.00  0.00    +0.000 A 
ATOM     23  C   UNL     1      -1.418  14.424  21.198  0.00  0.00    +0.000 A 
ENDBRANCH   9  15
BRANCH  10  24
ATOM     24  C   UNL     1       0.300  11.149  20.080  0.00  0.00    +0.000 C 
BRANCH  24  25
ATOM     25  C   UNL     1       1.497  12.118  19.978  0.00  0.00    +0.000 C 
ATOM     26  O   UNL     1       2.109  12.474  18.987  0.00  0.00    +0.000 OA
BRANCH  25  27
ATOM     27  O   UNL     1       1.770  12.668  21.200  0.00  0.00    +0.000 OA
ATOM     28  H   UNL     1       2.054  13.601  21.100  0.00  0.00    +0.000 HD
ENDBRANCH  25  27
ENDBRANCH  24  25
BRANCH  24  29
ATOM     29  O   UNL     1       0.721   9.778  20.076  0.00  0.00    +0.000 OA
BRANCH  29  30
ATOM     30  C   UNL     1       0.645   8.940  21.242  0.00  0.00    +0.000 C 
ATOM     31  C   UNL     1      -0.786   8.505  21.575  0.00  0.00    +0.000 C 
ATOM     32  C   UNL     1       1.458   7.702  20.826  0.00  0.00    +0.000 C 
ATOM     33  C   UNL     1       1.313   9.509  22.500  0.00  0.00    +0.000 C 
ENDBRANCH  29  30
ENDBRANCH  24  29
ENDBRANCH  10  24
TORSDOF 6
ENDMDL
MODEL 8
REMARK VINA RESULT:      -5.8      1.301      1.795
REMARK  Name = 
REMARK  10 active torsions:
REMARK  status: ('A' for Active; 'I' for Inactive)
REMARK    1  A    between atoms: C_1  and  C_2
REMARK    2  A    between atoms: C_9  and  C_10
REMARK    3  A    between atoms: C_19  and  C_20
REMARK    4  A    between atoms: C_20  and  O_21
REMARK    5  A    between atoms: C_20  and  C_26
REMARK    6  A    between atoms: O_21  and  C_22
REMARK    7  A    between atoms: C_22  and  C_23
REMARK    8  A    between atoms: C_22  and  C_24
REMARK    9  A    between atoms: C_22  and  C_25
REMARK   10  A    between atoms: C_26  and  O_28
REMARK                            x       y       z     vdW  Elec       q    Type
REMARK                         _______ _______ _______ _____ _____    ______ ____
ROOT
ATOM      1  C   UNL     1      -3.416  10.500  17.650  0.00  0.00    +0.000 C 
ATOM      2  C   UNL     1      -3.642  11.454  18.786  0.00  0.00    +0.000 A 
ATOM      3  N   UNL     1      -4.953  11.589  19.000  0.00  0.00    +0.000 NA
ATOM      4  C   UNL     1      -5.340  12.291  20.072  0.00  0.00    +0.000 A 
ATOM      5  S   UNL     1      -6.995  12.288  20.427  0.00  0.00    +0.000 S 
ATOM      6  C   UNL     1      -6.755  13.228  21.805  0.00  0.00    +0.000 A 
ATOM      7  C   UNL     1      -5.436  13.630  21.968  0.00  0.00    +0.000 A 
ATOM      8  C   UNL     1      -4.538  13.012  20.954  0.00  0.00    +0.000 A 
ATOM      9  C   UNL     1      -3.113  12.947  20.673  0.00  0.00    +0.000 A 
ATOM     10  C   UNL     1      -2.662  12.073  19.579  0.00  0.00    +0.000 A 
ATOM     11  C   UNL     1      -5.123  14.521  23.141  0.00  0.00    +0.000 C 
ATOM     12  C   UNL     1      -6.340  15.181  23.786  0.00  0.00    +0.000 C 
ATOM     13  C   UNL     1      -7.435  14.143  24.020  0.00  0.00    +0.000 C 
ATOM     14  C   UNL     1      -7.916  13.572  22.686  0.00  0.00    +0.000 C 
ENDROOT
BRANCH   9  15
ATOM     15  C   UNL     1      -2.171  13.742  21.537  0.00  0.00    +0.000 A 
ATOM     16  C   UNL     1      -1.850  13.328  22.836  0.00  0.00    +0.000 A 
ATOM     17  C   UNL     1      -1.209  14.169  23.767  0.00  0.00    +0.000 A 
ATOM     18  C   UNL     1      -0.685  15.403  23.347  0.00  0.00    +0.000 A 
ATOM     19  N   UNL     1      -0.008  16.323  24.133  0.00  0.00    +0.000 NA
ATOM     20  C   UNL     1       0.401  17.324  23.386  0.00  0.00    +0.000 A 
ATOM     21  S   UNL     1       0.002  17.233  21.721  0.00  0.00    +0.000 S 
ATOM     22  C   UNL     1      -0.846  15.757  22.009  0.00  0.00    +0.000 A 
ATOM     23  C   UNL     1      -1.617  14.973  21.117  0.00  0.00    +0.000 A 
ENDBRANCH   9  15
BRANCH  10  24
ATOM     24  C   UNL     1      -1.168  11.741  19.466  0.00  0.00    +0.000 C 
BRANCH  24  25
ATOM     25  C   UNL     1      -0.219  12.221  18.347  0.00  0.00    +0.000 C 
ATOM     26  O   UNL     1       0.952  11.941  18.167  0.00  0.00    +0.000 OA
BRANCH  25  27
ATOM     27  O   UNL     1      -0.902  12.979  17.436  0.00  0.00    +0.000 OA
ATOM     28  H   UNL     1      -1.470  13.634  17.892  0.00  0.00    +0.000 HD
ENDBRANCH  25  27
ENDBRANCH  24  25
BRANCH  24  29
ATOM     29  O   UNL     1      -0.852  10.411  19.899  0.00  0.00    +0.000 OA
BRANCH  29  30
ATOM     30  C   UNL     1       0.048  10.143  20.988  0.00  0.00    +0.000 C 
ATOM     31  C   UNL     1      -0.647   9.513  22.199  0.00  0.00    +0.000 C 
ATOM     32  C   UNL     1       1.021   9.117  20.381  0.00  0.00    +0.000 C 
ATOM     33  C   UNL     1       0.892  11.339  21.446  0.00  0.00    +0.000 C 
ENDBRANCH  29  30
ENDBRANCH  24  29
ENDBRANCH  10  24
TORSDOF 6
ENDMDL
MODEL 9
REMARK VINA RESULT:      -5.8      1.692      2.082
REMARK  Name = 
REMARK  10 active torsions:
REMARK  status: ('A' for Active; 'I' for Inactive)
REMARK    1  A    between atoms: C_1  and  C_2
REMARK    2  A    between atoms: C_9  and  C_10
REMARK    3  A    between atoms: C_19  and  C_20
REMARK    4  A    between atoms: C_20  and  O_21
REMARK    5  A    between atoms: C_20  and  C_26
REMARK    6  A    between atoms: O_21  and  C_22
REMARK    7  A    between atoms: C_22  and  C_23
REMARK    8  A    between atoms: C_22  and  C_24
REMARK    9  A    between atoms: C_22  and  C_25
REMARK   10  A    between atoms: C_26  and  O_28
REMARK                            x       y       z     vdW  Elec       q    Type
REMARK                         _______ _______ _______ _____ _____    ______ ____
ROOT
ATOM      1  C   UNL     1       0.410   9.924  18.074  0.00  0.00    +0.000 C 
ATOM      2  C   UNL     1      -0.736  10.778  18.530  0.00  0.00    +0.000 A 
ATOM      3  N   UNL     1      -1.809  10.520  17.779  0.00  0.00    +0.000 NA
ATOM      4  C   UNL     1      -2.970  11.086  18.135  0.00  0.00    +0.000 A 
ATOM      5  S   UNL     1      -4.349  10.595  17.286  0.00  0.00    +0.000 S 
ATOM      6  C   UNL     1      -5.343  11.576  18.227  0.00  0.00    +0.000 A 
ATOM      7  C   UNL     1      -4.638  12.353  19.138  0.00  0.00    +0.000 A 
ATOM      8  C   UNL     1      -3.188  12.020  19.146  0.00  0.00    +0.000 A 
ATOM      9  C   UNL     1      -2.004  12.379  19.909  0.00  0.00    +0.000 A 
ATOM     10  C   UNL     1      -0.749  11.668  19.617  0.00  0.00    +0.000 A 
ATOM     11  C   UNL     1      -5.429  13.308  19.993  0.00  0.00    +0.000 C 
ATOM     12  C   UNL     1      -6.848  13.582  19.500  0.00  0.00    +0.000 C 
ATOM     13  C   UNL     1      -7.548  12.268  19.160  0.00  0.00    +0.000 C 
ATOM     14  C   UNL     1      -6.824  11.569  18.009  0.00  0.00    +0.000 C 
ENDROOT
BRANCH   9  15
ATOM     15  C   UNL     1      -2.128  13.426  20.983  0.00  0.00    +0.000 A 
ATOM     16  C   UNL     1      -2.661  13.117  22.242  0.00  0.00    +0.000 A 
ATOM     17  C   UNL     1      -3.053  14.106  23.166  0.00  0.00    +0.000 A 
ATOM     18  C   UNL     1      -2.728  15.451  22.927  0.00  0.00    +0.000 A 
ATOM     19  N   UNL     1      -3.019  16.529  23.749  0.00  0.00    +0.000 NA
ATOM     20  C   UNL     1      -2.497  17.624  23.243  0.00  0.00    +0.000 A 
ATOM     21  S   UNL     1      -1.643  17.437  21.768  0.00  0.00    +0.000 S 
ATOM     22  C   UNL     1      -2.042  15.757  21.753  0.00  0.00    +0.000 A 
ATOM     23  C   UNL     1      -1.782  14.779  20.764  0.00  0.00    +0.000 A 
ENDBRANCH   9  15
BRANCH  10  24
ATOM     24  C   UNL     1       0.420  11.793  20.603  0.00  0.00    +0.000 C 
BRANCH  24  25
ATOM     25  C   UNL     1       1.458  12.935  20.631  0.00  0.00    +0.000 C 
ATOM     26  O   UNL     1       2.148  13.317  21.559  0.00  0.00    +0.000 OA
BRANCH  25  27
ATOM     27  O   UNL     1       1.622  13.461  19.379  0.00  0.00    +0.000 OA
ATOM     28  H   UNL     1       1.112  14.293  19.288  0.00  0.00    +0.000 HD
ENDBRANCH  25  27
ENDBRANCH  24  25
BRANCH  24  29
ATOM     29  O   UNL     1       1.006  10.530  20.945  0.00  0.00    +0.000 OA
BRANCH  29  30
ATOM     30  C   UNL     1       0.481   9.688  21.986  0.00  0.00    +0.000 C 
ATOM     31  C   UNL     1       1.568   9.120  22.903  0.00  0.00    +0.000 C 
ATOM     32  C   UNL     1      -0.400  10.656  22.796  0.00  0.00    +0.000 C 
ATOM     33  C   UNL     1      -0.432   8.551  21.508  0.00  0.00    +0.000 C 
ENDBRANCH  29  30
ENDBRANCH  24  29
ENDBRANCH  10  24
TORSDOF 6
ENDMDL
