MODEL 1
REMARK VINA RESULT:      -8.9      0.000      0.000
REMARK  Name = 
REMARK  8 active torsions:
REMARK  status: ('A' for Active; 'I' for Inactive)
REMARK    1  A    between atoms: C_1  and  O_2
REMARK    2  A    between atoms: O_2  and  C_3
REMARK    3  A    between atoms: C_6  and  C_7
REMARK    4  A    between atoms: C_7  and  N_8
REMARK    5  A    between atoms: C_9  and  C_11
REMARK    6  A    between atoms: N_13  and  C_14
REMARK    7  A    between atoms: C_18  and  O_19
REMARK    8  A    between atoms: O_19  and  C_20
REMARK                            x       y       z     vdW  Elec       q    Type
REMARK                         _______ _______ _______ _____ _____    ______ ____
ROOT
ATOM      1  C   UNL     1       1.867   6.616  19.956  0.00  0.00    +0.000 A 
ATOM      2  C   UNL     1       2.139   6.737  18.635  0.00  0.00    +0.000 A 
ATOM      3  N   UNL     1       2.530   5.638  17.875  0.00  0.00    +0.000 N 
ATOM      4  C   UNL     1       1.536   4.647  17.959  0.00  0.00    +0.000 A 
ATOM      5  O   UNL     1       0.965   4.113  17.015  0.00  0.00    +0.000 OA
ATOM      6  C   UNL     1       1.287   4.254  19.392  0.00  0.00    +0.000 A 
ATOM      7  C   UNL     1       1.139   2.853  19.519  0.00  0.00    +0.000 A 
ATOM      8  C   UNL     1       1.849   2.226  20.509  0.00  0.00    +0.000 A 
ATOM      9  C   UNL     1       2.631   3.010  21.365  0.00  0.00    +0.000 A 
ATOM     10  C   UNL     1       2.590   4.450  21.339  0.00  0.00    +0.000 A 
ATOM     11  C   UNL     1       1.832   5.140  20.384  0.00  0.00    +0.000 A 
ENDROOT
BRANCH   3  12
ATOM     12  C   UNL     1       3.939   5.243  18.117  0.00  0.00    +0.000 A 
ATOM     13  C   UNL     1       4.660   5.637  19.252  0.00  0.00    +0.000 A 
ATOM     14  C   UNL     1       6.050   5.451  19.303  0.00  0.00    +0.000 A 
ATOM     15  C   UNL     1       6.734   4.869  18.231  0.00  0.00    +0.000 A 
ATOM     16  C   UNL     1       6.036   4.428  17.112  0.00  0.00    +0.000 A 
ATOM     17  C   UNL     1       4.650   4.575  17.084  0.00  0.00    +0.000 A 
BRANCH  16  18
ATOM     18  O   UNL     1       6.807   3.915  16.104  0.00  0.00    +0.000 OA
ATOM     19  C   UNL     1       7.154   4.795  15.038  0.00  0.00    +0.000 C 
ENDBRANCH  16  18
ENDBRANCH   3  12
BRANCH   1  21
ATOM     20  N   UNL     1       1.532   9.233  19.808  0.00  0.00    +0.000 N 
ATOM     21  C   UNL     1       1.522   8.027  20.487  0.00  0.00    +0.000 C 
ATOM     22  O   UNL     1       1.098   8.081  21.655  0.00  0.00    +0.000 OA
ATOM     23  H   UNL     1       1.645   9.258  18.806  0.00  0.00    +0.000 HD
BRANCH  20  24
ATOM     24  C   UNL     1       0.796  10.372  20.460  0.00  0.00    +0.000 C 
BRANCH  24  28
ATOM     25  C   UNL     1      -3.040  11.656  18.767  0.00  0.00    +0.000 A 
ATOM     26  C   UNL     1      -2.299  10.633  18.178  0.00  0.00    +0.000 A 
ATOM     27  C   UNL     1      -1.059  10.243  18.715  0.00  0.00    +0.000 A 
ATOM     28  C   UNL     1      -0.490  10.912  19.833  0.00  0.00    +0.000 A 
ATOM     29  C   UNL     1      -1.251  11.919  20.423  0.00  0.00    +0.000 A 
ATOM     30  C   UNL     1      -2.508  12.293  19.889  0.00  0.00    +0.000 A 
BRANCH  25  32
ATOM     31  C   UNL     1      -4.401  11.460  16.816  0.00  0.00    +0.000 C 
ATOM     32  O   UNL     1      -4.225  11.942  18.146  0.00  0.00    +0.000 OA
ENDBRANCH  25  32
ENDBRANCH  24  28
ENDBRANCH  20  24
ENDBRANCH   1  21
TORSDOF 6
ENDMDL
MODEL 2
REMARK VINA RESULT:      -8.7      1.726      2.021
REMARK  Name = 
REMARK  8 active torsions:
REMARK  status: ('A' for Active; 'I' for Inactive)
REMARK    1  A    between atoms: C_1  and  O_2
REMARK    2  A    between atoms: O_2  and  C_3
REMARK    3  A    between atoms: C_6  and  C_7
REMARK    4  A    between atoms: C_7  and  N_8
REMARK    5  A    between atoms: C_9  and  C_11
REMARK    6  A    between atoms: N_13  and  C_14
REMARK    7  A    between atoms: C_18  and  O_19
REMARK    8  A    between atoms: O_19  and  C_20
REMARK                            x       y       z     vdW  Elec       q    Type
REMARK                         _______ _______ _______ _____ _____    ______ ____
ROOT
ATOM      1  C   UNL     1       1.912   6.518  19.955  0.00  0.00    +0.000 A 
ATOM      2  C   UNL     1       2.191   6.672  18.639  0.00  0.00    +0.000 A 
ATOM      3  N   UNL     1       2.594   5.594  17.855  0.00  0.00    +0.000 N 
ATOM      4  C   UNL     1       1.606   4.594  17.909  0.00  0.00    +0.000 A 
ATOM      5  O   UNL     1       1.045   4.080  16.948  0.00  0.00    +0.000 OA
ATOM      6  C   UNL     1       1.351   4.166  19.331  0.00  0.00    +0.000 A 
ATOM      7  C   UNL     1       1.212   2.761  19.423  0.00  0.00    +0.000 A 
ATOM      8  C   UNL     1       1.919   2.115  20.402  0.00  0.00    +0.000 A 
ATOM      9  C   UNL     1       2.690   2.884  21.282  0.00  0.00    +0.000 A 
ATOM     10  C   UNL     1       2.640   4.323  21.290  0.00  0.00    +0.000 A 
ATOM     11  C   UNL     1       1.883   5.031  20.347  0.00  0.00    +0.000 A 
ENDROOT
BRANCH   3  12
ATOM     12  C   UNL     1       4.004   5.203  18.097  0.00  0.00    +0.000 A 
ATOM     13  C   UNL     1       4.719   5.584  19.239  0.00  0.00    +0.000 A 
ATOM     14  C   UNL     1       6.110   5.404  19.293  0.00  0.00    +0.000 A 
ATOM     15  C   UNL     1       6.800   4.839  18.215  0.00  0.00    +0.000 A 
ATOM     16  C   UNL     1       6.108   4.410  17.088  0.00  0.00    +0.000 A 
ATOM     17  C   UNL     1       4.721   4.551  17.057  0.00  0.00    +0.000 A 
BRANCH  16  18
ATOM     18  O   UNL     1       6.885   3.913  16.077  0.00  0.00    +0.000 OA
ATOM     19  C   UNL     1       6.559   4.316  14.749  0.00  0.00    +0.000 C 
ENDBRANCH  16  18
ENDBRANCH   3  12
BRANCH   1  21
ATOM     20  N   UNL     1       1.180   8.256  21.806  0.00  0.00    +0.000 N 
ATOM     21  C   UNL     1       1.554   7.912  20.517  0.00  0.00    +0.000 C 
ATOM     22  O   UNL     1       1.700   8.869  19.737  0.00  0.00    +0.000 OA
ATOM     23  H   UNL     1       1.250   7.587  22.557  0.00  0.00    +0.000 HD
BRANCH  20  24
ATOM     24  C   UNL     1       1.260   9.716  22.157  0.00  0.00    +0.000 C 
BRANCH  24  28
ATOM     25  C   UNL     1      -2.187  12.427  22.101  0.00  0.00    +0.000 A 
ATOM     26  C   UNL     1      -1.994  11.529  23.149  0.00  0.00    +0.000 A 
ATOM     27  C   UNL     1      -0.897  10.648  23.148  0.00  0.00    +0.000 A 
ATOM     28  C   UNL     1       0.013  10.597  22.057  0.00  0.00    +0.000 A 
ATOM     29  C   UNL     1      -0.181  11.514  21.025  0.00  0.00    +0.000 A 
ATOM     30  C   UNL     1      -1.276  12.412  21.043  0.00  0.00    +0.000 A 
BRANCH  25  32
ATOM     31  C   UNL     1      -4.526  12.715  21.719  0.00  0.00    +0.000 C 
ATOM     32  O   UNL     1      -3.292  13.224  22.220  0.00  0.00    +0.000 OA
ENDBRANCH  25  32
ENDBRANCH  24  28
ENDBRANCH  20  24
ENDBRANCH   1  21
TORSDOF 6
ENDMDL
MODEL 3
REMARK VINA RESULT:      -8.6      2.182      9.312
REMARK  Name = 
REMARK  8 active torsions:
REMARK  status: ('A' for Active; 'I' for Inactive)
REMARK    1  A    between atoms: C_1  and  O_2
REMARK    2  A    between atoms: O_2  and  C_3
REMARK    3  A    between atoms: C_6  and  C_7
REMARK    4  A    between atoms: C_7  and  N_8
REMARK    5  A    between atoms: C_9  and  C_11
REMARK    6  A    between atoms: N_13  and  C_14
REMARK    7  A    between atoms: C_18  and  O_19
REMARK    8  A    between atoms: O_19  and  C_20
REMARK                            x       y       z     vdW  Elec       q    Type
REMARK                         _______ _______ _______ _____ _____    ______ ____
ROOT
ATOM      1  C   UNL     1       0.911   9.274  20.020  0.00  0.00    +0.000 A 
ATOM      2  C   UNL     1       0.854   9.790  18.769  0.00  0.00    +0.000 A 
ATOM      3  N   UNL     1       0.180  10.981  18.509  0.00  0.00    +0.000 N 
ATOM      4  C   UNL     1       0.731  12.001  19.305  0.00  0.00    +0.000 A 
ATOM      5  O   UNL     1       1.173  13.071  18.905  0.00  0.00    +0.000 OA
ATOM      6  C   UNL     1       0.657  11.643  20.767  0.00  0.00    +0.000 A 
ATOM      7  C   UNL     1       0.271  12.759  21.546  0.00  0.00    +0.000 A 
ATOM      8  C   UNL     1      -0.725  12.577  22.470  0.00  0.00    +0.000 A 
ATOM      9  C   UNL     1      -1.262  11.293  22.623  0.00  0.00    +0.000 A 
ATOM     10  C   UNL     1      -0.699  10.142  21.965  0.00  0.00    +0.000 A 
ATOM     11  C   UNL     1       0.361  10.267  21.057  0.00  0.00    +0.000 A 
ENDROOT
BRANCH   3  12
ATOM     12  C   UNL     1      -1.294  10.816  18.497  0.00  0.00    +0.000 A 
ATOM     13  C   UNL     1      -1.946   9.809  17.775  0.00  0.00    +0.000 A 
ATOM     14  C   UNL     1      -3.338   9.859  17.596  0.00  0.00    +0.000 A 
ATOM     15  C   UNL     1      -4.091  10.906  18.137  0.00  0.00    +0.000 A 
ATOM     16  C   UNL     1      -3.474  11.893  18.897  0.00  0.00    +0.000 A 
ATOM     17  C   UNL     1      -2.098  11.816  19.109  0.00  0.00    +0.000 A 
BRANCH  16  18
ATOM     18  O   UNL     1      -4.298  12.892  19.341  0.00  0.00    +0.000 OA
ATOM     19  C   UNL     1      -4.131  13.322  20.689  0.00  0.00    +0.000 C 
ENDBRANCH  16  18
ENDBRANCH   3  12
BRANCH   1  21
ATOM     20  N   UNL     1       2.561   7.507  18.953  0.00  0.00    +0.000 N 
ATOM     21  C   UNL     1       1.681   7.936  19.933  0.00  0.00    +0.000 C 
ATOM     22  O   UNL     1       1.565   7.175  20.909  0.00  0.00    +0.000 OA
ATOM     23  H   UNL     1       2.889   8.143  18.242  0.00  0.00    +0.000 HD
BRANCH  20  24
ATOM     24  C   UNL     1       3.441   6.342  19.312  0.00  0.00    +0.000 C 
BRANCH  24  28
ATOM     25  C   UNL     1       6.575   5.203  16.464  0.00  0.00    +0.000 A 
ATOM     26  C   UNL     1       5.489   5.979  16.066  0.00  0.00    +0.000 A 
ATOM     27  C   UNL     1       4.477   6.321  16.982  0.00  0.00    +0.000 A 
ATOM     28  C   UNL     1       4.492   5.841  18.319  0.00  0.00    +0.000 A 
ATOM     29  C   UNL     1       5.595   5.082  18.708  0.00  0.00    +0.000 A 
ATOM     30  C   UNL     1       6.620   4.758  17.786  0.00  0.00    +0.000 A 
BRANCH  25  32
ATOM     31  C   UNL     1       6.986   4.749  14.156  0.00  0.00    +0.000 C 
ATOM     32  O   UNL     1       7.486   4.937  15.478  0.00  0.00    +0.000 OA
ENDBRANCH  25  32
ENDBRANCH  24  28
ENDBRANCH  20  24
ENDBRANCH   1  21
TORSDOF 6
ENDMDL
MODEL 4
REMARK VINA RESULT:      -8.6      2.435      9.290
REMARK  Name = 
REMARK  8 active torsions:
REMARK  status: ('A' for Active; 'I' for Inactive)
REMARK    1  A    between atoms: C_1  and  O_2
REMARK    2  A    between atoms: O_2  and  C_3
REMARK    3  A    between atoms: C_6  and  C_7
REMARK    4  A    between atoms: C_7  and  N_8
REMARK    5  A    between atoms: C_9  and  C_11
REMARK    6  A    between atoms: N_13  and  C_14
REMARK    7  A    between atoms: C_18  and  O_19
REMARK    8  A    between atoms: O_19  and  C_20
REMARK                            x       y       z     vdW  Elec       q    Type
REMARK                         _______ _______ _______ _____ _____    ______ ____
ROOT
ATOM      1  C   UNL     1       1.116   9.220  19.585  0.00  0.00    +0.000 A 
ATOM      2  C   UNL     1       0.983   9.824  18.381  0.00  0.00    +0.000 A 
ATOM      3  N   UNL     1       0.245  10.997  18.238  0.00  0.00    +0.000 N 
ATOM      4  C   UNL     1       0.781  11.981  19.088  0.00  0.00    +0.000 A 
ATOM      5  O   UNL     1       1.156  13.098  18.754  0.00  0.00    +0.000 OA
ATOM      6  C   UNL     1       0.785  11.512  20.520  0.00  0.00    +0.000 A 
ATOM      7  C   UNL     1       0.381  12.547  21.396  0.00  0.00    +0.000 A 
ATOM      8  C   UNL     1      -0.566  12.247  22.341  0.00  0.00    +0.000 A 
ATOM      9  C   UNL     1      -1.036  10.931  22.416  0.00  0.00    +0.000 A 
ATOM     10  C   UNL     1      -0.449   9.861  21.651  0.00  0.00    +0.000 A 
ATOM     11  C   UNL     1       0.565  10.106  20.715  0.00  0.00    +0.000 A 
ENDROOT
BRANCH   3  12
ATOM     12  C   UNL     1      -1.219  10.762  18.271  0.00  0.00    +0.000 A 
ATOM     13  C   UNL     1      -1.847   9.745  17.541  0.00  0.00    +0.000 A 
ATOM     14  C   UNL     1      -3.245   9.732  17.410  0.00  0.00    +0.000 A 
ATOM     15  C   UNL     1      -4.028  10.725  18.006  0.00  0.00    +0.000 A 
ATOM     16  C   UNL     1      -3.433  11.720  18.774  0.00  0.00    +0.000 A 
ATOM     17  C   UNL     1      -2.048  11.704  18.937  0.00  0.00    +0.000 A 
BRANCH  16  18
ATOM     18  O   UNL     1      -4.288  12.665  19.274  0.00  0.00    +0.000 OA
ATOM     19  C   UNL     1      -5.632  12.643  18.800  0.00  0.00    +0.000 C 
ENDBRANCH  16  18
ENDBRANCH   3  12
BRANCH   1  21
ATOM     20  N   UNL     1       2.684   7.558  18.259  0.00  0.00    +0.000 N 
ATOM     21  C   UNL     1       1.943   7.932  19.367  0.00  0.00    +0.000 C 
ATOM     22  O   UNL     1       2.026   7.166  20.342  0.00  0.00    +0.000 OA
ATOM     23  H   UNL     1       2.858   8.212  17.512  0.00  0.00    +0.000 HD
BRANCH  20  24
ATOM     24  C   UNL     1       3.678   6.448  18.465  0.00  0.00    +0.000 C 
BRANCH  24  28
ATOM     25  C   UNL     1       5.812   4.571  15.126  0.00  0.00    +0.000 A 
ATOM     26  C   UNL     1       5.698   5.957  15.219  0.00  0.00    +0.000 A 
ATOM     27  C   UNL     1       4.992   6.549  16.282  0.00  0.00    +0.000 A 
ATOM     28  C   UNL     1       4.323   5.763  17.259  0.00  0.00    +0.000 A 
ATOM     29  C   UNL     1       4.463   4.380  17.164  0.00  0.00    +0.000 A 
ATOM     30  C   UNL     1       5.192   3.790  16.102  0.00  0.00    +0.000 A 
BRANCH  25  32
ATOM     31  C   UNL     1       5.777   3.567  12.960  0.00  0.00    +0.000 C 
ATOM     32  O   UNL     1       6.519   4.122  14.044  0.00  0.00    +0.000 OA
ENDBRANCH  25  32
ENDBRANCH  24  28
ENDBRANCH  20  24
ENDBRANCH   1  21
TORSDOF 6
ENDMDL
MODEL 5
REMARK VINA RESULT:      -8.5      1.197      1.293
REMARK  Name = 
REMARK  8 active torsions:
REMARK  status: ('A' for Active; 'I' for Inactive)
REMARK    1  A    between atoms: C_1  and  O_2
REMARK    2  A    between atoms: O_2  and  C_3
REMARK    3  A    between atoms: C_6  and  C_7
REMARK    4  A    between atoms: C_7  and  N_8
REMARK    5  A    between atoms: C_9  and  C_11
REMARK    6  A    between atoms: N_13  and  C_14
REMARK    7  A    between atoms: C_18  and  O_19
REMARK    8  A    between atoms: O_19  and  C_20
REMARK                            x       y       z     vdW  Elec       q    Type
REMARK                         _______ _______ _______ _____ _____    ______ ____
ROOT
ATOM      1  C   UNL     1       1.969   6.812  19.554  0.00  0.00    +0.000 A 
ATOM      2  C   UNL     1       2.268   6.665  18.241  0.00  0.00    +0.000 A 
ATOM      3  N   UNL     1       2.584   5.418  17.707  0.00  0.00    +0.000 N 
ATOM      4  C   UNL     1       1.514   4.536  17.943  0.00  0.00    +0.000 A 
ATOM      5  O   UNL     1       0.917   3.881  17.097  0.00  0.00    +0.000 OA
ATOM      6  C   UNL     1       1.214   4.435  19.416  0.00  0.00    +0.000 A 
ATOM      7  C   UNL     1       0.956   3.097  19.794  0.00  0.00    +0.000 A 
ATOM      8  C   UNL     1       1.599   2.613  20.903  0.00  0.00    +0.000 A 
ATOM      9  C   UNL     1       2.427   3.483  21.622  0.00  0.00    +0.000 A 
ATOM     10  C   UNL     1       2.499   4.892  21.331  0.00  0.00    +0.000 A 
ATOM     11  C   UNL     1       1.811   5.447  20.244  0.00  0.00    +0.000 A 
ENDROOT
BRANCH   3  12
ATOM     12  C   UNL     1       3.954   4.972  18.059  0.00  0.00    +0.000 A 
ATOM     13  C   UNL     1       4.230   3.719  18.619  0.00  0.00    +0.000 A 
ATOM     14  C   UNL     1       5.497   3.454  19.163  0.00  0.00    +0.000 A 
ATOM     15  C   UNL     1       6.499   4.430  19.150  0.00  0.00    +0.000 A 
ATOM     16  C   UNL     1       6.265   5.666  18.558  0.00  0.00    +0.000 A 
ATOM     17  C   UNL     1       5.019   5.909  17.981  0.00  0.00    +0.000 A 
BRANCH  16  18
ATOM     18  O   UNL     1       7.298   6.561  18.640  0.00  0.00    +0.000 OA
ATOM     19  C   UNL     1       7.483   7.443  17.536  0.00  0.00    +0.000 C 
ENDBRANCH  16  18
ENDBRANCH   3  12
BRANCH   1  21
ATOM     20  N   UNL     1       1.704   9.356  18.890  0.00  0.00    +0.000 N 
ATOM     21  C   UNL     1       1.726   8.318  19.806  0.00  0.00    +0.000 C 
ATOM     22  O   UNL     1       1.429   8.634  20.971  0.00  0.00    +0.000 OA
ATOM     23  H   UNL     1       1.711   9.167  17.900  0.00  0.00    +0.000 HD
BRANCH  20  24
ATOM     24  C   UNL     1       1.078  10.642  19.355  0.00  0.00    +0.000 C 
BRANCH  24  28
ATOM     25  C   UNL     1      -3.162  11.299  18.450  0.00  0.00    +0.000 A 
ATOM     26  C   UNL     1      -2.424  10.328  17.776  0.00  0.00    +0.000 A 
ATOM     27  C   UNL     1      -1.059  10.139  18.058  0.00  0.00    +0.000 A 
ATOM     28  C   UNL     1      -0.371  10.965  18.987  0.00  0.00    +0.000 A 
ATOM     29  C   UNL     1      -1.126  11.920  19.667  0.00  0.00    +0.000 A 
ATOM     30  C   UNL     1      -2.505  12.091  19.394  0.00  0.00    +0.000 A 
BRANCH  25  32
ATOM     31  C   UNL     1      -4.757  11.691  16.716  0.00  0.00    +0.000 C 
ATOM     32  O   UNL     1      -4.477  11.385  18.081  0.00  0.00    +0.000 OA
ENDBRANCH  25  32
ENDBRANCH  24  28
ENDBRANCH  20  24
ENDBRANCH   1  21
TORSDOF 6
ENDMDL
MODEL 6
REMARK VINA RESULT:      -8.5      2.483      4.762
REMARK  Name = 
REMARK  8 active torsions:
REMARK  status: ('A' for Active; 'I' for Inactive)
REMARK    1  A    between atoms: C_1  and  O_2
REMARK    2  A    between atoms: O_2  and  C_3
REMARK    3  A    between atoms: C_6  and  C_7
REMARK    4  A    between atoms: C_7  and  N_8
REMARK    5  A    between atoms: C_9  and  C_11
REMARK    6  A    between atoms: N_13  and  C_14
REMARK    7  A    between atoms: C_18  and  O_19
REMARK    8  A    between atoms: O_19  and  C_20
REMARK                            x       y       z     vdW  Elec       q    Type
REMARK                         _______ _______ _______ _____ _____    ______ ____
ROOT
ATOM      1  C   UNL     1       3.792   6.635  18.124  0.00  0.00    +0.000 A 
ATOM      2  C   UNL     1       3.949   6.168  19.385  0.00  0.00    +0.000 A 
ATOM      3  N   UNL     1       4.795   5.096  19.659  0.00  0.00    +0.000 N 
ATOM      4  C   UNL     1       6.092   5.413  19.216  0.00  0.00    +0.000 A 
ATOM      5  O   UNL     1       7.114   5.383  19.892  0.00  0.00    +0.000 OA
ATOM      6  C   UNL     1       6.094   5.745  17.747  0.00  0.00    +0.000 A 
ATOM      7  C   UNL     1       7.206   5.162  17.094  0.00  0.00    +0.000 A 
ATOM      8  C   UNL     1       6.974   4.483  15.927  0.00  0.00    +0.000 A 
ATOM      9  C   UNL     1       5.668   4.450  15.425  0.00  0.00    +0.000 A 
ATOM     10  C   UNL     1       4.604   5.231  16.003  0.00  0.00    +0.000 A 
ATOM     11  C   UNL     1       4.805   5.991  17.163  0.00  0.00    +0.000 A 
ENDROOT
BRANCH   3  12
ATOM     12  C   UNL     1       4.215   3.790  19.260  0.00  0.00    +0.000 A 
ATOM     13  C   UNL     1       4.933   2.818  18.552  0.00  0.00    +0.000 A 
ATOM     14  C   UNL     1       4.265   1.722  17.984  0.00  0.00    +0.000 A 
ATOM     15  C   UNL     1       2.880   1.582  18.119  0.00  0.00    +0.000 A 
ATOM     16  C   UNL     1       2.150   2.508  18.856  0.00  0.00    +0.000 A 
ATOM     17  C   UNL     1       2.825   3.571  19.455  0.00  0.00    +0.000 A 
BRANCH  16  18
ATOM     18  O   UNL     1       0.798   2.298  18.886  0.00  0.00    +0.000 OA
ATOM     19  C   UNL     1       0.021   3.183  19.690  0.00  0.00    +0.000 C 
ENDBRANCH  16  18
ENDBRANCH   3  12
BRANCH   1  21
ATOM     20  N   UNL     1       1.898   8.119  19.215  0.00  0.00    +0.000 N 
ATOM     21  C   UNL     1       2.753   7.778  18.181  0.00  0.00    +0.000 C 
ATOM     22  O   UNL     1       2.738   8.550  17.207  0.00  0.00    +0.000 OA
ATOM     23  H   UNL     1       1.995   7.693  20.124  0.00  0.00    +0.000 HD
BRANCH  20  24
ATOM     24  C   UNL     1       1.276   9.487  19.144  0.00  0.00    +0.000 C 
BRANCH  24  28
ATOM     25  C   UNL     1      -1.064  11.057  22.504  0.00  0.00    +0.000 A 
ATOM     26  C   UNL     1      -1.032  11.717  21.277  0.00  0.00    +0.000 A 
ATOM     27  C   UNL     1      -0.261  11.218  20.212  0.00  0.00    +0.000 A 
ATOM     28  C   UNL     1       0.557  10.066  20.363  0.00  0.00    +0.000 A 
ATOM     29  C   UNL     1       0.499   9.404  21.589  0.00  0.00    +0.000 A 
ATOM     30  C   UNL     1      -0.295   9.901  22.651  0.00  0.00    +0.000 A 
BRANCH  25  32
ATOM     31  C   UNL     1      -3.032  12.308  23.016  0.00  0.00    +0.000 C 
ATOM     32  O   UNL     1      -1.848  11.647  23.457  0.00  0.00    +0.000 OA
ENDBRANCH  25  32
ENDBRANCH  24  28
ENDBRANCH  20  24
ENDBRANCH   1  21
TORSDOF 6
ENDMDL
MODEL 7
REMARK VINA RESULT:      -8.5      0.759      1.235
REMARK  Name = 
REMARK  8 active torsions:
REMARK  status: ('A' for Active; 'I' for Inactive)
REMARK    1  A    between atoms: C_1  and  O_2
REMARK    2  A    between atoms: O_2  and  C_3
REMARK    3  A    between atoms: C_6  and  C_7
REMARK    4  A    between atoms: C_7  and  N_8
REMARK    5  A    between atoms: C_9  and  C_11
REMARK    6  A    between atoms: N_13  and  C_14
REMARK    7  A    between atoms: C_18  and  O_19
REMARK    8  A    between atoms: O_19  and  C_20
REMARK                            x       y       z     vdW  Elec       q    Type
REMARK                         _______ _______ _______ _____ _____    ______ ____
ROOT
ATOM      1  C   UNL     1       1.931   6.688  19.996  0.00  0.00    +0.000 A 
ATOM      2  C   UNL     1       2.192   6.820  18.674  0.00  0.00    +0.000 A 
ATOM      3  N   UNL     1       2.520   5.717  17.889  0.00  0.00    +0.000 N 
ATOM      4  C   UNL     1       1.480   4.774  17.968  0.00  0.00    +0.000 A 
ATOM      5  O   UNL     1       0.872   4.287  17.022  0.00  0.00    +0.000 OA
ATOM      6  C   UNL     1       1.229   4.368  19.397  0.00  0.00    +0.000 A 
ATOM      7  C   UNL     1       1.015   2.973  19.500  0.00  0.00    +0.000 A 
ATOM      8  C   UNL     1       1.704   2.294  20.470  0.00  0.00    +0.000 A 
ATOM      9  C   UNL     1       2.534   3.023  21.330  0.00  0.00    +0.000 A 
ATOM     10  C   UNL     1       2.563   4.463  21.330  0.00  0.00    +0.000 A 
ATOM     11  C   UNL     1       1.829   5.207  20.397  0.00  0.00    +0.000 A 
ENDROOT
BRANCH   3  12
ATOM     12  C   UNL     1       3.911   5.250  18.106  0.00  0.00    +0.000 A 
ATOM     13  C   UNL     1       4.660   5.579  19.243  0.00  0.00    +0.000 A 
ATOM     14  C   UNL     1       6.041   5.326  19.274  0.00  0.00    +0.000 A 
ATOM     15  C   UNL     1       6.686   4.740  18.180  0.00  0.00    +0.000 A 
ATOM     16  C   UNL     1       5.957   4.362  17.058  0.00  0.00    +0.000 A 
ATOM     17  C   UNL     1       4.579   4.576  17.049  0.00  0.00    +0.000 A 
BRANCH  16  18
ATOM     18  O   UNL     1       6.693   3.839  16.029  0.00  0.00    +0.000 OA
ATOM     19  C   UNL     1       6.825   4.634  14.854  0.00  0.00    +0.000 C 
ENDBRANCH  16  18
ENDBRANCH   3  12
BRANCH   1  21
ATOM     20  N   UNL     1       1.253   9.239  19.878  0.00  0.00    +0.000 N 
ATOM     21  C   UNL     1       1.662   8.103  20.557  0.00  0.00    +0.000 C 
ATOM     22  O   UNL     1       1.739   8.224  21.792  0.00  0.00    +0.000 OA
ATOM     23  H   UNL     1       0.950   9.183  18.918  0.00  0.00    +0.000 HD
BRANCH  20  24
ATOM     24  C   UNL     1       0.711  10.360  20.721  0.00  0.00    +0.000 C 
BRANCH  24  28
ATOM     25  C   UNL     1      -3.114  12.327  19.863  0.00  0.00    +0.000 A 
ATOM     26  C   UNL     1      -2.539  12.391  21.130  0.00  0.00    +0.000 A 
ATOM     27  C   UNL     1      -1.323  11.739  21.403  0.00  0.00    +0.000 A 
ATOM     28  C   UNL     1      -0.671  10.945  20.421  0.00  0.00    +0.000 A 
ATOM     29  C   UNL     1      -1.246  10.905  19.152  0.00  0.00    +0.000 A 
ATOM     30  C   UNL     1      -2.461  11.581  18.879  0.00  0.00    +0.000 A 
BRANCH  25  32
ATOM     31  C   UNL     1      -5.435  12.465  20.403  0.00  0.00    +0.000 C 
ATOM     32  O   UNL     1      -4.297  12.999  19.730  0.00  0.00    +0.000 OA
ENDBRANCH  25  32
ENDBRANCH  24  28
ENDBRANCH  20  24
ENDBRANCH   1  21
TORSDOF 6
ENDMDL
MODEL 8
REMARK VINA RESULT:      -8.3      2.212      2.641
REMARK  Name = 
REMARK  8 active torsions:
REMARK  status: ('A' for Active; 'I' for Inactive)
REMARK    1  A    between atoms: C_1  and  O_2
REMARK    2  A    between atoms: O_2  and  C_3
REMARK    3  A    between atoms: C_6  and  C_7
REMARK    4  A    between atoms: C_7  and  N_8
REMARK    5  A    between atoms: C_9  and  C_11
REMARK    6  A    between atoms: N_13  and  C_14
REMARK    7  A    between atoms: C_18  and  O_19
REMARK    8  A    between atoms: O_19  and  C_20
REMARK                            x       y       z     vdW  Elec       q    Type
REMARK                         _______ _______ _______ _____ _____    ______ ____
ROOT
ATOM      1  C   UNL     1       1.925   6.661  19.937  0.00  0.00    +0.000 A 
ATOM      2  C   UNL     1       2.189   6.766  18.613  0.00  0.00    +0.000 A 
ATOM      3  N   UNL     1       2.545   5.652  17.857  0.00  0.00    +0.000 N 
ATOM      4  C   UNL     1       1.524   4.689  17.956  0.00  0.00    +0.000 A 
ATOM      5  O   UNL     1       0.932   4.165  17.019  0.00  0.00    +0.000 OA
ATOM      6  C   UNL     1       1.276   4.312  19.393  0.00  0.00    +0.000 A 
ATOM      7  C   UNL     1       1.091   2.917  19.530  0.00  0.00    +0.000 A 
ATOM      8  C   UNL     1       1.790   2.277  20.520  0.00  0.00    +0.000 A 
ATOM      9  C   UNL     1       2.600   3.045  21.364  0.00  0.00    +0.000 A 
ATOM     10  C   UNL     1       2.598   4.485  21.329  0.00  0.00    +0.000 A 
ATOM     11  C   UNL     1       1.852   5.189  20.375  0.00  0.00    +0.000 A 
ENDROOT
BRANCH   3  12
ATOM     12  C   UNL     1       3.944   5.220  18.092  0.00  0.00    +0.000 A 
ATOM     13  C   UNL     1       4.673   5.575  19.234  0.00  0.00    +0.000 A 
ATOM     14  C   UNL     1       6.059   5.356  19.282  0.00  0.00    +0.000 A 
ATOM     15  C   UNL     1       6.729   4.780  18.198  0.00  0.00    +0.000 A 
ATOM     16  C   UNL     1       6.022   4.377  17.071  0.00  0.00    +0.000 A 
ATOM     17  C   UNL     1       4.640   4.556  17.046  0.00  0.00    +0.000 A 
BRANCH  16  18
ATOM     18  O   UNL     1       6.782   3.866  16.054  0.00  0.00    +0.000 OA
ATOM     19  C   UNL     1       6.272   4.001  14.730  0.00  0.00    +0.000 C 
ENDBRANCH  16  18
ENDBRANCH   3  12
BRANCH   1  21
ATOM     20  N   UNL     1       1.377   9.239  19.737  0.00  0.00    +0.000 N 
ATOM     21  C   UNL     1       1.622   8.084  20.461  0.00  0.00    +0.000 C 
ATOM     22  O   UNL     1       1.497   8.196  21.693  0.00  0.00    +0.000 OA
ATOM     23  H   UNL     1       1.236   9.199  18.740  0.00  0.00    +0.000 HD
BRANCH  20  24
ATOM     24  C   UNL     1       0.747  10.377  20.491  0.00  0.00    +0.000 C 
BRANCH  24  28
ATOM     25  C   UNL     1       1.478  14.502  19.193  0.00  0.00    +0.000 A 
ATOM     26  C   UNL     1       1.893  13.419  18.420  0.00  0.00    +0.000 A 
ATOM     27  C   UNL     1       1.674  12.100  18.854  0.00  0.00    +0.000 A 
ATOM     28  C   UNL     1       1.081  11.822  20.116  0.00  0.00    +0.000 A 
ATOM     29  C   UNL     1       0.654  12.915  20.870  0.00  0.00    +0.000 A 
ATOM     30  C   UNL     1       0.860  14.240  20.417  0.00  0.00    +0.000 A 
BRANCH  25  32
ATOM     31  C   UNL     1       2.985  15.878  17.953  0.00  0.00    +0.000 C 
ATOM     32  O   UNL     1       1.755  15.731  18.660  0.00  0.00    +0.000 OA
ENDBRANCH  25  32
ENDBRANCH  24  28
ENDBRANCH  20  24
ENDBRANCH   1  21
TORSDOF 6
ENDMDL
MODEL 9
REMARK VINA RESULT:      -8.3      1.715      2.215
REMARK  Name = 
REMARK  8 active torsions:
REMARK  status: ('A' for Active; 'I' for Inactive)
REMARK    1  A    between atoms: C_1  and  O_2
REMARK    2  A    between atoms: O_2  and  C_3
REMARK    3  A    between atoms: C_6  and  C_7
REMARK    4  A    between atoms: C_7  and  N_8
REMARK    5  A    between atoms: C_9  and  C_11
REMARK    6  A    between atoms: N_13  and  C_14
REMARK    7  A    between atoms: C_18  and  O_19
REMARK    8  A    between atoms: O_19  and  C_20
REMARK                            x       y       z     vdW  Elec       q    Type
REMARK                         _______ _______ _______ _____ _____    ______ ____
ROOT
ATOM      1  C   UNL     1       1.917   6.630  19.973  0.00  0.00    +0.000 A 
ATOM      2  C   UNL     1       2.186   6.760  18.652  0.00  0.00    +0.000 A 
ATOM      3  N   UNL     1       2.555   5.662  17.879  0.00  0.00    +0.000 N 
ATOM      4  C   UNL     1       1.543   4.688  17.956  0.00  0.00    +0.000 A 
ATOM      5  O   UNL     1       0.959   4.176  17.008  0.00  0.00    +0.000 OA
ATOM      6  C   UNL     1       1.290   4.285  19.386  0.00  0.00    +0.000 A 
ATOM      7  C   UNL     1       1.117   2.886  19.498  0.00  0.00    +0.000 A 
ATOM      8  C   UNL     1       1.817   2.235  20.480  0.00  0.00    +0.000 A 
ATOM      9  C   UNL     1       2.616   2.995  21.341  0.00  0.00    +0.000 A 
ATOM     10  C   UNL     1       2.602   4.436  21.330  0.00  0.00    +0.000 A 
ATOM     11  C   UNL     1       1.855   5.150  20.385  0.00  0.00    +0.000 A 
ENDROOT
BRANCH   3  12
ATOM     12  C   UNL     1       3.957   5.238  18.113  0.00  0.00    +0.000 A 
ATOM     13  C   UNL     1       4.679   5.584  19.262  0.00  0.00    +0.000 A 
ATOM     14  C   UNL     1       6.067   5.375  19.312  0.00  0.00    +0.000 A 
ATOM     15  C   UNL     1       6.745   4.818  18.223  0.00  0.00    +0.000 A 
ATOM     16  C   UNL     1       6.045   4.423  17.089  0.00  0.00    +0.000 A 
ATOM     17  C   UNL     1       4.661   4.593  17.061  0.00  0.00    +0.000 A 
BRANCH  16  18
ATOM     18  O   UNL     1       6.812   3.931  16.067  0.00  0.00    +0.000 OA
ATOM     19  C   UNL     1       6.228   3.909  14.768  0.00  0.00    +0.000 C 
ENDBRANCH  16  18
ENDBRANCH   3  12
BRANCH   1  21
ATOM     20  N   UNL     1       1.311   9.197  19.815  0.00  0.00    +0.000 N 
ATOM     21  C   UNL     1       1.599   8.041  20.520  0.00  0.00    +0.000 C 
ATOM     22  O   UNL     1       1.506   8.138  21.756  0.00  0.00    +0.000 OA
ATOM     23  H   UNL     1       1.144   9.165  18.821  0.00  0.00    +0.000 HD
BRANCH  20  24
ATOM     24  C   UNL     1       0.678  10.315  20.597  0.00  0.00    +0.000 C 
BRANCH  24  28
ATOM     25  C   UNL     1       0.013  14.330  18.963  0.00  0.00    +0.000 A 
ATOM     26  C   UNL     1      -0.901  13.748  19.839  0.00  0.00    +0.000 A 
ATOM     27  C   UNL     1      -0.690  12.451  20.341  0.00  0.00    +0.000 A 
ATOM     28  C   UNL     1       0.421  11.667  19.929  0.00  0.00    +0.000 A 
ATOM     29  C   UNL     1       1.337  12.269  19.068  0.00  0.00    +0.000 A 
ATOM     30  C   UNL     1       1.129  13.583  18.582  0.00  0.00    +0.000 A 
BRANCH  25  32
ATOM     31  C   UNL     1       0.552  16.656  18.943  0.00  0.00    +0.000 C 
ATOM     32  O   UNL     1      -0.310  15.592  18.545  0.00  0.00    +0.000 OA
ENDBRANCH  25  32
ENDBRANCH  24  28
ENDBRANCH  20  24
ENDBRANCH   1  21
TORSDOF 6
ENDMDL
