MODEL 1
REMARK VINA RESULT:      -7.7      0.000      0.000
REMARK  Name = 
REMARK  2 active torsions:
REMARK  status: ('A' for Active; 'I' for Inactive)
REMARK    1  A    between atoms: C_10  and  S_11
REMARK    2  A    between atoms: S_11  and  C_14
REMARK                            x       y       z     vdW  Elec       q    Type
REMARK                         _______ _______ _______ _____ _____    ______ ____
ROOT
ATOM      1  O   UNL     1       4.275   2.214  20.408  0.00  0.00    +0.000 OA
ATOM      2  C   UNL     1       4.587   2.905  19.453  0.00  0.00    +0.000 C 
ATOM      3  N   UNL     1       5.585   3.873  19.471  0.00  0.00    +0.000 N 
ATOM      4  C   UNL     1       5.777   4.419  18.214  0.00  0.00    +0.000 A 
ATOM      5  C   UNL     1       6.707   5.371  17.849  0.00  0.00    +0.000 A 
ATOM      6  C   UNL     1       6.740   5.744  16.505  0.00  0.00    +0.000 A 
ATOM      7  C   UNL     1       5.856   5.166  15.576  0.00  0.00    +0.000 A 
ATOM      8  C   UNL     1       4.921   4.203  15.974  0.00  0.00    +0.000 A 
ATOM      9  C   UNL     1       4.889   3.839  17.309  0.00  0.00    +0.000 A 
ATOM     10  C   UNL     1       4.037   2.827  18.036  0.00  0.00    +0.000 C 
ATOM     11  H   UNL     1       6.114   4.108  20.300  0.00  0.00    +0.000 HD
ENDROOT
BRANCH  10  12
ATOM     12  S   UNL     1       2.340   3.319  17.989  0.00  0.00    +0.000 S 
ATOM     13  O   UNL     1       1.915   3.520  16.617  0.00  0.00    +0.000 OA
ATOM     14  O   UNL     1       1.593   2.407  18.846  0.00  0.00    +0.000 OA
BRANCH  12  15
ATOM     15  C   UNL     1       2.259   4.907  18.799  0.00  0.00    +0.000 A 
ATOM     16  C   UNL     1       2.529   6.070  18.070  0.00  0.00    +0.000 A 
ATOM     17  C   UNL     1       2.460   7.310  18.704  0.00  0.00    +0.000 A 
ATOM     18  C   UNL     1       2.078   7.392  20.043  0.00  0.00    +0.000 A 
ATOM     19  C   UNL     1       1.765   6.233  20.755  0.00  0.00    +0.000 A 
ATOM     20  C   UNL     1       1.856   4.986  20.136  0.00  0.00    +0.000 A 
ENDBRANCH  12  15
ENDBRANCH  10  12
TORSDOF 2
ENDMDL
MODEL 2
REMARK VINA RESULT:      -7.7      0.098      1.116
REMARK  Name = 
REMARK  2 active torsions:
REMARK  status: ('A' for Active; 'I' for Inactive)
REMARK    1  A    between atoms: C_10  and  S_11
REMARK    2  A    between atoms: S_11  and  C_14
REMARK                            x       y       z     vdW  Elec       q    Type
REMARK                         _______ _______ _______ _____ _____    ______ ____
ROOT
ATOM      1  O   UNL     1       4.347   2.243  20.415  0.00  0.00    +0.000 OA
ATOM      2  C   UNL     1       4.632   2.952  19.466  0.00  0.00    +0.000 C 
ATOM      3  N   UNL     1       5.585   3.965  19.495  0.00  0.00    +0.000 N 
ATOM      4  C   UNL     1       5.760   4.525  18.242  0.00  0.00    +0.000 A 
ATOM      5  C   UNL     1       6.647   5.520  17.887  0.00  0.00    +0.000 A 
ATOM      6  C   UNL     1       6.672   5.901  16.544  0.00  0.00    +0.000 A 
ATOM      7  C   UNL     1       5.820   5.288  15.608  0.00  0.00    +0.000 A 
ATOM      8  C   UNL     1       4.928   4.281  15.996  0.00  0.00    +0.000 A 
ATOM      9  C   UNL     1       4.905   3.909  17.328  0.00  0.00    +0.000 A 
ATOM     10  C   UNL     1       4.095   2.857  18.045  0.00  0.00    +0.000 C 
ATOM     11  H   UNL     1       6.097   4.220  20.328  0.00  0.00    +0.000 HD
ENDROOT
BRANCH  10  12
ATOM     12  S   UNL     1       2.377   3.271  17.990  0.00  0.00    +0.000 S 
ATOM     13  O   UNL     1       1.950   3.451  16.616  0.00  0.00    +0.000 OA
ATOM     14  O   UNL     1       1.668   2.326  18.843  0.00  0.00    +0.000 OA
BRANCH  12  15
ATOM     15  C   UNL     1       2.221   4.854  18.798  0.00  0.00    +0.000 A 
ATOM     16  C   UNL     1       1.848   4.908  20.145  0.00  0.00    +0.000 A 
ATOM     17  C   UNL     1       1.731   6.147  20.777  0.00  0.00    +0.000 A 
ATOM     18  C   UNL     1       2.031   7.318  20.080  0.00  0.00    +0.000 A 
ATOM     19  C   UNL     1       2.446   7.257  18.750  0.00  0.00    +0.000 A 
ATOM     20  C   UNL     1       2.541   6.024  18.103  0.00  0.00    +0.000 A 
ENDBRANCH  12  15
ENDBRANCH  10  12
TORSDOF 2
ENDMDL
MODEL 3
REMARK VINA RESULT:      -7.4      2.330      3.122
REMARK  Name = 
REMARK  2 active torsions:
REMARK  status: ('A' for Active; 'I' for Inactive)
REMARK    1  A    between atoms: C_10  and  S_11
REMARK    2  A    between atoms: S_11  and  C_14
REMARK                            x       y       z     vdW  Elec       q    Type
REMARK                         _______ _______ _______ _____ _____    ______ ____
ROOT
ATOM      1  O   UNL     1       7.051   5.255  19.830  0.00  0.00    +0.000 OA
ATOM      2  C   UNL     1       6.745   5.094  18.661  0.00  0.00    +0.000 C 
ATOM      3  N   UNL     1       7.563   5.406  17.580  0.00  0.00    +0.000 N 
ATOM      4  C   UNL     1       6.984   5.018  16.385  0.00  0.00    +0.000 A 
ATOM      5  C   UNL     1       7.521   5.130  15.120  0.00  0.00    +0.000 A 
ATOM      6  C   UNL     1       6.764   4.630  14.060  0.00  0.00    +0.000 A 
ATOM      7  C   UNL     1       5.506   4.044  14.289  0.00  0.00    +0.000 A 
ATOM      8  C   UNL     1       4.983   3.944  15.584  0.00  0.00    +0.000 A 
ATOM      9  C   UNL     1       5.737   4.443  16.631  0.00  0.00    +0.000 A 
ATOM     10  C   UNL     1       5.472   4.461  18.117  0.00  0.00    +0.000 C 
ATOM     11  H   UNL     1       8.474   5.831  17.680  0.00  0.00    +0.000 HD
ENDROOT
BRANCH  10  12
ATOM     12  S   UNL     1       4.064   5.469  18.471  0.00  0.00    +0.000 S 
ATOM     13  O   UNL     1       4.316   6.288  19.641  0.00  0.00    +0.000 OA
ATOM     14  O   UNL     1       3.653   6.106  17.225  0.00  0.00    +0.000 OA
BRANCH  12  15
ATOM     15  C   UNL     1       2.741   4.348  18.892  0.00  0.00    +0.000 A 
ATOM     16  C   UNL     1       2.448   3.276  18.043  0.00  0.00    +0.000 A 
ATOM     17  C   UNL     1       1.417   2.397  18.377  0.00  0.00    +0.000 A 
ATOM     18  C   UNL     1       0.717   2.562  19.573  0.00  0.00    +0.000 A 
ATOM     19  C   UNL     1       1.044   3.606  20.439  0.00  0.00    +0.000 A 
ATOM     20  C   UNL     1       2.056   4.504  20.101  0.00  0.00    +0.000 A 
ENDBRANCH  12  15
ENDBRANCH  10  12
TORSDOF 2
ENDMDL
MODEL 4
REMARK VINA RESULT:      -7.3      2.332      3.193
REMARK  Name = 
REMARK  2 active torsions:
REMARK  status: ('A' for Active; 'I' for Inactive)
REMARK    1  A    between atoms: C_10  and  S_11
REMARK    2  A    between atoms: S_11  and  C_14
REMARK                            x       y       z     vdW  Elec       q    Type
REMARK                         _______ _______ _______ _____ _____    ______ ____
ROOT
ATOM      1  O   UNL     1       7.090   5.088  19.840  0.00  0.00    +0.000 OA
ATOM      2  C   UNL     1       6.767   4.963  18.671  0.00  0.00    +0.000 C 
ATOM      3  N   UNL     1       7.583   5.277  17.589  0.00  0.00    +0.000 N 
ATOM      4  C   UNL     1       6.980   4.934  16.391  0.00  0.00    +0.000 A 
ATOM      5  C   UNL     1       7.508   5.061  15.123  0.00  0.00    +0.000 A 
ATOM      6  C   UNL     1       6.725   4.609  14.060  0.00  0.00    +0.000 A 
ATOM      7  C   UNL     1       5.453   4.055  14.289  0.00  0.00    +0.000 A 
ATOM      8  C   UNL     1       4.940   3.940  15.587  0.00  0.00    +0.000 A 
ATOM      9  C   UNL     1       5.719   4.391  16.637  0.00  0.00    +0.000 A 
ATOM     10  C   UNL     1       5.470   4.382  18.126  0.00  0.00    +0.000 C 
ATOM     11  H   UNL     1       8.507   5.672  17.688  0.00  0.00    +0.000 HD
ENDROOT
BRANCH  10  12
ATOM     12  S   UNL     1       4.096   5.422  18.518  0.00  0.00    +0.000 S 
ATOM     13  O   UNL     1       4.405   6.244  19.672  0.00  0.00    +0.000 OA
ATOM     14  O   UNL     1       3.657   6.057  17.282  0.00  0.00    +0.000 OA
BRANCH  12  15
ATOM     15  C   UNL     1       2.766   4.332  18.994  0.00  0.00    +0.000 A 
ATOM     16  C   UNL     1       2.198   4.449  20.266  0.00  0.00    +0.000 A 
ATOM     17  C   UNL     1       1.155   3.599  20.634  0.00  0.00    +0.000 A 
ATOM     18  C   UNL     1       0.651   2.673  19.720  0.00  0.00    +0.000 A 
ATOM     19  C   UNL     1       1.190   2.592  18.435  0.00  0.00    +0.000 A 
ATOM     20  C   UNL     1       2.251   3.420  18.068  0.00  0.00    +0.000 A 
ENDBRANCH  12  15
ENDBRANCH  10  12
TORSDOF 2
ENDMDL
MODEL 5
REMARK VINA RESULT:      -7.3      2.086      4.711
REMARK  Name = 
REMARK  2 active torsions:
REMARK  status: ('A' for Active; 'I' for Inactive)
REMARK    1  A    between atoms: C_10  and  S_11
REMARK    2  A    between atoms: S_11  and  C_14
REMARK                            x       y       z     vdW  Elec       q    Type
REMARK                         _______ _______ _______ _____ _____    ______ ____
ROOT
ATOM      1  O   UNL     1       4.247   0.901  17.655  0.00  0.00    +0.000 OA
ATOM      2  C   UNL     1       3.703   1.843  18.206  0.00  0.00    +0.000 C 
ATOM      3  N   UNL     1       2.383   1.845  18.644  0.00  0.00    +0.000 N 
ATOM      4  C   UNL     1       2.082   3.014  19.320  0.00  0.00    +0.000 A 
ATOM      5  C   UNL     1       0.888   3.346  19.927  0.00  0.00    +0.000 A 
ATOM      6  C   UNL     1       0.829   4.574  20.587  0.00  0.00    +0.000 A 
ATOM      7  C   UNL     1       1.948   5.427  20.619  0.00  0.00    +0.000 A 
ATOM      8  C   UNL     1       3.147   5.066  19.993  0.00  0.00    +0.000 A 
ATOM      9  C   UNL     1       3.199   3.849  19.338  0.00  0.00    +0.000 A 
ATOM     10  C   UNL     1       4.331   3.170  18.605  0.00  0.00    +0.000 C 
ATOM     11  H   UNL     1       1.752   1.068  18.507  0.00  0.00    +0.000 HD
ENDROOT
BRANCH  10  12
ATOM     12  S   UNL     1       4.782   4.111  17.179  0.00  0.00    +0.000 S 
ATOM     13  O   UNL     1       5.391   3.250  16.184  0.00  0.00    +0.000 OA
ATOM     14  O   UNL     1       3.635   4.932  16.812  0.00  0.00    +0.000 OA
BRANCH  12  15
ATOM     15  C   UNL     1       6.038   5.259  17.717  0.00  0.00    +0.000 A 
ATOM     16  C   UNL     1       6.845   4.938  18.813  0.00  0.00    +0.000 A 
ATOM     17  C   UNL     1       7.829   5.834  19.228  0.00  0.00    +0.000 A 
ATOM     18  C   UNL     1       8.038   7.021  18.524  0.00  0.00    +0.000 A 
ATOM     19  C   UNL     1       7.261   7.316  17.403  0.00  0.00    +0.000 A 
ATOM     20  C   UNL     1       6.257   6.437  16.996  0.00  0.00    +0.000 A 
ENDBRANCH  12  15
ENDBRANCH  10  12
TORSDOF 2
ENDMDL
MODEL 6
REMARK VINA RESULT:      -7.2      2.066      4.594
REMARK  Name = 
REMARK  2 active torsions:
REMARK  status: ('A' for Active; 'I' for Inactive)
REMARK    1  A    between atoms: C_10  and  S_11
REMARK    2  A    between atoms: S_11  and  C_14
REMARK                            x       y       z     vdW  Elec       q    Type
REMARK                         _______ _______ _______ _____ _____    ______ ____
ROOT
ATOM      1  O   UNL     1       4.245   0.935  17.711  0.00  0.00    +0.000 OA
ATOM      2  C   UNL     1       3.699   1.884  18.247  0.00  0.00    +0.000 C 
ATOM      3  N   UNL     1       2.379   1.891  18.686  0.00  0.00    +0.000 N 
ATOM      4  C   UNL     1       2.076   3.070  19.343  0.00  0.00    +0.000 A 
ATOM      5  C   UNL     1       0.882   3.409  19.945  0.00  0.00    +0.000 A 
ATOM      6  C   UNL     1       0.822   4.648  20.585  0.00  0.00    +0.000 A 
ATOM      7  C   UNL     1       1.938   5.504  20.602  0.00  0.00    +0.000 A 
ATOM      8  C   UNL     1       3.138   5.135  19.982  0.00  0.00    +0.000 A 
ATOM      9  C   UNL     1       3.192   3.907  19.346  0.00  0.00    +0.000 A 
ATOM     10  C   UNL     1       4.325   3.219  18.624  0.00  0.00    +0.000 C 
ATOM     11  H   UNL     1       1.750   1.110  18.562  0.00  0.00    +0.000 HD
ENDROOT
BRANCH  10  12
ATOM     12  S   UNL     1       4.772   4.138  17.182  0.00  0.00    +0.000 S 
ATOM     13  O   UNL     1       5.344   3.254  16.184  0.00  0.00    +0.000 OA
ATOM     14  O   UNL     1       3.639   4.983  16.828  0.00  0.00    +0.000 OA
BRANCH  12  15
ATOM     15  C   UNL     1       6.064   5.260  17.688  0.00  0.00    +0.000 A 
ATOM     16  C   UNL     1       6.243   6.464  16.999  0.00  0.00    +0.000 A 
ATOM     17  C   UNL     1       7.250   7.342  17.400  0.00  0.00    +0.000 A 
ATOM     18  C   UNL     1       8.041   7.041  18.509  0.00  0.00    +0.000 A 
ATOM     19  C   UNL     1       7.829   5.860  19.221  0.00  0.00    +0.000 A 
ATOM     20  C   UNL     1       6.841   4.963  18.812  0.00  0.00    +0.000 A 
ENDBRANCH  12  15
ENDBRANCH  10  12
TORSDOF 2
ENDMDL
MODEL 7
REMARK VINA RESULT:      -7.2      2.630      4.945
REMARK  Name = 
REMARK  2 active torsions:
REMARK  status: ('A' for Active; 'I' for Inactive)
REMARK    1  A    between atoms: C_10  and  S_11
REMARK    2  A    between atoms: S_11  and  C_14
REMARK                            x       y       z     vdW  Elec       q    Type
REMARK                         _______ _______ _______ _____ _____    ______ ____
ROOT
ATOM      1  O   UNL     1       6.947   5.205  19.678  0.00  0.00    +0.000 OA
ATOM      2  C   UNL     1       5.881   4.828  19.221  0.00  0.00    +0.000 C 
ATOM      3  N   UNL     1       5.539   3.496  19.013  0.00  0.00    +0.000 N 
ATOM      4  C   UNL     1       4.230   3.377  18.581  0.00  0.00    +0.000 A 
ATOM      5  C   UNL     1       3.539   2.213  18.316  0.00  0.00    +0.000 A 
ATOM      6  C   UNL     1       2.205   2.339  17.925  0.00  0.00    +0.000 A 
ATOM      7  C   UNL     1       1.607   3.607  17.809  0.00  0.00    +0.000 A 
ATOM      8  C   UNL     1       2.332   4.773  18.083  0.00  0.00    +0.000 A 
ATOM      9  C   UNL     1       3.655   4.643  18.466  0.00  0.00    +0.000 A 
ATOM     10  C   UNL     1       4.678   5.684  18.852  0.00  0.00    +0.000 C 
ATOM     11  H   UNL     1       6.169   2.727  19.194  0.00  0.00    +0.000 HD
ENDROOT
BRANCH  10  12
ATOM     12  S   UNL     1       5.040   6.721  17.468  0.00  0.00    +0.000 S 
ATOM     13  O   UNL     1       3.825   7.345  16.980  0.00  0.00    +0.000 OA
ATOM     14  O   UNL     1       6.180   7.555  17.829  0.00  0.00    +0.000 OA
BRANCH  12  15
ATOM     15  C   UNL     1       5.628   5.641  16.176  0.00  0.00    +0.000 A 
ATOM     16  C   UNL     1       4.709   4.965  15.368  0.00  0.00    +0.000 A 
ATOM     17  C   UNL     1       5.171   4.124  14.355  0.00  0.00    +0.000 A 
ATOM     18  C   UNL     1       6.541   3.998  14.121  0.00  0.00    +0.000 A 
ATOM     19  C   UNL     1       7.454   4.710  14.900  0.00  0.00    +0.000 A 
ATOM     20  C   UNL     1       7.001   5.533  15.932  0.00  0.00    +0.000 A 
ENDBRANCH  12  15
ENDBRANCH  10  12
TORSDOF 2
ENDMDL
MODEL 8
REMARK VINA RESULT:      -7.1      1.797      2.529
REMARK  Name = 
REMARK  2 active torsions:
REMARK  status: ('A' for Active; 'I' for Inactive)
REMARK    1  A    between atoms: C_10  and  S_11
REMARK    2  A    between atoms: S_11  and  C_14
REMARK                            x       y       z     vdW  Elec       q    Type
REMARK                         _______ _______ _______ _____ _____    ______ ____
ROOT
ATOM      1  O   UNL     1       3.563   1.882  17.912  0.00  0.00    +0.000 OA
ATOM      2  C   UNL     1       4.106   2.973  17.860  0.00  0.00    +0.000 C 
ATOM      3  N   UNL     1       5.329   3.275  18.451  0.00  0.00    +0.000 N 
ATOM      4  C   UNL     1       5.735   4.559  18.133  0.00  0.00    +0.000 A 
ATOM      5  C   UNL     1       6.908   5.182  18.506  0.00  0.00    +0.000 A 
ATOM      6  C   UNL     1       7.120   6.476  18.030  0.00  0.00    +0.000 A 
ATOM      7  C   UNL     1       6.166   7.107  17.211  0.00  0.00    +0.000 A 
ATOM      8  C   UNL     1       4.983   6.452  16.849  0.00  0.00    +0.000 A 
ATOM      9  C   UNL     1       4.776   5.170  17.325  0.00  0.00    +0.000 A 
ATOM     10  C   UNL     1       3.638   4.204  17.096  0.00  0.00    +0.000 C 
ATOM     11  H   UNL     1       5.852   2.616  19.009  0.00  0.00    +0.000 HD
ENDROOT
BRANCH  10  12
ATOM     12  S   UNL     1       2.146   4.848  17.790  0.00  0.00    +0.000 S 
ATOM     13  O   UNL     1       2.260   6.282  17.978  0.00  0.00    +0.000 OA
ATOM     14  O   UNL     1       1.033   4.312  17.017  0.00  0.00    +0.000 OA
BRANCH  12  15
ATOM     15  C   UNL     1       1.995   4.119  19.412  0.00  0.00    +0.000 A 
ATOM     16  C   UNL     1       2.718   4.655  20.481  0.00  0.00    +0.000 A 
ATOM     17  C   UNL     1       2.595   4.087  21.749  0.00  0.00    +0.000 A 
ATOM     18  C   UNL     1       1.719   3.020  21.955  0.00  0.00    +0.000 A 
ATOM     19  C   UNL     1       0.964   2.517  20.895  0.00  0.00    +0.000 A 
ATOM     20  C   UNL     1       1.101   3.063  19.618  0.00  0.00    +0.000 A 
ENDBRANCH  12  15
ENDBRANCH  10  12
TORSDOF 2
ENDMDL
MODEL 9
REMARK VINA RESULT:      -7.1      2.526      3.629
REMARK  Name = 
REMARK  2 active torsions:
REMARK  status: ('A' for Active; 'I' for Inactive)
REMARK    1  A    between atoms: C_10  and  S_11
REMARK    2  A    between atoms: S_11  and  C_14
REMARK                            x       y       z     vdW  Elec       q    Type
REMARK                         _______ _______ _______ _____ _____    ______ ____
ROOT
ATOM      1  O   UNL     1       7.788   5.721  19.129  0.00  0.00    +0.000 OA
ATOM      2  C   UNL     1       7.278   5.383  18.075  0.00  0.00    +0.000 C 
ATOM      3  N   UNL     1       7.792   5.684  16.817  0.00  0.00    +0.000 N 
ATOM      4  C   UNL     1       7.051   5.080  15.816  0.00  0.00    +0.000 A 
ATOM      5  C   UNL     1       7.290   5.122  14.458  0.00  0.00    +0.000 A 
ATOM      6  C   UNL     1       6.424   4.400  13.637  0.00  0.00    +0.000 A 
ATOM      7  C   UNL     1       5.355   3.668  14.187  0.00  0.00    +0.000 A 
ATOM      8  C   UNL     1       5.135   3.644  15.570  0.00  0.00    +0.000 A 
ATOM      9  C   UNL     1       5.995   4.364  16.379  0.00  0.00    +0.000 A 
ATOM     10  C   UNL     1       6.043   4.515  17.880  0.00  0.00    +0.000 C 
ATOM     11  H   UNL     1       8.621   6.244  16.677  0.00  0.00    +0.000 HD
ENDROOT
BRANCH  10  12
ATOM     12  S   UNL     1       4.592   5.343  18.454  0.00  0.00    +0.000 S 
ATOM     13  O   UNL     1       4.785   5.806  19.815  0.00  0.00    +0.000 OA
ATOM     14  O   UNL     1       4.189   6.292  17.424  0.00  0.00    +0.000 OA
BRANCH  12  15
ATOM     15  C   UNL     1       3.301   4.111  18.500  0.00  0.00    +0.000 A 
ATOM     16  C   UNL     1       3.586   2.829  18.979  0.00  0.00    +0.000 A 
ATOM     17  C   UNL     1       2.574   1.869  19.019  0.00  0.00    +0.000 A 
ATOM     18  C   UNL     1       1.277   2.203  18.627  0.00  0.00    +0.000 A 
ATOM     19  C   UNL     1       0.987   3.497  18.193  0.00  0.00    +0.000 A 
ATOM     20  C   UNL     1       1.998   4.456  18.125  0.00  0.00    +0.000 A 
ENDBRANCH  12  15
ENDBRANCH  10  12
TORSDOF 2
ENDMDL
