MODEL 1
REMARK VINA RESULT:      -8.2      0.000      0.000
REMARK  Name = 
REMARK  9 active torsions:
REMARK  status: ('A' for Active; 'I' for Inactive)
REMARK    1  A    between atoms: C_1  and  C_2
REMARK    2  A    between atoms: C_5  and  S_6
REMARK    3  A    between atoms: S_6  and  C_7
REMARK    4  A    between atoms: C_7  and  C_8
REMARK    5  A    between atoms: C_8  and  C_9
REMARK    6  A    between atoms: C_8  and  N_15
REMARK    7  A    between atoms: N_18  and  C_19
REMARK    8  A    between atoms: C_19  and  C_20
REMARK    9  A    between atoms: C_20  and  C_21
REMARK                            x       y       z     vdW  Elec       q    Type
REMARK                         _______ _______ _______ _____ _____    ______ ____
ROOT
ATOM      1  C   UNL     1       3.612   6.246  18.741  0.00  0.00    +0.000 C 
ENDROOT
BRANCH   1   2
ATOM      2  N   UNL     1       2.443   7.028  19.209  0.00  0.00    +0.000 N 
ATOM      3  C   UNL     1       1.728   7.894  18.263  0.00  0.00    +0.000 C 
ATOM      4  C   UNL     1       1.760   9.390  18.627  0.00  0.00    +0.000 C 
ATOM      5  N   UNL     1       0.879   9.804  19.734  0.00  0.00    +0.000 NA
ATOM      6  C   UNL     1       1.312   9.165  20.984  0.00  0.00    +0.000 C 
ATOM      7  C   UNL     1       0.969   7.688  21.128  0.00  0.00    +0.000 C 
ATOM      8  C   UNL     1       1.950   6.744  20.473  0.00  0.00    +0.000 C 
ATOM      9  O   UNL     1       2.292   5.736  21.104  0.00  0.00    +0.000 OA
BRANCH   5  10
ATOM     10  C   UNL     1      -0.556   9.640  19.413  0.00  0.00    +0.000 C 
BRANCH  10  11
ATOM     11  C   UNL     1      -1.279  10.954  19.047  0.00  0.00    +0.000 C 
BRANCH  11  12
ATOM     12  C   UNL     1      -2.242  10.822  17.885  0.00  0.00    +0.000 A 
ATOM     13  C   UNL     1      -3.430  11.569  17.875  0.00  0.00    +0.000 A 
ATOM     14  C   UNL     1      -4.302  11.511  16.790  0.00  0.00    +0.000 A 
ATOM     15  C   UNL     1      -4.003  10.707  15.693  0.00  0.00    +0.000 A 
ATOM     16  C   UNL     1      -2.835   9.946  15.699  0.00  0.00    +0.000 A 
ATOM     17  C   UNL     1      -1.961   9.993  16.788  0.00  0.00    +0.000 A 
ENDBRANCH  11  12
ENDBRANCH  10  11
ENDBRANCH   5  10
ENDBRANCH   1   2
BRANCH   1  18
ATOM     18  C   UNL     1       3.289   4.755  18.564  0.00  0.00    +0.000 A 
ATOM     19  C   UNL     1       2.205   4.290  17.805  0.00  0.00    +0.000 A 
ATOM     20  C   UNL     1       1.993   2.919  17.624  0.00  0.00    +0.000 A 
ATOM     21  C   UNL     1       2.849   1.989  18.203  0.00  0.00    +0.000 A 
ATOM     22  C   UNL     1       3.916   2.428  18.982  0.00  0.00    +0.000 A 
ATOM     23  C   UNL     1       4.131   3.793  19.161  0.00  0.00    +0.000 A 
ENDBRANCH   1  18
BRANCH   1  24
ATOM     24  C   UNL     1       4.358   6.856  17.517  0.00  0.00    +0.000 C 
BRANCH  24  25
ATOM     25  S   UNL     1       6.119   6.310  17.436  0.00  0.00    +0.000 S 
BRANCH  25  30
ATOM     26  C   UNL     1       6.246   3.266  12.145  0.00  0.00    +0.000 C 
ATOM     27  C   UNL     1       6.260   3.937  13.486  0.00  0.00    +0.000 A 
ATOM     28  C   UNL     1       7.300   4.795  13.856  0.00  0.00    +0.000 A 
ATOM     29  C   UNL     1       7.247   5.487  15.071  0.00  0.00    +0.000 A 
ATOM     30  C   UNL     1       6.154   5.340  15.935  0.00  0.00    +0.000 A 
ATOM     31  C   UNL     1       5.155   4.425  15.594  0.00  0.00    +0.000 A 
ATOM     32  C   UNL     1       5.205   3.732  14.381  0.00  0.00    +0.000 A 
ENDBRANCH  25  30
ENDBRANCH  24  25
ENDBRANCH   1  24
TORSDOF 8
ENDMDL
MODEL 2
REMARK VINA RESULT:      -7.8      1.317      1.809
REMARK  Name = 
REMARK  9 active torsions:
REMARK  status: ('A' for Active; 'I' for Inactive)
REMARK    1  A    between atoms: C_1  and  C_2
REMARK    2  A    between atoms: C_5  and  S_6
REMARK    3  A    between atoms: S_6  and  C_7
REMARK    4  A    between atoms: C_7  and  C_8
REMARK    5  A    between atoms: C_8  and  C_9
REMARK    6  A    between atoms: C_8  and  N_15
REMARK    7  A    between atoms: N_18  and  C_19
REMARK    8  A    between atoms: C_19  and  C_20
REMARK    9  A    between atoms: C_20  and  C_21
REMARK                            x       y       z     vdW  Elec       q    Type
REMARK                         _______ _______ _______ _____ _____    ______ ____
ROOT
ATOM      1  C   UNL     1       2.938   6.588  19.352  0.00  0.00    +0.000 C 
ENDROOT
BRANCH   1   2
ATOM      2  N   UNL     1       1.931   7.677  19.360  0.00  0.00    +0.000 N 
ATOM      3  C   UNL     1       1.380   8.161  18.088  0.00  0.00    +0.000 C 
ATOM      4  C   UNL     1       1.684   9.640  17.790  0.00  0.00    +0.000 C 
ATOM      5  N   UNL     1       0.897  10.627  18.552  0.00  0.00    +0.000 NA
ATOM      6  C   UNL     1       1.212  10.522  19.983  0.00  0.00    +0.000 C 
ATOM      7  C   UNL     1       0.609   9.327  20.709  0.00  0.00    +0.000 C 
ATOM      8  C   UNL     1       1.400   8.046  20.586  0.00  0.00    +0.000 C 
ATOM      9  O   UNL     1       1.557   7.363  21.605  0.00  0.00    +0.000 OA
BRANCH   5  10
ATOM     10  C   UNL     1      -0.545  10.581  18.225  0.00  0.00    +0.000 C 
BRANCH  10  11
ATOM     11  C   UNL     1      -1.280  11.926  18.403  0.00  0.00    +0.000 C 
BRANCH  11  12
ATOM     12  C   UNL     1      -2.789  11.820  18.308  0.00  0.00    +0.000 A 
ATOM     13  C   UNL     1      -3.587  12.225  19.388  0.00  0.00    +0.000 A 
ATOM     14  C   UNL     1      -4.976  12.194  19.302  0.00  0.00    +0.000 A 
ATOM     15  C   UNL     1      -5.596  11.759  18.133  0.00  0.00    +0.000 A 
ATOM     16  C   UNL     1      -4.815  11.338  17.059  0.00  0.00    +0.000 A 
ATOM     17  C   UNL     1      -3.421  11.357  17.142  0.00  0.00    +0.000 A 
ENDBRANCH  11  12
ENDBRANCH  10  11
ENDBRANCH   5  10
ENDBRANCH   1   2
BRANCH   1  18
ATOM     18  C   UNL     1       2.296   5.194  19.330  0.00  0.00    +0.000 A 
ATOM     19  C   UNL     1       1.842   4.577  18.155  0.00  0.00    +0.000 A 
ATOM     20  C   UNL     1       1.322   3.277  18.183  0.00  0.00    +0.000 A 
ATOM     21  C   UNL     1       1.235   2.577  19.381  0.00  0.00    +0.000 A 
ATOM     22  C   UNL     1       1.654   3.180  20.563  0.00  0.00    +0.000 A 
ATOM     23  C   UNL     1       2.175   4.473  20.537  0.00  0.00    +0.000 A 
ENDBRANCH   1  18
BRANCH   1  24
ATOM     24  C   UNL     1       4.069   6.753  18.293  0.00  0.00    +0.000 C 
BRANCH  24  25
ATOM     25  S   UNL     1       5.395   5.485  18.493  0.00  0.00    +0.000 S 
BRANCH  25  30
ATOM     26  C   UNL     1       6.722   3.786  12.782  0.00  0.00    +0.000 C 
ATOM     27  C   UNL     1       6.365   4.289  14.149  0.00  0.00    +0.000 A 
ATOM     28  C   UNL     1       5.111   4.032  14.711  0.00  0.00    +0.000 A 
ATOM     29  C   UNL     1       4.831   4.425  16.024  0.00  0.00    +0.000 A 
ATOM     30  C   UNL     1       5.797   5.076  16.801  0.00  0.00    +0.000 A 
ATOM     31  C   UNL     1       7.021   5.397  16.209  0.00  0.00    +0.000 A 
ATOM     32  C   UNL     1       7.304   5.005  14.897  0.00  0.00    +0.000 A 
ENDBRANCH  25  30
ENDBRANCH  24  25
ENDBRANCH   1  24
TORSDOF 8
ENDMDL
MODEL 3
REMARK VINA RESULT:      -7.8      2.757      8.687
REMARK  Name = 
REMARK  9 active torsions:
REMARK  status: ('A' for Active; 'I' for Inactive)
REMARK    1  A    between atoms: C_1  and  C_2
REMARK    2  A    between atoms: C_5  and  S_6
REMARK    3  A    between atoms: S_6  and  C_7
REMARK    4  A    between atoms: C_7  and  C_8
REMARK    5  A    between atoms: C_8  and  C_9
REMARK    6  A    between atoms: C_8  and  N_15
REMARK    7  A    between atoms: N_18  and  C_19
REMARK    8  A    between atoms: C_19  and  C_20
REMARK    9  A    between atoms: C_20  and  C_21
REMARK                            x       y       z     vdW  Elec       q    Type
REMARK                         _______ _______ _______ _____ _____    ______ ____
ROOT
ATOM      1  C   UNL     1       2.473   6.189  18.769  0.00  0.00    +0.000 C 
ENDROOT
BRANCH   1   2
ATOM      2  N   UNL     1       3.760   5.995  18.058  0.00  0.00    +0.000 N 
ATOM      3  C   UNL     1       4.472   4.718  18.192  0.00  0.00    +0.000 C 
ATOM      4  C   UNL     1       5.862   4.835  18.843  0.00  0.00    +0.000 C 
ATOM      5  N   UNL     1       6.930   5.388  17.990  0.00  0.00    +0.000 NA
ATOM      6  C   UNL     1       6.624   6.783  17.646  0.00  0.00    +0.000 C 
ATOM      7  C   UNL     1       5.540   6.985  16.596  0.00  0.00    +0.000 C 
ATOM      8  C   UNL     1       4.128   6.956  17.130  0.00  0.00    +0.000 C 
ATOM      9  O   UNL     1       3.336   7.814  16.720  0.00  0.00    +0.000 OA
BRANCH   5  10
ATOM     10  C   UNL     1       7.250   4.516  16.839  0.00  0.00    +0.000 C 
BRANCH  10  11
ATOM     11  C   UNL     1       7.564   5.276  15.533  0.00  0.00    +0.000 C 
BRANCH  11  12
ATOM     12  C   UNL     1       6.917   4.676  14.302  0.00  0.00    +0.000 A 
ATOM     13  C   UNL     1       7.618   4.652  13.086  0.00  0.00    +0.000 A 
ATOM     14  C   UNL     1       7.068   4.052  11.956  0.00  0.00    +0.000 A 
ATOM     15  C   UNL     1       5.808   3.462  12.018  0.00  0.00    +0.000 A 
ATOM     16  C   UNL     1       5.094   3.495  13.215  0.00  0.00    +0.000 A 
ATOM     17  C   UNL     1       5.636   4.104  14.350  0.00  0.00    +0.000 A 
ENDBRANCH  11  12
ENDBRANCH  10  11
ENDBRANCH   5  10
ENDBRANCH   1   2
BRANCH   1  18
ATOM     18  C   UNL     1       2.003   4.919  19.493  0.00  0.00    +0.000 A 
ATOM     19  C   UNL     1       1.294   3.891  18.855  0.00  0.00    +0.000 A 
ATOM     20  C   UNL     1       0.945   2.725  19.546  0.00  0.00    +0.000 A 
ATOM     21  C   UNL     1       1.285   2.570  20.885  0.00  0.00    +0.000 A 
ATOM     22  C   UNL     1       1.965   3.589  21.546  0.00  0.00    +0.000 A 
ATOM     23  C   UNL     1       2.317   4.749  20.857  0.00  0.00    +0.000 A 
ENDBRANCH   1  18
BRANCH   1  24
ATOM     24  C   UNL     1       2.410   7.460  19.668  0.00  0.00    +0.000 C 
BRANCH  24  25
ATOM     25  S   UNL     1       1.570   8.868  18.821  0.00  0.00    +0.000 S 
BRANCH  25  30
ATOM     26  C   UNL     1      -1.552  11.642  23.273  0.00  0.00    +0.000 C 
ATOM     27  C   UNL     1      -0.861  10.899  22.169  0.00  0.00    +0.000 A 
ATOM     28  C   UNL     1      -0.975  11.309  20.838  0.00  0.00    +0.000 A 
ATOM     29  C   UNL     1      -0.245  10.663  19.834  0.00  0.00    +0.000 A 
ATOM     30  C   UNL     1       0.614   9.600  20.142  0.00  0.00    +0.000 A 
ATOM     31  C   UNL     1       0.666   9.147  21.462  0.00  0.00    +0.000 A 
ATOM     32  C   UNL     1      -0.062   9.791  22.467  0.00  0.00    +0.000 A 
ENDBRANCH  25  30
ENDBRANCH  24  25
ENDBRANCH   1  24
TORSDOF 8
ENDMDL
MODEL 4
REMARK VINA RESULT:      -7.8      1.730      2.470
REMARK  Name = 
REMARK  9 active torsions:
REMARK  status: ('A' for Active; 'I' for Inactive)
REMARK    1  A    between atoms: C_1  and  C_2
REMARK    2  A    between atoms: C_5  and  S_6
REMARK    3  A    between atoms: S_6  and  C_7
REMARK    4  A    between atoms: C_7  and  C_8
REMARK    5  A    between atoms: C_8  and  C_9
REMARK    6  A    between atoms: C_8  and  N_15
REMARK    7  A    between atoms: N_18  and  C_19
REMARK    8  A    between atoms: C_19  and  C_20
REMARK    9  A    between atoms: C_20  and  C_21
REMARK                            x       y       z     vdW  Elec       q    Type
REMARK                         _______ _______ _______ _____ _____    ______ ____
ROOT
ATOM      1  C   UNL     1       2.852   6.719  19.308  0.00  0.00    +0.000 C 
ENDROOT
BRANCH   1   2
ATOM      2  N   UNL     1       1.886   7.843  19.356  0.00  0.00    +0.000 N 
ATOM      3  C   UNL     1       1.329   8.371  18.104  0.00  0.00    +0.000 C 
ATOM      4  C   UNL     1       1.681   9.844  17.828  0.00  0.00    +0.000 C 
ATOM      5  N   UNL     1       0.944  10.843  18.624  0.00  0.00    +0.000 NA
ATOM      6  C   UNL     1       1.282  10.699  20.046  0.00  0.00    +0.000 C 
ATOM      7  C   UNL     1       0.650   9.512  20.761  0.00  0.00    +0.000 C 
ATOM      8  C   UNL     1       1.392   8.206  20.599  0.00  0.00    +0.000 C 
ATOM      9  O   UNL     1       1.542   7.498  21.602  0.00  0.00    +0.000 OA
BRANCH   5  10
ATOM     10  C   UNL     1      -0.505  10.856  18.324  0.00  0.00    +0.000 C 
BRANCH  10  11
ATOM     11  C   UNL     1      -1.164  12.246  18.431  0.00  0.00    +0.000 C 
BRANCH  11  12
ATOM     12  C   UNL     1      -2.147  12.374  19.577  0.00  0.00    +0.000 A 
ATOM     13  C   UNL     1      -1.675  12.573  20.884  0.00  0.00    +0.000 A 
ATOM     14  C   UNL     1      -2.559  12.753  21.944  0.00  0.00    +0.000 A 
ATOM     15  C   UNL     1      -3.934  12.741  21.720  0.00  0.00    +0.000 A 
ATOM     16  C   UNL     1      -4.416  12.527  20.430  0.00  0.00    +0.000 A 
ATOM     17  C   UNL     1      -3.534  12.336  19.363  0.00  0.00    +0.000 A 
ENDBRANCH  11  12
ENDBRANCH  10  11
ENDBRANCH   5  10
ENDBRANCH   1   2
BRANCH   1  18
ATOM     18  C   UNL     1       2.160   5.349  19.261  0.00  0.00    +0.000 A 
ATOM     19  C   UNL     1       1.799   4.714  18.064  0.00  0.00    +0.000 A 
ATOM     20  C   UNL     1       1.227   3.436  18.075  0.00  0.00    +0.000 A 
ATOM     21  C   UNL     1       0.995   2.777  19.277  0.00  0.00    +0.000 A 
ATOM     22  C   UNL     1       1.320   3.401  20.478  0.00  0.00    +0.000 A 
ATOM     23  C   UNL     1       1.893   4.671  20.469  0.00  0.00    +0.000 A 
ENDBRANCH   1  18
BRANCH   1  24
ATOM     24  C   UNL     1       3.975   6.870  18.238  0.00  0.00    +0.000 C 
BRANCH  24  25
ATOM     25  S   UNL     1       5.378   5.708  18.538  0.00  0.00    +0.000 S 
BRANCH  25  30
ATOM     26  C   UNL     1       6.469   3.773  12.852  0.00  0.00    +0.000 C 
ATOM     27  C   UNL     1       6.246   4.168  14.281  0.00  0.00    +0.000 A 
ATOM     28  C   UNL     1       7.153   4.991  14.956  0.00  0.00    +0.000 A 
ATOM     29  C   UNL     1       6.880   5.427  16.257  0.00  0.00    +0.000 A 
ATOM     30  C   UNL     1       5.695   5.055  16.905  0.00  0.00    +0.000 A 
ATOM     31  C   UNL     1       4.829   4.173  16.254  0.00  0.00    +0.000 A 
ATOM     32  C   UNL     1       5.099   3.736  14.955  0.00  0.00    +0.000 A 
ENDBRANCH  25  30
ENDBRANCH  24  25
ENDBRANCH   1  24
TORSDOF 8
ENDMDL
MODEL 5
REMARK VINA RESULT:      -7.7      2.799      8.739
REMARK  Name = 
REMARK  9 active torsions:
REMARK  status: ('A' for Active; 'I' for Inactive)
REMARK    1  A    between atoms: C_1  and  C_2
REMARK    2  A    between atoms: C_5  and  S_6
REMARK    3  A    between atoms: S_6  and  C_7
REMARK    4  A    between atoms: C_7  and  C_8
REMARK    5  A    between atoms: C_8  and  C_9
REMARK    6  A    between atoms: C_8  and  N_15
REMARK    7  A    between atoms: N_18  and  C_19
REMARK    8  A    between atoms: C_19  and  C_20
REMARK    9  A    between atoms: C_20  and  C_21
REMARK                            x       y       z     vdW  Elec       q    Type
REMARK                         _______ _______ _______ _____ _____    ______ ____
ROOT
ATOM      1  C   UNL     1       2.540   6.209  18.617  0.00  0.00    +0.000 C 
ENDROOT
BRANCH   1   2
ATOM      2  N   UNL     1       3.857   6.021  17.964  0.00  0.00    +0.000 N 
ATOM      3  C   UNL     1       4.570   4.748  18.131  0.00  0.00    +0.000 C 
ATOM      4  C   UNL     1       5.930   4.875  18.842  0.00  0.00    +0.000 C 
ATOM      5  N   UNL     1       7.031   5.433  18.035  0.00  0.00    +0.000 NA
ATOM      6  C   UNL     1       6.732   6.825  17.674  0.00  0.00    +0.000 C 
ATOM      7  C   UNL     1       5.693   7.018  16.577  0.00  0.00    +0.000 C 
ATOM      8  C   UNL     1       4.259   6.982  17.050  0.00  0.00    +0.000 C 
ATOM      9  O   UNL     1       3.481   7.834  16.603  0.00  0.00    +0.000 OA
BRANCH   5  10
ATOM     10  C   UNL     1       7.406   4.560  16.901  0.00  0.00    +0.000 C 
BRANCH  10  11
ATOM     11  C   UNL     1       6.221   4.135  16.007  0.00  0.00    +0.000 C 
BRANCH  11  12
ATOM     12  C   UNL     1       6.508   4.225  14.522  0.00  0.00    +0.000 A 
ATOM     13  C   UNL     1       7.496   5.104  14.054  0.00  0.00    +0.000 A 
ATOM     14  C   UNL     1       7.820   5.161  12.701  0.00  0.00    +0.000 A 
ATOM     15  C   UNL     1       7.164   4.338  11.788  0.00  0.00    +0.000 A 
ATOM     16  C   UNL     1       6.167   3.473  12.238  0.00  0.00    +0.000 A 
ATOM     17  C   UNL     1       5.831   3.419  13.593  0.00  0.00    +0.000 A 
ENDBRANCH  11  12
ENDBRANCH  10  11
ENDBRANCH   5  10
ENDBRANCH   1   2
BRANCH   1  18
ATOM     18  C   UNL     1       2.036   4.932  19.306  0.00  0.00    +0.000 A 
ATOM     19  C   UNL     1       2.171   4.699  20.682  0.00  0.00    +0.000 A 
ATOM     20  C   UNL     1       1.638   3.546  21.270  0.00  0.00    +0.000 A 
ATOM     21  C   UNL     1       0.973   2.602  20.495  0.00  0.00    +0.000 A 
ATOM     22  C   UNL     1       0.852   2.799  19.123  0.00  0.00    +0.000 A 
ATOM     23  C   UNL     1       1.379   3.949  18.537  0.00  0.00    +0.000 A 
ENDBRANCH   1  18
BRANCH   1  24
ATOM     24  C   UNL     1       2.437   7.470  19.527  0.00  0.00    +0.000 C 
BRANCH  24  25
ATOM     25  S   UNL     1       1.532   8.849  18.698  0.00  0.00    +0.000 S 
BRANCH  25  30
ATOM     26  C   UNL     1      -1.507  11.506  23.278  0.00  0.00    +0.000 C 
ATOM     27  C   UNL     1      -0.844  10.808  22.129  0.00  0.00    +0.000 A 
ATOM     28  C   UNL     1      -0.766  11.403  20.866  0.00  0.00    +0.000 A 
ATOM     29  C   UNL     1      -0.059  10.779  19.833  0.00  0.00    +0.000 A 
ATOM     30  C   UNL     1       0.587   9.554  20.042  0.00  0.00    +0.000 A 
ATOM     31  C   UNL     1       0.442   8.928  21.283  0.00  0.00    +0.000 A 
ATOM     32  C   UNL     1      -0.263   9.550  22.317  0.00  0.00    +0.000 A 
ENDBRANCH  25  30
ENDBRANCH  24  25
ENDBRANCH   1  24
TORSDOF 8
ENDMDL
MODEL 6
REMARK VINA RESULT:      -7.6      1.474      1.958
REMARK  Name = 
REMARK  9 active torsions:
REMARK  status: ('A' for Active; 'I' for Inactive)
REMARK    1  A    between atoms: C_1  and  C_2
REMARK    2  A    between atoms: C_5  and  S_6
REMARK    3  A    between atoms: S_6  and  C_7
REMARK    4  A    between atoms: C_7  and  C_8
REMARK    5  A    between atoms: C_8  and  C_9
REMARK    6  A    between atoms: C_8  and  N_15
REMARK    7  A    between atoms: N_18  and  C_19
REMARK    8  A    between atoms: C_19  and  C_20
REMARK    9  A    between atoms: C_20  and  C_21
REMARK                            x       y       z     vdW  Elec       q    Type
REMARK                         _______ _______ _______ _____ _____    ______ ____
ROOT
ATOM      1  C   UNL     1       2.794   6.733  19.500  0.00  0.00    +0.000 C 
ENDROOT
BRANCH   1   2
ATOM      2  N   UNL     1       1.819   7.849  19.462  0.00  0.00    +0.000 N 
ATOM      3  C   UNL     1       1.356   8.359  18.165  0.00  0.00    +0.000 C 
ATOM      4  C   UNL     1       1.717   9.832  17.900  0.00  0.00    +0.000 C 
ATOM      5  N   UNL     1       0.916  10.835  18.627  0.00  0.00    +0.000 NA
ATOM      6  C   UNL     1       1.146  10.708  20.072  0.00  0.00    +0.000 C 
ATOM      7  C   UNL     1       0.469   9.525  20.751  0.00  0.00    +0.000 C 
ATOM      8  C   UNL     1       1.230   8.223  20.660  0.00  0.00    +0.000 C 
ATOM      9  O   UNL     1       1.309   7.527  21.679  0.00  0.00    +0.000 OA
BRANCH   5  10
ATOM     10  C   UNL     1      -0.506  10.833  18.217  0.00  0.00    +0.000 C 
BRANCH  10  11
ATOM     11  C   UNL     1      -1.319  12.035  18.741  0.00  0.00    +0.000 C 
BRANCH  11  12
ATOM     12  C   UNL     1      -2.813  11.912  18.517  0.00  0.00    +0.000 A 
ATOM     13  C   UNL     1      -3.296  11.380  17.312  0.00  0.00    +0.000 A 
ATOM     14  C   UNL     1      -4.662  11.201  17.106  0.00  0.00    +0.000 A 
ATOM     15  C   UNL     1      -5.572  11.547  18.102  0.00  0.00    +0.000 A 
ATOM     16  C   UNL     1      -5.105  12.093  19.297  0.00  0.00    +0.000 A 
ATOM     17  C   UNL     1      -3.737  12.285  19.505  0.00  0.00    +0.000 A 
ENDBRANCH  11  12
ENDBRANCH  10  11
ENDBRANCH   5  10
ENDBRANCH   1   2
BRANCH   1  18
ATOM     18  C   UNL     1       2.129   5.365  19.288  0.00  0.00    +0.000 A 
ATOM     19  C   UNL     1       1.906   4.809  18.020  0.00  0.00    +0.000 A 
ATOM     20  C   UNL     1       1.354   3.530  17.884  0.00  0.00    +0.000 A 
ATOM     21  C   UNL     1       1.005   2.789  19.008  0.00  0.00    +0.000 A 
ATOM     22  C   UNL     1       1.192   3.332  20.276  0.00  0.00    +0.000 A 
ATOM     23  C   UNL     1       1.745   4.604  20.412  0.00  0.00    +0.000 A 
ENDBRANCH   1  18
BRANCH   1  24
ATOM     24  C   UNL     1       4.057   6.939  18.612  0.00  0.00    +0.000 C 
BRANCH  24  25
ATOM     25  S   UNL     1       5.276   5.567  18.812  0.00  0.00    +0.000 S 
BRANCH  25  30
ATOM     26  C   UNL     1       5.819   3.791  12.996  0.00  0.00    +0.000 C 
ATOM     27  C   UNL     1       5.782   4.242  14.426  0.00  0.00    +0.000 A 
ATOM     28  C   UNL     1       5.544   5.579  14.758  0.00  0.00    +0.000 A 
ATOM     29  C   UNL     1       5.417   5.962  16.098  0.00  0.00    +0.000 A 
ATOM     30  C   UNL     1       5.520   5.018  17.128  0.00  0.00    +0.000 A 
ATOM     31  C   UNL     1       5.832   3.699  16.793  0.00  0.00    +0.000 A 
ATOM     32  C   UNL     1       5.959   3.313  15.456  0.00  0.00    +0.000 A 
ENDBRANCH  25  30
ENDBRANCH  24  25
ENDBRANCH   1  24
TORSDOF 8
ENDMDL
MODEL 7
REMARK VINA RESULT:      -7.6      2.831      8.679
REMARK  Name = 
REMARK  9 active torsions:
REMARK  status: ('A' for Active; 'I' for Inactive)
REMARK    1  A    between atoms: C_1  and  C_2
REMARK    2  A    between atoms: C_5  and  S_6
REMARK    3  A    between atoms: S_6  and  C_7
REMARK    4  A    between atoms: C_7  and  C_8
REMARK    5  A    between atoms: C_8  and  C_9
REMARK    6  A    between atoms: C_8  and  N_15
REMARK    7  A    between atoms: N_18  and  C_19
REMARK    8  A    between atoms: C_19  and  C_20
REMARK    9  A    between atoms: C_20  and  C_21
REMARK                            x       y       z     vdW  Elec       q    Type
REMARK                         _______ _______ _______ _____ _____    ______ ____
ROOT
ATOM      1  C   UNL     1       2.539   6.178  18.703  0.00  0.00    +0.000 C 
ENDROOT
BRANCH   1   2
ATOM      2  N   UNL     1       3.833   5.993  18.004  0.00  0.00    +0.000 N 
ATOM      3  C   UNL     1       4.543   4.713  18.127  0.00  0.00    +0.000 C 
ATOM      4  C   UNL     1       5.926   4.819  18.796  0.00  0.00    +0.000 C 
ATOM      5  N   UNL     1       7.004   5.384  17.965  0.00  0.00    +0.000 NA
ATOM      6  C   UNL     1       6.703   6.784  17.638  0.00  0.00    +0.000 C 
ATOM      7  C   UNL     1       5.632   7.003  16.578  0.00  0.00    +0.000 C 
ATOM      8  C   UNL     1       4.213   6.968  17.095  0.00  0.00    +0.000 C 
ATOM      9  O   UNL     1       3.428   7.832  16.688  0.00  0.00    +0.000 OA
BRANCH   5  10
ATOM     10  C   UNL     1       7.337   4.528  16.804  0.00  0.00    +0.000 C 
BRANCH  10  11
ATOM     11  C   UNL     1       7.518   5.297  15.479  0.00  0.00    +0.000 C 
BRANCH  11  12
ATOM     12  C   UNL     1       6.908   4.604  14.277  0.00  0.00    +0.000 A 
ATOM     13  C   UNL     1       5.601   4.099  14.351  0.00  0.00    +0.000 A 
ATOM     14  C   UNL     1       4.998   3.512  13.242  0.00  0.00    +0.000 A 
ATOM     15  C   UNL     1       5.688   3.419  12.036  0.00  0.00    +0.000 A 
ATOM     16  C   UNL     1       6.993   3.901  11.954  0.00  0.00    +0.000 A 
ATOM     17  C   UNL     1       7.608   4.482  13.066  0.00  0.00    +0.000 A 
ENDBRANCH  11  12
ENDBRANCH  10  11
ENDBRANCH   5  10
ENDBRANCH   1   2
BRANCH   1  18
ATOM     18  C   UNL     1       2.103   4.925  19.475  0.00  0.00    +0.000 A 
ATOM     19  C   UNL     1       2.392   4.722  20.833  0.00  0.00    +0.000 A 
ATOM     20  C   UNL     1       1.916   3.591  21.506  0.00  0.00    +0.000 A 
ATOM     21  C   UNL     1       1.155   2.639  20.837  0.00  0.00    +0.000 A 
ATOM     22  C   UNL     1       0.879   2.807  19.483  0.00  0.00    +0.000 A 
ATOM     23  C   UNL     1       1.349   3.935  18.812  0.00  0.00    +0.000 A 
ENDBRANCH   1  18
BRANCH   1  24
ATOM     24  C   UNL     1       2.435   7.482  19.550  0.00  0.00    +0.000 C 
BRANCH  24  25
ATOM     25  S   UNL     1       1.473   8.797  18.683  0.00  0.00    +0.000 S 
BRANCH  25  30
ATOM     26  C   UNL     1      -1.556  11.357  23.324  0.00  0.00    +0.000 C 
ATOM     27  C   UNL     1      -0.733  10.781  22.211  0.00  0.00    +0.000 A 
ATOM     28  C   UNL     1      -0.031   9.583  22.374  0.00  0.00    +0.000 A 
ATOM     29  C   UNL     1       0.652   9.011  21.294  0.00  0.00    +0.000 A 
ATOM     30  C   UNL     1       0.641   9.620  20.033  0.00  0.00    +0.000 A 
ATOM     31  C   UNL     1      -0.000  10.854  19.896  0.00  0.00    +0.000 A 
ATOM     32  C   UNL     1      -0.683  11.428  20.972  0.00  0.00    +0.000 A 
ENDBRANCH  25  30
ENDBRANCH  24  25
ENDBRANCH   1  24
TORSDOF 8
ENDMDL
MODEL 8
REMARK VINA RESULT:      -7.6      1.733      2.585
REMARK  Name = 
REMARK  9 active torsions:
REMARK  status: ('A' for Active; 'I' for Inactive)
REMARK    1  A    between atoms: C_1  and  C_2
REMARK    2  A    between atoms: C_5  and  S_6
REMARK    3  A    between atoms: S_6  and  C_7
REMARK    4  A    between atoms: C_7  and  C_8
REMARK    5  A    between atoms: C_8  and  C_9
REMARK    6  A    between atoms: C_8  and  N_15
REMARK    7  A    between atoms: N_18  and  C_19
REMARK    8  A    between atoms: C_19  and  C_20
REMARK    9  A    between atoms: C_20  and  C_21
REMARK                            x       y       z     vdW  Elec       q    Type
REMARK                         _______ _______ _______ _____ _____    ______ ____
ROOT
ATOM      1  C   UNL     1       2.869   6.743  19.296  0.00  0.00    +0.000 C 
ENDROOT
BRANCH   1   2
ATOM      2  N   UNL     1       1.893   7.858  19.350  0.00  0.00    +0.000 N 
ATOM      3  C   UNL     1       1.321   8.378  18.102  0.00  0.00    +0.000 C 
ATOM      4  C   UNL     1       1.656   9.854  17.821  0.00  0.00    +0.000 C 
ATOM      5  N   UNL     1       0.918  10.848  18.621  0.00  0.00    +0.000 NA
ATOM      6  C   UNL     1       1.270  10.710  20.041  0.00  0.00    +0.000 C 
ATOM      7  C   UNL     1       0.655   9.519  20.764  0.00  0.00    +0.000 C 
ATOM      8  C   UNL     1       1.407   8.219  20.597  0.00  0.00    +0.000 C 
ATOM      9  O   UNL     1       1.573   7.514  21.600  0.00  0.00    +0.000 OA
BRANCH   5  10
ATOM     10  C   UNL     1      -0.534  10.847  18.334  0.00  0.00    +0.000 C 
BRANCH  10  11
ATOM     11  C   UNL     1      -1.194  12.241  18.389  0.00  0.00    +0.000 C 
BRANCH  11  12
ATOM     12  C   UNL     1      -2.111  12.440  19.578  0.00  0.00    +0.000 A 
ATOM     13  C   UNL     1      -3.503  12.394  19.402  0.00  0.00    +0.000 A 
ATOM     14  C   UNL     1      -4.365  12.514  20.489  0.00  0.00    +0.000 A 
ATOM     15  C   UNL     1      -3.855  12.681  21.773  0.00  0.00    +0.000 A 
ATOM     16  C   UNL     1      -2.474  12.747  21.959  0.00  0.00    +0.000 A 
ATOM     17  C   UNL     1      -1.604  12.636  20.872  0.00  0.00    +0.000 A 
ENDBRANCH  11  12
ENDBRANCH  10  11
ENDBRANCH   5  10
ENDBRANCH   1   2
BRANCH   1  18
ATOM     18  C   UNL     1       2.189   5.367  19.258  0.00  0.00    +0.000 A 
ATOM     19  C   UNL     1       1.770   4.752  18.069  0.00  0.00    +0.000 A 
ATOM     20  C   UNL     1       1.212   3.468  18.085  0.00  0.00    +0.000 A 
ATOM     21  C   UNL     1       1.053   2.782  19.283  0.00  0.00    +0.000 A 
ATOM     22  C   UNL     1       1.437   3.385  20.478  0.00  0.00    +0.000 A 
ATOM     23  C   UNL     1       1.996   4.662  20.464  0.00  0.00    +0.000 A 
ENDBRANCH   1  18
BRANCH   1  24
ATOM     24  C   UNL     1       3.981   6.902  18.215  0.00  0.00    +0.000 C 
BRANCH  24  25
ATOM     25  S   UNL     1       5.354   5.691  18.452  0.00  0.00    +0.000 S 
BRANCH  25  30
ATOM     26  C   UNL     1       6.535   3.681  12.810  0.00  0.00    +0.000 C 
ATOM     27  C   UNL     1       6.220   4.261  14.157  0.00  0.00    +0.000 A 
ATOM     28  C   UNL     1       4.952   4.117  14.729  0.00  0.00    +0.000 A 
ATOM     29  C   UNL     1       4.706   4.580  16.027  0.00  0.00    +0.000 A 
ATOM     30  C   UNL     1       5.720   5.189  16.776  0.00  0.00    +0.000 A 
ATOM     31  C   UNL     1       6.962   5.397  16.171  0.00  0.00    +0.000 A 
ATOM     32  C   UNL     1       7.211   4.935  14.876  0.00  0.00    +0.000 A 
ENDBRANCH  25  30
ENDBRANCH  24  25
ENDBRANCH   1  24
TORSDOF 8
ENDMDL
MODEL 9
REMARK VINA RESULT:      -7.6      2.818      8.373
REMARK  Name = 
REMARK  9 active torsions:
REMARK  status: ('A' for Active; 'I' for Inactive)
REMARK    1  A    between atoms: C_1  and  C_2
REMARK    2  A    between atoms: C_5  and  S_6
REMARK    3  A    between atoms: S_6  and  C_7
REMARK    4  A    between atoms: C_7  and  C_8
REMARK    5  A    between atoms: C_8  and  C_9
REMARK    6  A    between atoms: C_8  and  N_15
REMARK    7  A    between atoms: N_18  and  C_19
REMARK    8  A    between atoms: C_19  and  C_20
REMARK    9  A    between atoms: C_20  and  C_21
REMARK                            x       y       z     vdW  Elec       q    Type
REMARK                         _______ _______ _______ _____ _____    ______ ____
ROOT
ATOM      1  C   UNL     1       2.441   6.240  19.213  0.00  0.00    +0.000 C 
ENDROOT
BRANCH   1   2
ATOM      2  N   UNL     1       3.648   6.055  18.374  0.00  0.00    +0.000 N 
ATOM      3  C   UNL     1       4.420   4.810  18.482  0.00  0.00    +0.000 C 
ATOM      4  C   UNL     1       5.867   5.005  18.970  0.00  0.00    +0.000 C 
ATOM      5  N   UNL     1       6.814   5.553  17.982  0.00  0.00    +0.000 NA
ATOM      6  C   UNL     1       6.418   6.919  17.614  0.00  0.00    +0.000 C 
ATOM      7  C   UNL     1       5.220   7.035  16.682  0.00  0.00    +0.000 C 
ATOM      8  C   UNL     1       3.876   6.984  17.370  0.00  0.00    +0.000 C 
ATOM      9  O   UNL     1       3.012   7.794  17.013  0.00  0.00    +0.000 OA
BRANCH   5  10
ATOM     10  C   UNL     1       7.040   4.638  16.841  0.00  0.00    +0.000 C 
BRANCH  10  11
ATOM     11  C   UNL     1       7.529   5.336  15.554  0.00  0.00    +0.000 C 
BRANCH  11  12
ATOM     12  C   UNL     1       6.958   4.747  14.280  0.00  0.00    +0.000 A 
ATOM     13  C   UNL     1       7.666   4.871  13.075  0.00  0.00    +0.000 A 
ATOM     14  C   UNL     1       7.191   4.287  11.904  0.00  0.00    +0.000 A 
ATOM     15  C   UNL     1       6.000   3.564  11.914  0.00  0.00    +0.000 A 
ATOM     16  C   UNL     1       5.279   3.449  13.101  0.00  0.00    +0.000 A 
ATOM     17  C   UNL     1       5.745   4.041  14.277  0.00  0.00    +0.000 A 
ENDBRANCH  11  12
ENDBRANCH  10  11
ENDBRANCH   5  10
ENDBRANCH   1   2
BRANCH   1  18
ATOM     18  C   UNL     1       1.979   4.933  19.875  0.00  0.00    +0.000 A 
ATOM     19  C   UNL     1       1.137   4.008  19.240  0.00  0.00    +0.000 A 
ATOM     20  C   UNL     1       0.797   2.802  19.863  0.00  0.00    +0.000 A 
ATOM     21  C   UNL     1       1.280   2.503  21.132  0.00  0.00    +0.000 A 
ATOM     22  C   UNL     1       2.095   3.418  21.792  0.00  0.00    +0.000 A 
ATOM     23  C   UNL     1       2.438   4.618  21.171  0.00  0.00    +0.000 A 
ENDBRANCH   1  18
BRANCH   1  24
ATOM     24  C   UNL     1       2.516   7.433  20.213  0.00  0.00    +0.000 C 
BRANCH  24  25
ATOM     25  S   UNL     1       0.873   7.815  20.961  0.00  0.00    +0.000 S 
BRANCH  25  30
ATOM     26  C   UNL     1      -0.029  13.426  18.730  0.00  0.00    +0.000 C 
ATOM     27  C   UNL     1       0.112  12.019  19.230  0.00  0.00    +0.000 A 
ATOM     28  C   UNL     1       0.886  11.079  18.543  0.00  0.00    +0.000 A 
ATOM     29  C   UNL     1       1.085   9.801  19.076  0.00  0.00    +0.000 A 
ATOM     30  C   UNL     1       0.519   9.440  20.306  0.00  0.00    +0.000 A 
ATOM     31  C   UNL     1      -0.315  10.357  20.950  0.00  0.00    +0.000 A 
ATOM     32  C   UNL     1      -0.514  11.635  20.420  0.00  0.00    +0.000 A 
ENDBRANCH  25  30
ENDBRANCH  24  25
ENDBRANCH   1  24
TORSDOF 8
ENDMDL
