MODEL 1
REMARK VINA RESULT:      -7.9      0.000      0.000
REMARK  Name = 
REMARK  6 active torsions:
REMARK  status: ('A' for Active; 'I' for Inactive)
REMARK    1  A    between atoms: C_2  and  C_20
REMARK    2  A    between atoms: N_3  and  C_4
REMARK    3  A    between atoms: C_4  and  C_5
REMARK    4  A    between atoms: C_4  and  C_9
REMARK    5  A    between atoms: N_7  and  O_8
REMARK    6  A    between atoms: C_12  and  N_13
REMARK                            x       y       z     vdW  Elec       q    Type
REMARK                         _______ _______ _______ _____ _____    ______ ____
ROOT
ATOM      1  C   UNL     1       2.966   5.221  18.754  0.00  0.00    +0.000 C 
ENDROOT
BRANCH   1   2
ATOM      2  C   UNL     1       3.940   5.080  17.599  0.00  0.00    +0.000 A 
ATOM      3  C   UNL     1       4.373   6.225  16.917  0.00  0.00    +0.000 A 
ATOM      4  C   UNL     1       5.207   6.117  15.804  0.00  0.00    +0.000 A 
ATOM      5  C   UNL     1       5.621   4.860  15.348  0.00  0.00    +0.000 A 
ATOM      6  C   UNL     1       5.211   3.710  16.039  0.00  0.00    +0.000 A 
ATOM      7  C   UNL     1       4.384   3.822  17.162  0.00  0.00    +0.000 A 
BRANCH   5   8
ATOM      8  N   UNL     1       6.430   4.742  14.187  0.00  0.00    +0.000 N 
ATOM      9  C   UNL     1       6.237   3.905  13.105  0.00  0.00    +0.000 A 
ATOM     10  C   UNL     1       7.284   4.106  12.238  0.00  0.00    +0.000 A 
ATOM     11  C   UNL     1       8.068   5.085  12.862  0.00  0.00    +0.000 A 
ATOM     12  N   UNL     1       7.557   5.487  14.028  0.00  0.00    +0.000 NA
ENDBRANCH   5   8
ENDBRANCH   1   2
BRANCH   1  15
ATOM     13  O   UNL     1       1.723   6.431  20.996  0.00  0.00    +0.000 OA
ATOM     14  C   UNL     1       1.899   7.095  19.986  0.00  0.00    +0.000 C 
ATOM     15  N   UNL     1       2.499   6.600  18.846  0.00  0.00    +0.000 N 
ATOM     16  H   UNL     1       2.787   7.228  18.108  0.00  0.00    +0.000 HD
BRANCH  14  17
ATOM     17  C   UNL     1       1.467   8.523  19.929  0.00  0.00    +0.000 A 
ATOM     18  C   UNL     1       1.591   9.233  18.726  0.00  0.00    +0.000 A 
ATOM     19  C   UNL     1       1.227  10.583  18.669  0.00  0.00    +0.000 A 
ATOM     20  C   UNL     1       0.749  11.227  19.811  0.00  0.00    +0.000 A 
ATOM     21  C   UNL     1       0.631  10.527  21.010  0.00  0.00    +0.000 A 
ATOM     22  C   UNL     1       0.991   9.178  21.071  0.00  0.00    +0.000 A 
ENDBRANCH  14  17
ENDBRANCH   1  15
BRANCH   1  23
ATOM     23  C   UNL     1       1.776   4.239  18.638  0.00  0.00    +0.000 C 
ATOM     24  O   UNL     1       1.143   4.049  17.595  0.00  0.00    +0.000 OA
ATOM     25  N   UNL     1       1.433   3.600  19.808  0.00  0.00    +0.000 N 
ATOM     26  H   UNL     1       1.907   3.709  20.699  0.00  0.00    +0.000 HD
BRANCH  25  27
ATOM     27  O   UNL     1       0.339   2.709  19.764  0.00  0.00    +0.000 OA
ATOM     28  H   UNL     1       0.602   2.014  20.405  0.00  0.00    +0.000 HD
ENDBRANCH  25  27
ENDBRANCH   1  23
TORSDOF 6
ENDMDL
MODEL 2
REMARK VINA RESULT:      -7.8      3.109      8.129
REMARK  Name = 
REMARK  6 active torsions:
REMARK  status: ('A' for Active; 'I' for Inactive)
REMARK    1  A    between atoms: C_2  and  C_20
REMARK    2  A    between atoms: N_3  and  C_4
REMARK    3  A    between atoms: C_4  and  C_5
REMARK    4  A    between atoms: C_4  and  C_9
REMARK    5  A    between atoms: N_7  and  O_8
REMARK    6  A    between atoms: C_12  and  N_13
REMARK                            x       y       z     vdW  Elec       q    Type
REMARK                         _______ _______ _______ _____ _____    ______ ____
ROOT
ATOM      1  C   UNL     1       5.491   5.316  17.924  0.00  0.00    +0.000 C 
ENDROOT
BRANCH   1   2
ATOM      2  C   UNL     1       4.299   6.213  18.206  0.00  0.00    +0.000 A 
ATOM      3  C   UNL     1       4.038   7.299  17.359  0.00  0.00    +0.000 A 
ATOM      4  C   UNL     1       2.995   8.183  17.639  0.00  0.00    +0.000 A 
ATOM      5  C   UNL     1       2.198   8.002  18.775  0.00  0.00    +0.000 A 
ATOM      6  C   UNL     1       2.439   6.904  19.615  0.00  0.00    +0.000 A 
ATOM      7  C   UNL     1       3.477   6.012  19.326  0.00  0.00    +0.000 A 
BRANCH   5   8
ATOM      8  N   UNL     1       1.167   8.927  19.091  0.00  0.00    +0.000 N 
ATOM      9  C   UNL     1       0.453   9.725  18.218  0.00  0.00    +0.000 A 
ATOM     10  C   UNL     1      -0.412  10.482  18.969  0.00  0.00    +0.000 A 
ATOM     11  C   UNL     1      -0.167  10.082  20.289  0.00  0.00    +0.000 A 
ATOM     12  N   UNL     1       0.770   9.136  20.375  0.00  0.00    +0.000 NA
ENDBRANCH   5   8
ENDBRANCH   1   2
BRANCH   1  15
ATOM     13  O   UNL     1       7.723   4.162  16.614  0.00  0.00    +0.000 OA
ATOM     14  C   UNL     1       6.791   4.575  15.942  0.00  0.00    +0.000 C 
ATOM     15  N   UNL     1       5.659   5.148  16.485  0.00  0.00    +0.000 N 
ATOM     16  H   UNL     1       4.843   5.307  15.910  0.00  0.00    +0.000 HD
BRANCH  14  17
ATOM     17  C   UNL     1       6.823   4.477  14.452  0.00  0.00    +0.000 A 
ATOM     18  C   UNL     1       5.983   3.560  13.804  0.00  0.00    +0.000 A 
ATOM     19  C   UNL     1       6.032   3.430  12.411  0.00  0.00    +0.000 A 
ATOM     20  C   UNL     1       6.922   4.205  11.668  0.00  0.00    +0.000 A 
ATOM     21  C   UNL     1       7.763   5.113  12.309  0.00  0.00    +0.000 A 
ATOM     22  C   UNL     1       7.716   5.248  13.699  0.00  0.00    +0.000 A 
ENDBRANCH  14  17
ENDBRANCH   1  15
BRANCH   1  23
ATOM     23  C   UNL     1       6.790   5.848  18.575  0.00  0.00    +0.000 C 
ATOM     24  O   UNL     1       7.369   6.875  18.211  0.00  0.00    +0.000 OA
ATOM     25  N   UNL     1       7.294   5.066  19.590  0.00  0.00    +0.000 N 
ATOM     26  H   UNL     1       6.871   4.211  19.940  0.00  0.00    +0.000 HD
BRANCH  25  27
ATOM     27  O   UNL     1       8.490   5.494  20.206  0.00  0.00    +0.000 OA
ATOM     28  H   UNL     1       9.157   5.352  19.501  0.00  0.00    +0.000 HD
ENDBRANCH  25  27
ENDBRANCH   1  23
TORSDOF 6
ENDMDL
MODEL 3
REMARK VINA RESULT:      -7.8      2.787      7.948
REMARK  Name = 
REMARK  6 active torsions:
REMARK  status: ('A' for Active; 'I' for Inactive)
REMARK    1  A    between atoms: C_2  and  C_20
REMARK    2  A    between atoms: N_3  and  C_4
REMARK    3  A    between atoms: C_4  and  C_5
REMARK    4  A    between atoms: C_4  and  C_9
REMARK    5  A    between atoms: N_7  and  O_8
REMARK    6  A    between atoms: C_12  and  N_13
REMARK                            x       y       z     vdW  Elec       q    Type
REMARK                         _______ _______ _______ _____ _____    ______ ____
ROOT
ATOM      1  C   UNL     1       5.835   5.219  18.010  0.00  0.00    +0.000 C 
ENDROOT
BRANCH   1   2
ATOM      2  C   UNL     1       4.618   6.107  18.198  0.00  0.00    +0.000 A 
ATOM      3  C   UNL     1       4.411   7.186  17.330  0.00  0.00    +0.000 A 
ATOM      4  C   UNL     1       3.344   8.063  17.527  0.00  0.00    +0.000 A 
ATOM      5  C   UNL     1       2.466   7.880  18.602  0.00  0.00    +0.000 A 
ATOM      6  C   UNL     1       2.653   6.788  19.462  0.00  0.00    +0.000 A 
ATOM      7  C   UNL     1       3.717   5.903  19.255  0.00  0.00    +0.000 A 
BRANCH   5   8
ATOM      8  N   UNL     1       1.407   8.797  18.836  0.00  0.00    +0.000 N 
ATOM      9  C   UNL     1       0.884   9.190  20.053  0.00  0.00    +0.000 A 
ATOM     10  C   UNL     1      -0.146  10.061  19.795  0.00  0.00    +0.000 A 
ATOM     11  C   UNL     1      -0.183  10.150  18.398  0.00  0.00    +0.000 A 
ATOM     12  N   UNL     1       0.756   9.407  17.810  0.00  0.00    +0.000 NA
ENDBRANCH   5   8
ENDBRANCH   1   2
BRANCH   1  15
ATOM     13  O   UNL     1       5.069   3.248  16.124  0.00  0.00    +0.000 OA
ATOM     14  C   UNL     1       5.785   4.168  15.761  0.00  0.00    +0.000 C 
ATOM     15  N   UNL     1       6.208   5.178  16.601  0.00  0.00    +0.000 N 
ATOM     16  H   UNL     1       6.643   6.008  16.220  0.00  0.00    +0.000 HD
BRANCH  14  17
ATOM     17  C   UNL     1       6.253   4.256  14.345  0.00  0.00    +0.000 A 
ATOM     18  C   UNL     1       5.652   3.448  13.370  0.00  0.00    +0.000 A 
ATOM     19  C   UNL     1       6.108   3.492  12.047  0.00  0.00    +0.000 A 
ATOM     20  C   UNL     1       7.167   4.333  11.700  0.00  0.00    +0.000 A 
ATOM     21  C   UNL     1       7.771   5.132  12.669  0.00  0.00    +0.000 A 
ATOM     22  C   UNL     1       7.317   5.094  13.991  0.00  0.00    +0.000 A 
ENDBRANCH  14  17
ENDBRANCH   1  15
BRANCH   1  23
ATOM     23  C   UNL     1       7.028   5.669  18.887  0.00  0.00    +0.000 C 
ATOM     24  O   UNL     1       7.841   6.533  18.547  0.00  0.00    +0.000 OA
ATOM     25  N   UNL     1       7.151   5.004  20.086  0.00  0.00    +0.000 N 
ATOM     26  H   UNL     1       6.521   4.285  20.428  0.00  0.00    +0.000 HD
BRANCH  25  27
ATOM     27  O   UNL     1       8.235   5.360  20.916  0.00  0.00    +0.000 OA
ATOM     28  H   UNL     1       9.001   4.951  20.458  0.00  0.00    +0.000 HD
ENDBRANCH  25  27
ENDBRANCH   1  23
TORSDOF 6
ENDMDL
MODEL 4
REMARK VINA RESULT:      -7.8      3.102      8.081
REMARK  Name = 
REMARK  6 active torsions:
REMARK  status: ('A' for Active; 'I' for Inactive)
REMARK    1  A    between atoms: C_2  and  C_20
REMARK    2  A    between atoms: N_3  and  C_4
REMARK    3  A    between atoms: C_4  and  C_5
REMARK    4  A    between atoms: C_4  and  C_9
REMARK    5  A    between atoms: N_7  and  O_8
REMARK    6  A    between atoms: C_12  and  N_13
REMARK                            x       y       z     vdW  Elec       q    Type
REMARK                         _______ _______ _______ _____ _____    ______ ____
ROOT
ATOM      1  C   UNL     1       5.465   5.323  17.967  0.00  0.00    +0.000 C 
ENDROOT
BRANCH   1   2
ATOM      2  C   UNL     1       4.277   6.236  18.212  0.00  0.00    +0.000 A 
ATOM      3  C   UNL     1       4.043   7.312  17.346  0.00  0.00    +0.000 A 
ATOM      4  C   UNL     1       3.005   8.210  17.592  0.00  0.00    +0.000 A 
ATOM      5  C   UNL     1       2.182   8.053  18.713  0.00  0.00    +0.000 A 
ATOM      6  C   UNL     1       2.395   6.965  19.573  0.00  0.00    +0.000 A 
ATOM      7  C   UNL     1       3.429   6.058  19.317  0.00  0.00    +0.000 A 
BRANCH   5   8
ATOM      8  N   UNL     1       1.155   8.992  18.995  0.00  0.00    +0.000 N 
ATOM      9  C   UNL     1       0.705   9.405  20.234  0.00  0.00    +0.000 A 
ATOM     10  C   UNL     1      -0.321  10.294  20.023  0.00  0.00    +0.000 A 
ATOM     11  C   UNL     1      -0.431  10.372  18.629  0.00  0.00    +0.000 A 
ATOM     12  N   UNL     1       0.461   9.605  17.999  0.00  0.00    +0.000 NA
ENDBRANCH   5   8
ENDBRANCH   1   2
BRANCH   1  15
ATOM     13  O   UNL     1       7.711   4.117  16.730  0.00  0.00    +0.000 OA
ATOM     14  C   UNL     1       6.813   4.557  16.028  0.00  0.00    +0.000 C 
ATOM     15  N   UNL     1       5.678   5.156  16.534  0.00  0.00    +0.000 N 
ATOM     16  H   UNL     1       4.886   5.338  15.932  0.00  0.00    +0.000 HD
BRANCH  14  17
ATOM     17  C   UNL     1       6.894   4.463  14.540  0.00  0.00    +0.000 A 
ATOM     18  C   UNL     1       7.760   5.318  13.842  0.00  0.00    +0.000 A 
ATOM     19  C   UNL     1       7.816   5.268  12.445  0.00  0.00    +0.000 A 
ATOM     20  C   UNL     1       7.004   4.376  11.744  0.00  0.00    +0.000 A 
ATOM     21  C   UNL     1       6.137   3.530  12.433  0.00  0.00    +0.000 A 
ATOM     22  C   UNL     1       6.080   3.574  13.829  0.00  0.00    +0.000 A 
ENDBRANCH  14  17
ENDBRANCH   1  15
BRANCH   1  23
ATOM     23  C   UNL     1       6.749   5.836  18.663  0.00  0.00    +0.000 C 
ATOM     24  O   UNL     1       7.391   6.817  18.279  0.00  0.00    +0.000 OA
ATOM     25  N   UNL     1       7.162   5.090  19.744  0.00  0.00    +0.000 N 
ATOM     26  H   UNL     1       6.683   4.274  20.113  0.00  0.00    +0.000 HD
BRANCH  25  27
ATOM     27  O   UNL     1       8.340   5.501  20.403  0.00  0.00    +0.000 OA
ATOM     28  H   UNL     1       8.142   6.433  20.636  0.00  0.00    +0.000 HD
ENDBRANCH  25  27
ENDBRANCH   1  23
TORSDOF 6
ENDMDL
MODEL 5
REMARK VINA RESULT:      -7.8      4.511      6.473
REMARK  Name = 
REMARK  6 active torsions:
REMARK  status: ('A' for Active; 'I' for Inactive)
REMARK    1  A    between atoms: C_2  and  C_20
REMARK    2  A    between atoms: N_3  and  C_4
REMARK    3  A    between atoms: C_4  and  C_5
REMARK    4  A    between atoms: C_4  and  C_9
REMARK    5  A    between atoms: N_7  and  O_8
REMARK    6  A    between atoms: C_12  and  N_13
REMARK                            x       y       z     vdW  Elec       q    Type
REMARK                         _______ _______ _______ _____ _____    ______ ____
ROOT
ATOM      1  C   UNL     1       6.382   5.013  17.058  0.00  0.00    +0.000 C 
ENDROOT
BRANCH   1   2
ATOM      2  C   UNL     1       6.997   6.302  17.573  0.00  0.00    +0.000 A 
ATOM      3  C   UNL     1       6.670   7.517  16.958  0.00  0.00    +0.000 A 
ATOM      4  C   UNL     1       7.280   8.705  17.362  0.00  0.00    +0.000 A 
ATOM      5  C   UNL     1       8.234   8.700  18.387  0.00  0.00    +0.000 A 
ATOM      6  C   UNL     1       8.550   7.491  19.023  0.00  0.00    +0.000 A 
ATOM      7  C   UNL     1       7.928   6.303  18.625  0.00  0.00    +0.000 A 
BRANCH   5   8
ATOM      8  N   UNL     1       8.893   9.899  18.768  0.00  0.00    +0.000 N 
ATOM      9  C   UNL     1       9.242  10.964  17.960  0.00  0.00    +0.000 A 
ATOM     10  C   UNL     1       9.890  11.883  18.749  0.00  0.00    +0.000 A 
ATOM     11  C   UNL     1       9.891  11.304  20.025  0.00  0.00    +0.000 A 
ATOM     12  N   UNL     1       9.281  10.118  20.053  0.00  0.00    +0.000 NA
ENDBRANCH   5   8
ENDBRANCH   1   2
BRANCH   1  15
ATOM     13  O   UNL     1       5.688   3.690  19.466  0.00  0.00    +0.000 OA
ATOM     14  C   UNL     1       4.803   4.184  18.785  0.00  0.00    +0.000 C 
ATOM     15  N   UNL     1       5.038   4.852  17.600  0.00  0.00    +0.000 N 
ATOM     16  H   UNL     1       4.304   5.397  17.169  0.00  0.00    +0.000 HD
BRANCH  14  17
ATOM     17  C   UNL     1       3.374   4.093  19.210  0.00  0.00    +0.000 A 
ATOM     18  C   UNL     1       2.872   5.015  20.141  0.00  0.00    +0.000 A 
ATOM     19  C   UNL     1       1.547   4.916  20.578  0.00  0.00    +0.000 A 
ATOM     20  C   UNL     1       0.726   3.895  20.097  0.00  0.00    +0.000 A 
ATOM     21  C   UNL     1       1.223   2.973  19.178  0.00  0.00    +0.000 A 
ATOM     22  C   UNL     1       2.546   3.069  18.736  0.00  0.00    +0.000 A 
ENDBRANCH  14  17
ENDBRANCH   1  15
BRANCH   1  23
ATOM     23  C   UNL     1       6.367   4.951  15.512  0.00  0.00    +0.000 C 
ATOM     24  O   UNL     1       5.399   4.569  14.850  0.00  0.00    +0.000 OA
ATOM     25  N   UNL     1       7.546   5.324  14.904  0.00  0.00    +0.000 N 
ATOM     26  H   UNL     1       8.379   5.647  15.385  0.00  0.00    +0.000 HD
BRANCH  25  27
ATOM     27  O   UNL     1       7.595   5.265  13.495  0.00  0.00    +0.000 OA
ATOM     28  H   UNL     1       8.055   6.100  13.261  0.00  0.00    +0.000 HD
ENDBRANCH  25  27
ENDBRANCH   1  23
TORSDOF 6
ENDMDL
MODEL 6
REMARK VINA RESULT:      -7.7      4.486      6.436
REMARK  Name = 
REMARK  6 active torsions:
REMARK  status: ('A' for Active; 'I' for Inactive)
REMARK    1  A    between atoms: C_2  and  C_20
REMARK    2  A    between atoms: N_3  and  C_4
REMARK    3  A    between atoms: C_4  and  C_5
REMARK    4  A    between atoms: C_4  and  C_9
REMARK    5  A    between atoms: N_7  and  O_8
REMARK    6  A    between atoms: C_12  and  N_13
REMARK                            x       y       z     vdW  Elec       q    Type
REMARK                         _______ _______ _______ _____ _____    ______ ____
ROOT
ATOM      1  C   UNL     1       6.379   5.033  17.118  0.00  0.00    +0.000 C 
ENDROOT
BRANCH   1   2
ATOM      2  C   UNL     1       7.014   6.315  17.628  0.00  0.00    +0.000 A 
ATOM      3  C   UNL     1       6.711   7.531  17.002  0.00  0.00    +0.000 A 
ATOM      4  C   UNL     1       7.338   8.712  17.401  0.00  0.00    +0.000 A 
ATOM      5  C   UNL     1       8.287   8.698  18.430  0.00  0.00    +0.000 A 
ATOM      6  C   UNL     1       8.578   7.488  19.077  0.00  0.00    +0.000 A 
ATOM      7  C   UNL     1       7.939   6.308  18.684  0.00  0.00    +0.000 A 
BRANCH   5   8
ATOM      8  N   UNL     1       8.964   9.888  18.806  0.00  0.00    +0.000 N 
ATOM      9  C   UNL     1       9.257  10.324  20.084  0.00  0.00    +0.000 A 
ATOM     10  C   UNL     1       9.887  11.539  19.968  0.00  0.00    +0.000 A 
ATOM     11  C   UNL     1       9.944  11.771  18.588  0.00  0.00    +0.000 A 
ATOM     12  N   UNL     1       9.405  10.777  17.877  0.00  0.00    +0.000 NA
ENDBRANCH   5   8
ENDBRANCH   1   2
BRANCH   1  15
ATOM     13  O   UNL     1       5.704   3.563  19.445  0.00  0.00    +0.000 OA
ATOM     14  C   UNL     1       4.819   4.134  18.827  0.00  0.00    +0.000 C 
ATOM     15  N   UNL     1       5.046   4.878  17.687  0.00  0.00    +0.000 N 
ATOM     16  H   UNL     1       4.320   5.477  17.317  0.00  0.00    +0.000 HD
BRANCH  14  17
ATOM     17  C   UNL     1       3.400   4.060  19.287  0.00  0.00    +0.000 A 
ATOM     18  C   UNL     1       2.546   3.096  18.733  0.00  0.00    +0.000 A 
ATOM     19  C   UNL     1       1.204   3.042  19.126  0.00  0.00    +0.000 A 
ATOM     20  C   UNL     1       0.711   3.953  20.061  0.00  0.00    +0.000 A 
ATOM     21  C   UNL     1       1.555   4.917  20.608  0.00  0.00    +0.000 A 
ATOM     22  C   UNL     1       2.897   4.974  20.221  0.00  0.00    +0.000 A 
ENDBRANCH  14  17
ENDBRANCH   1  15
BRANCH   1  23
ATOM     23  C   UNL     1       6.333   4.979  15.572  0.00  0.00    +0.000 C 
ATOM     24  O   UNL     1       5.339   4.635  14.928  0.00  0.00    +0.000 OA
ATOM     25  N   UNL     1       7.513   5.313  14.944  0.00  0.00    +0.000 N 
ATOM     26  H   UNL     1       8.366   5.604  15.410  0.00  0.00    +0.000 HD
BRANCH  25  27
ATOM     27  O   UNL     1       7.533   5.259  13.534  0.00  0.00    +0.000 OA
ATOM     28  H   UNL     1       7.998   6.089  13.293  0.00  0.00    +0.000 HD
ENDBRANCH  25  27
ENDBRANCH   1  23
TORSDOF 6
ENDMDL
MODEL 7
REMARK VINA RESULT:      -7.7      4.093      5.743
REMARK  Name = 
REMARK  6 active torsions:
REMARK  status: ('A' for Active; 'I' for Inactive)
REMARK    1  A    between atoms: C_2  and  C_20
REMARK    2  A    between atoms: N_3  and  C_4
REMARK    3  A    between atoms: C_4  and  C_5
REMARK    4  A    between atoms: C_4  and  C_9
REMARK    5  A    between atoms: N_7  and  O_8
REMARK    6  A    between atoms: C_12  and  N_13
REMARK                            x       y       z     vdW  Elec       q    Type
REMARK                         _______ _______ _______ _____ _____    ______ ____
ROOT
ATOM      1  C   UNL     1       1.233   9.217  20.454  0.00  0.00    +0.000 C 
ENDROOT
BRANCH   1   2
ATOM      2  C   UNL     1       1.702   7.819  20.092  0.00  0.00    +0.000 A 
ATOM      3  C   UNL     1       2.312   7.596  18.851  0.00  0.00    +0.000 A 
ATOM      4  C   UNL     1       2.681   6.308  18.462  0.00  0.00    +0.000 A 
ATOM      5  C   UNL     1       2.443   5.217  19.306  0.00  0.00    +0.000 A 
ATOM      6  C   UNL     1       1.853   5.435  20.560  0.00  0.00    +0.000 A 
ATOM      7  C   UNL     1       1.495   6.729  20.952  0.00  0.00    +0.000 A 
BRANCH   5   8
ATOM      8  N   UNL     1       2.772   3.898  18.894  0.00  0.00    +0.000 N 
ATOM      9  C   UNL     1       3.453   2.935  19.613  0.00  0.00    +0.000 A 
ATOM     10  C   UNL     1       3.573   1.829  18.807  0.00  0.00    +0.000 A 
ATOM     11  C   UNL     1       2.935   2.197  17.616  0.00  0.00    +0.000 A 
ATOM     12  N   UNL     1       2.436   3.434  17.661  0.00  0.00    +0.000 NA
ENDBRANCH   5   8
ENDBRANCH   1   2
BRANCH   1  15
ATOM     13  O   UNL     1       0.821  11.135  18.409  0.00  0.00    +0.000 OA
ATOM     14  C   UNL     1      -0.127  10.470  18.796  0.00  0.00    +0.000 C 
ATOM     15  N   UNL     1      -0.028   9.509  19.782  0.00  0.00    +0.000 N 
ATOM     16  H   UNL     1      -0.789   8.863  19.941  0.00  0.00    +0.000 HD
BRANCH  14  17
ATOM     17  C   UNL     1      -1.484  10.662  18.205  0.00  0.00    +0.000 A 
ATOM     18  C   UNL     1      -2.393  11.525  18.833  0.00  0.00    +0.000 A 
ATOM     19  C   UNL     1      -3.682  11.683  18.312  0.00  0.00    +0.000 A 
ATOM     20  C   UNL     1      -4.068  10.975  17.173  0.00  0.00    +0.000 A 
ATOM     21  C   UNL     1      -3.170  10.111  16.550  0.00  0.00    +0.000 A 
ATOM     22  C   UNL     1      -1.880   9.951  17.065  0.00  0.00    +0.000 A 
ENDBRANCH  14  17
ENDBRANCH   1  15
BRANCH   1  23
ATOM     23  C   UNL     1       1.105   9.412  21.984  0.00  0.00    +0.000 C 
ATOM     24  O   UNL     1       2.070   9.511  22.746  0.00  0.00    +0.000 OA
ATOM     25  N   UNL     1      -0.187   9.431  22.461  0.00  0.00    +0.000 N 
ATOM     26  H   UNL     1      -1.025   9.354  21.893  0.00  0.00    +0.000 HD
BRANCH  25  27
ATOM     27  O   UNL     1      -0.362   9.584  23.853  0.00  0.00    +0.000 OA
ATOM     28  H   UNL     1      -0.212   8.674  24.190  0.00  0.00    +0.000 HD
ENDBRANCH  25  27
ENDBRANCH   1  23
TORSDOF 6
ENDMDL
MODEL 8
REMARK VINA RESULT:      -7.7      4.509      6.450
REMARK  Name = 
REMARK  6 active torsions:
REMARK  status: ('A' for Active; 'I' for Inactive)
REMARK    1  A    between atoms: C_2  and  C_20
REMARK    2  A    between atoms: N_3  and  C_4
REMARK    3  A    between atoms: C_4  and  C_5
REMARK    4  A    between atoms: C_4  and  C_9
REMARK    5  A    between atoms: N_7  and  O_8
REMARK    6  A    between atoms: C_12  and  N_13
REMARK                            x       y       z     vdW  Elec       q    Type
REMARK                         _______ _______ _______ _____ _____    ______ ____
ROOT
ATOM      1  C   UNL     1       6.655   4.764  17.351  0.00  0.00    +0.000 C 
ENDROOT
BRANCH   1   2
ATOM      2  C   UNL     1       7.173   6.129  17.769  0.00  0.00    +0.000 A 
ATOM      3  C   UNL     1       6.756   7.269  17.069  0.00  0.00    +0.000 A 
ATOM      4  C   UNL     1       7.276   8.525  17.383  0.00  0.00    +0.000 A 
ATOM      5  C   UNL     1       8.228   8.664  18.400  0.00  0.00    +0.000 A 
ATOM      6  C   UNL     1       8.633   7.531  19.120  0.00  0.00    +0.000 A 
ATOM      7  C   UNL     1       8.101   6.274  18.812  0.00  0.00    +0.000 A 
BRANCH   5   8
ATOM      8  N   UNL     1       8.797   9.933  18.690  0.00  0.00    +0.000 N 
ATOM      9  C   UNL     1       9.388  10.343  19.870  0.00  0.00    +0.000 A 
ATOM     10  C   UNL     1       9.761  11.655  19.707  0.00  0.00    +0.000 A 
ATOM     11  C   UNL     1       9.367  11.968  18.400  0.00  0.00    +0.000 A 
ATOM     12  N   UNL     1       8.799  10.936  17.773  0.00  0.00    +0.000 NA
ENDBRANCH   5   8
ENDBRANCH   1   2
BRANCH   1  15
ATOM     13  O   UNL     1       5.695   3.397  19.640  0.00  0.00    +0.000 OA
ATOM     14  C   UNL     1       4.893   3.926  18.887  0.00  0.00    +0.000 C 
ATOM     15  N   UNL     1       5.260   4.618  17.750  0.00  0.00    +0.000 N 
ATOM     16  H   UNL     1       4.584   5.189  17.261  0.00  0.00    +0.000 HD
BRANCH  14  17
ATOM     17  C   UNL     1       3.427   3.854  19.163  0.00  0.00    +0.000 A 
ATOM     18  C   UNL     1       2.861   4.723  20.107  0.00  0.00    +0.000 A 
ATOM     19  C   UNL     1       1.496   4.640  20.404  0.00  0.00    +0.000 A 
ATOM     20  C   UNL     1       0.699   3.687  19.770  0.00  0.00    +0.000 A 
ATOM     21  C   UNL     1       1.260   2.816  18.836  0.00  0.00    +0.000 A 
ATOM     22  C   UNL     1       2.622   2.898  18.534  0.00  0.00    +0.000 A 
ENDBRANCH  14  17
ENDBRANCH   1  15
BRANCH   1  23
ATOM     23  C   UNL     1       6.827   4.514  15.833  0.00  0.00    +0.000 C 
ATOM     24  O   UNL     1       7.509   5.228  15.094  0.00  0.00    +0.000 OA
ATOM     25  N   UNL     1       6.123   3.438  15.338  0.00  0.00    +0.000 N 
ATOM     26  H   UNL     1       5.544   2.811  15.887  0.00  0.00    +0.000 HD
BRANCH  25  27
ATOM     27  O   UNL     1       6.226   3.178  13.955  0.00  0.00    +0.000 OA
ATOM     28  H   UNL     1       7.189   3.031  13.835  0.00  0.00    +0.000 HD
ENDBRANCH  25  27
ENDBRANCH   1  23
TORSDOF 6
ENDMDL
MODEL 9
REMARK VINA RESULT:      -7.6      0.438      1.062
REMARK  Name = 
REMARK  6 active torsions:
REMARK  status: ('A' for Active; 'I' for Inactive)
REMARK    1  A    between atoms: C_2  and  C_20
REMARK    2  A    between atoms: N_3  and  C_4
REMARK    3  A    between atoms: C_4  and  C_5
REMARK    4  A    between atoms: C_4  and  C_9
REMARK    5  A    between atoms: N_7  and  O_8
REMARK    6  A    between atoms: C_12  and  N_13
REMARK                            x       y       z     vdW  Elec       q    Type
REMARK                         _______ _______ _______ _____ _____    ______ ____
ROOT
ATOM      1  C   UNL     1       3.364   5.354  19.027  0.00  0.00    +0.000 C 
ENDROOT
BRANCH   1   2
ATOM      2  C   UNL     1       4.240   5.182  17.798  0.00  0.00    +0.000 A 
ATOM      3  C   UNL     1       4.544   6.297  17.006  0.00  0.00    +0.000 A 
ATOM      4  C   UNL     1       5.281   6.154  15.831  0.00  0.00    +0.000 A 
ATOM      5  C   UNL     1       5.724   4.891  15.421  0.00  0.00    +0.000 A 
ATOM      6  C   UNL     1       5.443   3.773  16.220  0.00  0.00    +0.000 A 
ATOM      7  C   UNL     1       4.714   3.920  17.405  0.00  0.00    +0.000 A 
BRANCH   5   8
ATOM      8  N   UNL     1       6.433   4.734  14.200  0.00  0.00    +0.000 N 
ATOM      9  C   UNL     1       6.166   3.844  13.178  0.00  0.00    +0.000 A 
ATOM     10  C   UNL     1       7.129   4.023  12.215  0.00  0.00    +0.000 A 
ATOM     11  C   UNL     1       7.943   5.043  12.725  0.00  0.00    +0.000 A 
ATOM     12  N   UNL     1       7.525   5.490  13.911  0.00  0.00    +0.000 NA
ENDBRANCH   5   8
ENDBRANCH   1   2
BRANCH   1  15
ATOM     13  O   UNL     1       1.717   6.451  21.054  0.00  0.00    +0.000 OA
ATOM     14  C   UNL     1       1.981   7.130  20.074  0.00  0.00    +0.000 C 
ATOM     15  N   UNL     1       2.777   6.689  19.037  0.00  0.00    +0.000 N 
ATOM     16  H   UNL     1       3.115   7.340  18.342  0.00  0.00    +0.000 HD
BRANCH  14  17
ATOM     17  C   UNL     1       1.444   8.517  19.941  0.00  0.00    +0.000 A 
ATOM     18  C   UNL     1       0.803   9.116  21.035  0.00  0.00    +0.000 A 
ATOM     19  C   UNL     1       0.261  10.400  20.912  0.00  0.00    +0.000 A 
ATOM     20  C   UNL     1       0.349  11.082  19.698  0.00  0.00    +0.000 A 
ATOM     21  C   UNL     1       0.978  10.487  18.606  0.00  0.00    +0.000 A 
ATOM     22  C   UNL     1       1.524   9.206  18.725  0.00  0.00    +0.000 A 
ENDBRANCH  14  17
ENDBRANCH   1  15
BRANCH   1  23
ATOM     23  C   UNL     1       2.269   4.265  19.120  0.00  0.00    +0.000 C 
ATOM     24  O   UNL     1       1.403   4.087  18.259  0.00  0.00    +0.000 OA
ATOM     25  N   UNL     1       2.298   3.509  20.271  0.00  0.00    +0.000 N 
ATOM     26  H   UNL     1       2.979   3.601  21.019  0.00  0.00    +0.000 HD
BRANCH  25  27
ATOM     27  O   UNL     1       1.307   2.515  20.418  0.00  0.00    +0.000 OA
ATOM     28  H   UNL     1       0.558   3.013  20.810  0.00  0.00    +0.000 HD
ENDBRANCH  25  27
ENDBRANCH   1  23
TORSDOF 6
ENDMDL
