MODEL 1
REMARK VINA RESULT:      -7.3      0.000      0.000
REMARK  Name = 
REMARK  8 active torsions:
REMARK  status: ('A' for Active; 'I' for Inactive)
REMARK    1  A    between atoms: C_1  and  O_2
REMARK    2  A    between atoms: O_2  and  C_3
REMARK    3  A    between atoms: C_6  and  C_7
REMARK    4  A    between atoms: N_17  and  O_18
REMARK    5  A    between atoms: O_18  and  C_19
REMARK    6  A    between atoms: C_19  and  C_20
REMARK    7  A    between atoms: C_26  and  O_27
REMARK    8  A    between atoms: O_27  and  C_28
REMARK                            x       y       z     vdW  Elec       q    Type
REMARK                         _______ _______ _______ _____ _____    ______ ____
ROOT
ATOM      1  C   UNL     1       4.411   5.837  17.101  0.00  0.00    +0.000 C 
ATOM      2  C   UNL     1       3.186   6.184  17.976  0.00  0.00    +0.000 C 
ATOM      3  C   UNL     1       1.979   5.289  17.526  0.00  0.00    +0.000 C 
ATOM      4  C   UNL     1       2.298   3.828  17.871  0.00  0.00    +0.000 A 
ATOM      5  C   UNL     1       1.351   3.132  18.617  0.00  0.00    +0.000 A 
ATOM      6  C   UNL     1       1.813   2.674  19.816  0.00  0.00    +0.000 A 
ATOM      7  C   UNL     1       3.149   2.760  20.159  0.00  0.00    +0.000 A 
ATOM      8  C   UNL     1       4.130   3.138  19.238  0.00  0.00    +0.000 A 
ATOM      9  C   UNL     1       3.679   3.558  17.985  0.00  0.00    +0.000 A 
ATOM     10  C   UNL     1       4.445   4.309  16.941  0.00  0.00    +0.000 C 
ATOM     11  N   UNL     1       4.816   3.735  15.823  0.00  0.00    +0.000 NA
ATOM     12  O   UNL     1       3.315   2.569  21.503  0.00  0.00    +0.000 OA
ATOM     13  C   UNL     1       1.936   2.492  21.947  0.00  0.00    +0.000 C 
ATOM     14  O   UNL     1       1.010   2.324  20.861  0.00  0.00    +0.000 OA
ENDROOT
BRANCH   1  18
ATOM     15  C   UNL     1       8.043   7.902  18.350  0.00  0.00    +0.000 A 
ATOM     16  C   UNL     1       7.137   8.528  17.493  0.00  0.00    +0.000 A 
ATOM     17  C   UNL     1       6.031   7.831  16.989  0.00  0.00    +0.000 A 
ATOM     18  C   UNL     1       5.775   6.490  17.330  0.00  0.00    +0.000 A 
ATOM     19  C   UNL     1       6.741   5.854  18.116  0.00  0.00    +0.000 A 
ATOM     20  C   UNL     1       7.869   6.534  18.620  0.00  0.00    +0.000 A 
BRANCH  15  22
ATOM     21  C   UNL     1       9.061  10.000  18.847  0.00  0.00    +0.000 C 
ATOM     22  O   UNL     1       9.098   8.576  18.902  0.00  0.00    +0.000 OA
ENDBRANCH  15  22
BRANCH  20  23
ATOM     23  O   UNL     1       8.650   5.708  19.386  0.00  0.00    +0.000 OA
ATOM     24  C   UNL     1       8.174   5.298  20.658  0.00  0.00    +0.000 C 
ENDBRANCH  20  23
ENDBRANCH   1  18
BRANCH  11  25
ATOM     25  O   UNL     1       5.205   4.753  14.905  0.00  0.00    +0.000 OA
BRANCH  25  26
ATOM     26  C   UNL     1       6.423   4.608  14.342  0.00  0.00    +0.000 C 
ATOM     27  C   UNL     1       6.291   3.720  13.131  0.00  0.00    +0.000 C 
ATOM     28  O   UNL     1       7.471   5.099  14.705  0.00  0.00    +0.000 OA
ENDBRANCH  25  26
ENDBRANCH  11  25
TORSDOF 5
ENDMDL
MODEL 2
REMARK VINA RESULT:      -7.0      4.444      7.047
REMARK  Name = 
REMARK  8 active torsions:
REMARK  status: ('A' for Active; 'I' for Inactive)
REMARK    1  A    between atoms: C_1  and  O_2
REMARK    2  A    between atoms: O_2  and  C_3
REMARK    3  A    between atoms: C_6  and  C_7
REMARK    4  A    between atoms: N_17  and  O_18
REMARK    5  A    between atoms: O_18  and  C_19
REMARK    6  A    between atoms: C_19  and  C_20
REMARK    7  A    between atoms: C_26  and  O_27
REMARK    8  A    between atoms: O_27  and  C_28
REMARK                            x       y       z     vdW  Elec       q    Type
REMARK                         _______ _______ _______ _____ _____    ______ ____
ROOT
ATOM      1  C   UNL     1       2.102   7.553  19.375  0.00  0.00    +0.000 C 
ATOM      2  C   UNL     1       1.300   8.365  20.417  0.00  0.00    +0.000 C 
ATOM      3  C   UNL     1       1.698   9.876  20.289  0.00  0.00    +0.000 C 
ATOM      4  C   UNL     1       1.207  10.398  18.932  0.00  0.00    +0.000 A 
ATOM      5  C   UNL     1       0.426  11.551  18.943  0.00  0.00    +0.000 A 
ATOM      6  C   UNL     1      -0.825  11.382  18.424  0.00  0.00    +0.000 A 
ATOM      7  C   UNL     1      -1.197  10.207  17.798  0.00  0.00    +0.000 A 
ATOM      8  C   UNL     1      -0.273   9.205  17.488  0.00  0.00    +0.000 A 
ATOM      9  C   UNL     1       1.026   9.387  17.964  0.00  0.00    +0.000 A 
ATOM     10  C   UNL     1       2.114   8.364  18.070  0.00  0.00    +0.000 C 
ATOM     11  N   UNL     1       3.161   8.397  17.283  0.00  0.00    +0.000 NA
ATOM     12  O   UNL     1      -2.558  10.135  17.677  0.00  0.00    +0.000 OA
ATOM     13  C   UNL     1      -2.966  11.320  18.409  0.00  0.00    +0.000 C 
ATOM     14  O   UNL     1      -1.873  12.216  18.671  0.00  0.00    +0.000 OA
ENDROOT
BRANCH   1  18
ATOM     15  C   UNL     1       2.179   3.240  18.730  0.00  0.00    +0.000 A 
ATOM     16  C   UNL     1       1.778   4.099  17.705  0.00  0.00    +0.000 A 
ATOM     17  C   UNL     1       1.633   5.473  17.938  0.00  0.00    +0.000 A 
ATOM     18  C   UNL     1       1.895   6.048  19.195  0.00  0.00    +0.000 A 
ATOM     19  C   UNL     1       2.206   5.162  20.231  0.00  0.00    +0.000 A 
ATOM     20  C   UNL     1       2.342   3.774  20.019  0.00  0.00    +0.000 A 
BRANCH  15  22
ATOM     21  C   UNL     1       3.710   1.495  18.185  0.00  0.00    +0.000 C 
ATOM     22  O   UNL     1       2.384   1.905  18.515  0.00  0.00    +0.000 OA
ENDBRANCH  15  22
BRANCH  20  23
ATOM     23  O   UNL     1       2.681   3.122  21.177  0.00  0.00    +0.000 OA
ATOM     24  C   UNL     1       1.657   2.525  21.954  0.00  0.00    +0.000 C 
ENDBRANCH  20  23
ENDBRANCH   1  18
BRANCH  11  25
ATOM     25  O   UNL     1       4.160   7.541  17.829  0.00  0.00    +0.000 OA
BRANCH  25  26
ATOM     26  C   UNL     1       4.832   6.776  16.944  0.00  0.00    +0.000 C 
ATOM     27  C   UNL     1       5.314   5.534  17.649  0.00  0.00    +0.000 C 
ATOM     28  O   UNL     1       5.029   7.001  15.768  0.00  0.00    +0.000 OA
ENDBRANCH  25  26
ENDBRANCH  11  25
TORSDOF 5
ENDMDL
MODEL 3
REMARK VINA RESULT:      -6.9      1.964      6.787
REMARK  Name = 
REMARK  8 active torsions:
REMARK  status: ('A' for Active; 'I' for Inactive)
REMARK    1  A    between atoms: C_1  and  O_2
REMARK    2  A    between atoms: O_2  and  C_3
REMARK    3  A    between atoms: C_6  and  C_7
REMARK    4  A    between atoms: N_17  and  O_18
REMARK    5  A    between atoms: O_18  and  C_19
REMARK    6  A    between atoms: C_19  and  C_20
REMARK    7  A    between atoms: C_26  and  O_27
REMARK    8  A    between atoms: O_27  and  C_28
REMARK                            x       y       z     vdW  Elec       q    Type
REMARK                         _______ _______ _______ _____ _____    ______ ____
ROOT
ATOM      1  C   UNL     1       5.019   5.606  17.175  0.00  0.00    +0.000 C 
ATOM      2  C   UNL     1       4.970   6.418  15.862  0.00  0.00    +0.000 C 
ATOM      3  C   UNL     1       6.438   6.644  15.358  0.00  0.00    +0.000 C 
ATOM      4  C   UNL     1       7.029   5.287  14.950  0.00  0.00    +0.000 A 
ATOM      5  C   UNL     1       7.579   5.194  13.675  0.00  0.00    +0.000 A 
ATOM      6  C   UNL     1       6.979   4.265  12.875  0.00  0.00    +0.000 A 
ATOM      7  C   UNL     1       6.026   3.393  13.367  0.00  0.00    +0.000 A 
ATOM      8  C   UNL     1       5.759   3.277  14.734  0.00  0.00    +0.000 A 
ATOM      9  C   UNL     1       6.406   4.184  15.574  0.00  0.00    +0.000 A 
ATOM     10  C   UNL     1       6.079   4.508  16.998  0.00  0.00    +0.000 C 
ATOM     11  N   UNL     1       6.862   4.133  17.981  0.00  0.00    +0.000 NA
ATOM     12  O   UNL     1       5.331   2.811  12.342  0.00  0.00    +0.000 OA
ATOM     13  C   UNL     1       5.873   3.520  11.198  0.00  0.00    +0.000 C 
ATOM     14  O   UNL     1       7.066   4.257  11.516  0.00  0.00    +0.000 OA
ENDROOT
BRANCH   1  18
ATOM     15  C   UNL     1       1.800   4.120  19.716  0.00  0.00    +0.000 A 
ATOM     16  C   UNL     1       2.287   3.338  18.667  0.00  0.00    +0.000 A 
ATOM     17  C   UNL     1       3.234   3.852  17.772  0.00  0.00    +0.000 A 
ATOM     18  C   UNL     1       3.744   5.159  17.893  0.00  0.00    +0.000 A 
ATOM     19  C   UNL     1       3.178   5.956  18.892  0.00  0.00    +0.000 A 
ATOM     20  C   UNL     1       2.212   5.461  19.794  0.00  0.00    +0.000 A 
BRANCH  15  22
ATOM     21  C   UNL     1       1.451   2.777  21.655  0.00  0.00    +0.000 C 
ATOM     22  O   UNL     1       0.920   3.624  20.638  0.00  0.00    +0.000 OA
ENDBRANCH  15  22
BRANCH  20  23
ATOM     23  O   UNL     1       1.834   6.420  20.698  0.00  0.00    +0.000 OA
ATOM     24  C   UNL     1       1.827   7.779  20.295  0.00  0.00    +0.000 C 
ENDBRANCH  20  23
ENDBRANCH   1  18
BRANCH  11  25
ATOM     25  O   UNL     1       6.493   4.860  19.149  0.00  0.00    +0.000 OA
BRANCH  25  26
ATOM     26  C   UNL     1       7.488   5.530  19.767  0.00  0.00    +0.000 C 
ATOM     27  C   UNL     1       7.975   6.622  18.850  0.00  0.00    +0.000 C 
ATOM     28  O   UNL     1       7.940   5.332  20.876  0.00  0.00    +0.000 OA
ENDBRANCH  25  26
ENDBRANCH  11  25
TORSDOF 5
ENDMDL
MODEL 4
REMARK VINA RESULT:      -6.7      1.990      5.256
REMARK  Name = 
REMARK  8 active torsions:
REMARK  status: ('A' for Active; 'I' for Inactive)
REMARK    1  A    between atoms: C_1  and  O_2
REMARK    2  A    between atoms: O_2  and  C_3
REMARK    3  A    between atoms: C_6  and  C_7
REMARK    4  A    between atoms: N_17  and  O_18
REMARK    5  A    between atoms: O_18  and  C_19
REMARK    6  A    between atoms: C_19  and  C_20
REMARK    7  A    between atoms: C_26  and  O_27
REMARK    8  A    between atoms: O_27  and  C_28
REMARK                            x       y       z     vdW  Elec       q    Type
REMARK                         _______ _______ _______ _____ _____    ______ ____
ROOT
ATOM      1  C   UNL     1       5.998   4.962  16.768  0.00  0.00    +0.000 C 
ATOM      2  C   UNL     1       5.776   3.714  17.652  0.00  0.00    +0.000 C 
ATOM      3  C   UNL     1       5.525   4.183  19.127  0.00  0.00    +0.000 C 
ATOM      4  C   UNL     1       4.189   4.936  19.181  0.00  0.00    +0.000 A 
ATOM      5  C   UNL     1       3.260   4.511  20.127  0.00  0.00    +0.000 A 
ATOM      6  C   UNL     1       2.078   4.086  19.596  0.00  0.00    +0.000 A 
ATOM      7  C   UNL     1       1.793   4.232  18.251  0.00  0.00    +0.000 A 
ATOM      8  C   UNL     1       2.602   4.988  17.398  0.00  0.00    +0.000 A 
ATOM      9  C   UNL     1       3.791   5.478  17.940  0.00  0.00    +0.000 A 
ATOM     10  C   UNL     1       4.976   6.023  17.205  0.00  0.00    +0.000 C 
ATOM     11  N   UNL     1       5.270   7.300  17.234  0.00  0.00    +0.000 NA
ATOM     12  O   UNL     1       0.736   3.440  17.893  0.00  0.00    +0.000 OA
ATOM     13  C   UNL     1       0.505   2.710  19.125  0.00  0.00    +0.000 C 
ATOM     14  O   UNL     1       1.191   3.284  20.250  0.00  0.00    +0.000 OA
ENDROOT
BRANCH   1  18
ATOM     15  C   UNL     1       6.843   4.032  12.592  0.00  0.00    +0.000 A 
ATOM     16  C   UNL     1       7.733   4.809  13.334  0.00  0.00    +0.000 A 
ATOM     17  C   UNL     1       7.415   5.214  14.637  0.00  0.00    +0.000 A 
ATOM     18  C   UNL     1       6.204   4.851  15.257  0.00  0.00    +0.000 A 
ATOM     19  C   UNL     1       5.288   4.151  14.466  0.00  0.00    +0.000 A 
ATOM     20  C   UNL     1       5.584   3.747  13.148  0.00  0.00    +0.000 A 
BRANCH  15  22
ATOM     21  C   UNL     1       7.443   2.183  11.210  0.00  0.00    +0.000 C 
ATOM     22  O   UNL     1       7.154   3.574  11.341  0.00  0.00    +0.000 OA
ENDBRANCH  15  22
BRANCH  20  23
ATOM     23  O   UNL     1       4.543   3.050  12.592  0.00  0.00    +0.000 OA
ATOM     24  C   UNL     1       4.007   3.486  11.354  0.00  0.00    +0.000 C 
ENDBRANCH  20  23
ENDBRANCH   1  18
BRANCH  11  25
ATOM     25  O   UNL     1       6.600   7.465  16.753  0.00  0.00    +0.000 OA
BRANCH  25  26
ATOM     26  C   UNL     1       7.468   8.053  17.603  0.00  0.00    +0.000 C 
ATOM     27  C   UNL     1       8.069   6.992  18.489  0.00  0.00    +0.000 C 
ATOM     28  O   UNL     1       7.757   9.230  17.672  0.00  0.00    +0.000 OA
ENDBRANCH  25  26
ENDBRANCH  11  25
TORSDOF 5
ENDMDL
MODEL 5
REMARK VINA RESULT:      -6.3      8.240     10.072
REMARK  Name = 
REMARK  8 active torsions:
REMARK  status: ('A' for Active; 'I' for Inactive)
REMARK    1  A    between atoms: C_1  and  O_2
REMARK    2  A    between atoms: O_2  and  C_3
REMARK    3  A    between atoms: C_6  and  C_7
REMARK    4  A    between atoms: N_17  and  O_18
REMARK    5  A    between atoms: O_18  and  C_19
REMARK    6  A    between atoms: C_19  and  C_20
REMARK    7  A    between atoms: C_26  and  O_27
REMARK    8  A    between atoms: O_27  and  C_28
REMARK                            x       y       z     vdW  Elec       q    Type
REMARK                         _______ _______ _______ _____ _____    ______ ____
ROOT
ATOM      1  C   UNL     1       0.129  11.993  18.745  0.00  0.00    +0.000 C 
ATOM      2  C   UNL     1       0.965  13.153  19.331  0.00  0.00    +0.000 C 
ATOM      3  C   UNL     1       0.212  14.501  19.057  0.00  0.00    +0.000 C 
ATOM      4  C   UNL     1      -1.088  14.510  19.874  0.00  0.00    +0.000 A 
ATOM      5  C   UNL     1      -1.311  15.613  20.694  0.00  0.00    +0.000 A 
ATOM      6  C   UNL     1      -1.428  15.308  22.018  0.00  0.00    +0.000 A 
ATOM      7  C   UNL     1      -1.484  13.998  22.458  0.00  0.00    +0.000 A 
ATOM      8  C   UNL     1      -1.618  12.923  21.576  0.00  0.00    +0.000 A 
ATOM      9  C   UNL     1      -1.556  13.223  20.214  0.00  0.00    +0.000 A 
ATOM     10  C   UNL     1      -1.345  12.274  19.076  0.00  0.00    +0.000 C 
ATOM     11  N   UNL     1      -2.312  11.985  18.240  0.00  0.00    +0.000 NA
ATOM     12  O   UNL     1      -1.251  13.932  23.805  0.00  0.00    +0.000 OA
ATOM     13  C   UNL     1      -0.920  15.314  24.100  0.00  0.00    +0.000 C 
ATOM     14  O   UNL     1      -1.261  16.208  23.027  0.00  0.00    +0.000 OA
ENDROOT
BRANCH   1  18
ATOM     15  C   UNL     1       1.926   8.081  19.449  0.00  0.00    +0.000 A 
ATOM     16  C   UNL     1       1.967   8.657  18.178  0.00  0.00    +0.000 A 
ATOM     17  C   UNL     1       1.289   9.854  17.912  0.00  0.00    +0.000 A 
ATOM     18  C   UNL     1       0.557  10.532  18.904  0.00  0.00    +0.000 A 
ATOM     19  C   UNL     1       0.452   9.895  20.144  0.00  0.00    +0.000 A 
ATOM     20  C   UNL     1       1.115   8.682  20.426  0.00  0.00    +0.000 A 
BRANCH  15  22
ATOM     21  C   UNL     1       2.762   5.972  18.717  0.00  0.00    +0.000 C 
ATOM     22  O   UNL     1       2.627   6.945  19.750  0.00  0.00    +0.000 OA
ENDBRANCH  15  22
BRANCH  20  23
ATOM     23  O   UNL     1       0.885   8.275  21.714  0.00  0.00    +0.000 OA
ATOM     24  C   UNL     1       0.761   9.254  22.733  0.00  0.00    +0.000 C 
ENDBRANCH  20  23
ENDBRANCH   1  18
BRANCH  11  25
ATOM     25  O   UNL     1      -1.742  11.354  17.097  0.00  0.00    +0.000 OA
BRANCH  25  26
ATOM     26  C   UNL     1      -2.510  10.423  16.492  0.00  0.00    +0.000 C 
ATOM     27  C   UNL     1      -3.213   9.615  17.551  0.00  0.00    +0.000 C 
ATOM     28  O   UNL     1      -2.652  10.239  15.300  0.00  0.00    +0.000 OA
ENDBRANCH  25  26
ENDBRANCH  11  25
TORSDOF 5
ENDMDL
MODEL 6
REMARK VINA RESULT:      -6.3      8.062     10.355
REMARK  Name = 
REMARK  8 active torsions:
REMARK  status: ('A' for Active; 'I' for Inactive)
REMARK    1  A    between atoms: C_1  and  O_2
REMARK    2  A    between atoms: O_2  and  C_3
REMARK    3  A    between atoms: C_6  and  C_7
REMARK    4  A    between atoms: N_17  and  O_18
REMARK    5  A    between atoms: O_18  and  C_19
REMARK    6  A    between atoms: C_19  and  C_20
REMARK    7  A    between atoms: C_26  and  O_27
REMARK    8  A    between atoms: O_27  and  C_28
REMARK                            x       y       z     vdW  Elec       q    Type
REMARK                         _______ _______ _______ _____ _____    ______ ____
ROOT
ATOM      1  C   UNL     1      -0.580  11.230  19.917  0.00  0.00    +0.000 C 
ATOM      2  C   UNL     1      -0.837  10.139  18.853  0.00  0.00    +0.000 C 
ATOM      3  C   UNL     1       0.407  10.064  17.901  0.00  0.00    +0.000 C 
ATOM      4  C   UNL     1       1.607   9.544  18.704  0.00  0.00    +0.000 A 
ATOM      5  C   UNL     1       2.291   8.449  18.183  0.00  0.00    +0.000 A 
ATOM      6  C   UNL     1       2.297   7.356  18.998  0.00  0.00    +0.000 A 
ATOM      7  C   UNL     1       1.807   7.411  20.289  0.00  0.00    +0.000 A 
ATOM      8  C   UNL     1       1.457   8.619  20.900  0.00  0.00    +0.000 A 
ATOM      9  C   UNL     1       1.497   9.758  20.095  0.00  0.00    +0.000 A 
ATOM     10  C   UNL     1       0.883  11.096  20.369  0.00  0.00    +0.000 C 
ATOM     11  N   UNL     1       1.621  12.140  20.654  0.00  0.00    +0.000 NA
ATOM     12  O   UNL     1       1.596   6.151  20.779  0.00  0.00    +0.000 OA
ATOM     13  C   UNL     1       1.883   5.344  19.608  0.00  0.00    +0.000 C 
ATOM     14  O   UNL     1       2.546   6.086  18.571  0.00  0.00    +0.000 OA
ENDROOT
BRANCH   1  18
ATOM     15  C   UNL     1      -3.105  12.621  23.189  0.00  0.00    +0.000 A 
ATOM     16  C   UNL     1      -2.033  11.764  23.442  0.00  0.00    +0.000 A 
ATOM     17  C   UNL     1      -1.291  11.216  22.388  0.00  0.00    +0.000 A 
ATOM     18  C   UNL     1      -1.578  11.509  21.042  0.00  0.00    +0.000 A 
ATOM     19  C   UNL     1      -2.710  12.295  20.805  0.00  0.00    +0.000 A 
ATOM     20  C   UNL     1      -3.478  12.844  21.853  0.00  0.00    +0.000 A 
BRANCH  15  22
ATOM     21  C   UNL     1      -4.765  12.412  24.888  0.00  0.00    +0.000 C 
ATOM     22  O   UNL     1      -3.809  13.216  24.200  0.00  0.00    +0.000 OA
ENDBRANCH  15  22
BRANCH  20  23
ATOM     23  O   UNL     1      -4.514  13.601  21.370  0.00  0.00    +0.000 OA
ATOM     24  C   UNL     1      -5.691  12.948  20.923  0.00  0.00    +0.000 C 
ENDBRANCH  20  23
ENDBRANCH   1  18
BRANCH  11  25
ATOM     25  O   UNL     1       0.815  13.308  20.524  0.00  0.00    +0.000 OA
BRANCH  25  26
ATOM     26  C   UNL     1       0.970  14.244  21.483  0.00  0.00    +0.000 C 
ATOM     27  C   UNL     1      -0.314  15.024  21.608  0.00  0.00    +0.000 C 
ATOM     28  O   UNL     1       1.952  14.452  22.165  0.00  0.00    +0.000 OA
ENDBRANCH  25  26
ENDBRANCH  11  25
TORSDOF 5
ENDMDL
MODEL 7
REMARK VINA RESULT:      -6.3      7.355     10.049
REMARK  Name = 
REMARK  8 active torsions:
REMARK  status: ('A' for Active; 'I' for Inactive)
REMARK    1  A    between atoms: C_1  and  O_2
REMARK    2  A    between atoms: O_2  and  C_3
REMARK    3  A    between atoms: C_6  and  C_7
REMARK    4  A    between atoms: N_17  and  O_18
REMARK    5  A    between atoms: O_18  and  C_19
REMARK    6  A    between atoms: C_19  and  C_20
REMARK    7  A    between atoms: C_26  and  O_27
REMARK    8  A    between atoms: O_27  and  C_28
REMARK                            x       y       z     vdW  Elec       q    Type
REMARK                         _______ _______ _______ _____ _____    ______ ____
ROOT
ATOM      1  C   UNL     1       1.245  11.856  18.311  0.00  0.00    +0.000 C 
ATOM      2  C   UNL     1       2.557  12.655  18.139  0.00  0.00    +0.000 C 
ATOM      3  C   UNL     1       2.197  14.150  17.832  0.00  0.00    +0.000 C 
ATOM      4  C   UNL     1       1.534  14.759  19.075  0.00  0.00    +0.000 A 
ATOM      5  C   UNL     1       2.075  15.946  19.562  0.00  0.00    +0.000 A 
ATOM      6  C   UNL     1       2.541  15.862  20.842  0.00  0.00    +0.000 A 
ATOM      7  C   UNL     1       2.330  14.738  21.618  0.00  0.00    +0.000 A 
ATOM      8  C   UNL     1       1.473  13.709  21.218  0.00  0.00    +0.000 A 
ATOM      9  C   UNL     1       0.943  13.805  19.930  0.00  0.00    +0.000 A 
ATOM     10  C   UNL     1       0.280  12.728  19.130  0.00  0.00    +0.000 C 
ATOM     11  N   UNL     1      -1.009  12.749  18.892  0.00  0.00    +0.000 NA
ATOM     12  O   UNL     1       3.164  14.738  22.703  0.00  0.00    +0.000 OA
ATOM     13  C   UNL     1       3.982  15.904  22.426  0.00  0.00    +0.000 C 
ATOM     14  O   UNL     1       3.436  16.733  21.387  0.00  0.00    +0.000 OA
ENDROOT
BRANCH   1  18
ATOM     15  C   UNL     1       1.838   7.765  19.702  0.00  0.00    +0.000 A 
ATOM     16  C   UNL     1       2.207   8.129  18.406  0.00  0.00    +0.000 A 
ATOM     17  C   UNL     1       1.911   9.405  17.909  0.00  0.00    +0.000 A 
ATOM     18  C   UNL     1       1.249  10.373  18.687  0.00  0.00    +0.000 A 
ATOM     19  C   UNL     1       0.807   9.961  19.948  0.00  0.00    +0.000 A 
ATOM     20  C   UNL     1       1.083   8.676  20.459  0.00  0.00    +0.000 A 
BRANCH  15  22
ATOM     21  C   UNL     1       2.593   5.536  19.321  0.00  0.00    +0.000 C 
ATOM     22  O   UNL     1       2.167   6.548  20.232  0.00  0.00    +0.000 OA
ENDBRANCH  15  22
BRANCH  20  23
ATOM     23  O   UNL     1       0.575   8.522  21.723  0.00  0.00    +0.000 OA
ATOM     24  C   UNL     1       0.767   9.558  22.672  0.00  0.00    +0.000 C 
ENDBRANCH  20  23
ENDBRANCH   1  18
BRANCH  11  25
ATOM     25  O   UNL     1      -1.287  11.820  17.848  0.00  0.00    +0.000 OA
BRANCH  25  26
ATOM     26  C   UNL     1      -2.476  11.187  17.922  0.00  0.00    +0.000 C 
ATOM     27  C   UNL     1      -2.407   9.933  17.087  0.00  0.00    +0.000 C 
ATOM     28  O   UNL     1      -3.459  11.523  18.550  0.00  0.00    +0.000 OA
ENDBRANCH  25  26
ENDBRANCH  11  25
TORSDOF 5
ENDMDL
MODEL 8
REMARK VINA RESULT:      -6.2      3.269      6.686
REMARK  Name = 
REMARK  8 active torsions:
REMARK  status: ('A' for Active; 'I' for Inactive)
REMARK    1  A    between atoms: C_1  and  O_2
REMARK    2  A    between atoms: O_2  and  C_3
REMARK    3  A    between atoms: C_6  and  C_7
REMARK    4  A    between atoms: N_17  and  O_18
REMARK    5  A    between atoms: O_18  and  C_19
REMARK    6  A    between atoms: C_19  and  C_20
REMARK    7  A    between atoms: C_26  and  O_27
REMARK    8  A    between atoms: O_27  and  C_28
REMARK                            x       y       z     vdW  Elec       q    Type
REMARK                         _______ _______ _______ _____ _____    ______ ____
ROOT
ATOM      1  C   UNL     1       3.367   5.870  19.156  0.00  0.00    +0.000 C 
ATOM      2  C   UNL     1       4.904   5.773  19.274  0.00  0.00    +0.000 C 
ATOM      3  C   UNL     1       5.337   4.294  18.983  0.00  0.00    +0.000 C 
ATOM      4  C   UNL     1       5.043   3.980  17.509  0.00  0.00    +0.000 A 
ATOM      5  C   UNL     1       6.092   3.470  16.750  0.00  0.00    +0.000 A 
ATOM      6  C   UNL     1       6.434   4.245  15.680  0.00  0.00    +0.000 A 
ATOM      7  C   UNL     1       5.681   5.344  15.311  0.00  0.00    +0.000 A 
ATOM      8  C   UNL     1       4.434   5.615  15.881  0.00  0.00    +0.000 A 
ATOM      9  C   UNL     1       4.042   4.797  16.942  0.00  0.00    +0.000 A 
ATOM     10  C   UNL     1       2.946   5.043  17.931  0.00  0.00    +0.000 C 
ATOM     11  N   UNL     1       1.841   4.338  17.915  0.00  0.00    +0.000 NA
ATOM     12  O   UNL     1       6.387   6.148  14.458  0.00  0.00    +0.000 OA
ATOM     13  C   UNL     1       7.680   5.489  14.460  0.00  0.00    +0.000 C 
ATOM     14  O   UNL     1       7.634   4.174  15.038  0.00  0.00    +0.000 OA
ENDROOT
BRANCH   1  18
ATOM     15  C   UNL     1       0.715   9.324  19.401  0.00  0.00    +0.000 A 
ATOM     16  C   UNL     1       1.536   9.145  18.288  0.00  0.00    +0.000 A 
ATOM     17  C   UNL     1       2.478   8.108  18.252  0.00  0.00    +0.000 A 
ATOM     18  C   UNL     1       2.629   7.200  19.317  0.00  0.00    +0.000 A 
ATOM     19  C   UNL     1       1.862   7.450  20.459  0.00  0.00    +0.000 A 
ATOM     20  C   UNL     1       0.919   8.498  20.519  0.00  0.00    +0.000 A 
BRANCH  15  22
ATOM     21  C   UNL     1      -1.015  10.492  18.249  0.00  0.00    +0.000 C 
ATOM     22  O   UNL     1      -0.252  10.291  19.437  0.00  0.00    +0.000 OA
ENDBRANCH  15  22
BRANCH  20  23
ATOM     23  O   UNL     1       0.272   8.520  21.728  0.00  0.00    +0.000 OA
ATOM     24  C   UNL     1       0.739   9.395  22.741  0.00  0.00    +0.000 C 
ENDBRANCH  20  23
ENDBRANCH   1  18
BRANCH  11  25
ATOM     25  O   UNL     1       1.157   4.548  19.147  0.00  0.00    +0.000 OA
BRANCH  25  26
ATOM     26  C   UNL     1       0.836   3.437  19.842  0.00  0.00    +0.000 C 
ATOM     27  C   UNL     1       1.463   3.526  21.210  0.00  0.00    +0.000 C 
ATOM     28  O   UNL     1       0.152   2.504  19.475  0.00  0.00    +0.000 OA
ENDBRANCH  25  26
ENDBRANCH  11  25
TORSDOF 5
ENDMDL
MODEL 9
REMARK VINA RESULT:      -6.2      6.916      9.893
REMARK  Name = 
REMARK  8 active torsions:
REMARK  status: ('A' for Active; 'I' for Inactive)
REMARK    1  A    between atoms: C_1  and  O_2
REMARK    2  A    between atoms: O_2  and  C_3
REMARK    3  A    between atoms: C_6  and  C_7
REMARK    4  A    between atoms: N_17  and  O_18
REMARK    5  A    between atoms: O_18  and  C_19
REMARK    6  A    between atoms: C_19  and  C_20
REMARK    7  A    between atoms: C_26  and  O_27
REMARK    8  A    between atoms: O_27  and  C_28
REMARK                            x       y       z     vdW  Elec       q    Type
REMARK                         _______ _______ _______ _____ _____    ______ ____
ROOT
ATOM      1  C   UNL     1       0.324  11.063  19.303  0.00  0.00    +0.000 C 
ATOM      2  C   UNL     1      -0.186  12.039  18.220  0.00  0.00    +0.000 C 
ATOM      3  C   UNL     1      -0.720  13.335  18.924  0.00  0.00    +0.000 C 
ATOM      4  C   UNL     1       0.466  14.063  19.572  0.00  0.00    +0.000 A 
ATOM      5  C   UNL     1       0.633  15.408  19.254  0.00  0.00    +0.000 A 
ATOM      6  C   UNL     1       1.823  15.695  18.652  0.00  0.00    +0.000 A 
ATOM      7  C   UNL     1       2.823  14.748  18.534  0.00  0.00    +0.000 A 
ATOM      8  C   UNL     1       2.756  13.513  19.185  0.00  0.00    +0.000 A 
ATOM      9  C   UNL     1       1.565  13.223  19.852  0.00  0.00    +0.000 A 
ATOM     10  C   UNL     1       1.092  11.891  20.345  0.00  0.00    +0.000 C 
ATOM     11  N   UNL     1       1.044  11.615  21.625  0.00  0.00    +0.000 NA
ATOM     12  O   UNL     1       3.755  15.143  17.614  0.00  0.00    +0.000 OA
ATOM     13  C   UNL     1       3.143  16.354  17.099  0.00  0.00    +0.000 C 
ATOM     14  O   UNL     1       2.055  16.818  17.915  0.00  0.00    +0.000 OA
ENDROOT
BRANCH   1  18
ATOM     15  C   UNL     1       2.731   7.501  18.565  0.00  0.00    +0.000 A 
ATOM     16  C   UNL     1       2.563   8.458  17.563  0.00  0.00    +0.000 A 
ATOM     17  C   UNL     1       1.696   9.543  17.747  0.00  0.00    +0.000 A 
ATOM     18  C   UNL     1       0.973   9.726  18.940  0.00  0.00    +0.000 A 
ATOM     19  C   UNL     1       1.084   8.711  19.895  0.00  0.00    +0.000 A 
ATOM     20  C   UNL     1       1.941   7.603  19.722  0.00  0.00    +0.000 A 
BRANCH  15  22
ATOM     21  C   UNL     1       4.611   6.584  17.419  0.00  0.00    +0.000 C 
ATOM     22  O   UNL     1       3.615   6.466  18.434  0.00  0.00    +0.000 OA
ENDBRANCH  15  22
BRANCH  20  23
ATOM     23  O   UNL     1       1.900   6.765  20.805  0.00  0.00    +0.000 OA
ATOM     24  C   UNL     1       1.572   5.400  20.605  0.00  0.00    +0.000 C 
ENDBRANCH  20  23
ENDBRANCH   1  18
BRANCH  11  25
ATOM     25  O   UNL     1       0.249  10.446  21.801  0.00  0.00    +0.000 OA
BRANCH  25  26
ATOM     26  C   UNL     1      -0.272  10.265  23.033  0.00  0.00    +0.000 C 
ATOM     27  C   UNL     1      -1.547  11.061  23.139  0.00  0.00    +0.000 C 
ATOM     28  O   UNL     1       0.169   9.578  23.932  0.00  0.00    +0.000 OA
ENDBRANCH  25  26
ENDBRANCH  11  25
TORSDOF 5
ENDMDL
