MODEL 1
REMARK VINA RESULT:      -6.8      0.000      0.000
REMARK  Name = 
REMARK  7 active torsions:
REMARK  status: ('A' for Active; 'I' for Inactive)
REMARK    1  A    between atoms: C_1  and  C_2
REMARK    2  A    between atoms: C_2  and  C_3
REMARK    3  A    between atoms: C_2  and  N_11
REMARK    4  A    between atoms: C_3  and  C_4
REMARK    5  A    between atoms: C_4  and  C_5
REMARK    6  A    between atoms: C_12  and  C_14
REMARK    7  A    between atoms: C_14  and  N_15
REMARK                            x       y       z     vdW  Elec       q    Type
REMARK                         _______ _______ _______ _____ _____    ______ ____
ROOT
ATOM      1  N   UNL     1       3.377   3.635  19.200  0.00  0.00    +0.000 N 
ATOM      2  C   UNL     1       3.392   3.630  17.818  0.00  0.00    +0.000 C 
ATOM      3  O   UNL     1       2.378   3.486  17.139  0.00  0.00    +0.000 OA
ATOM      4  H   UNL     1       4.240   3.364  19.652  0.00  0.00    +0.000 HD
ENDROOT
BRANCH   1   6
ATOM      5  C   UNL     1       2.395   2.706  21.244  0.00  0.00    +0.000 C 
ATOM      6  C   UNL     1       2.125   3.456  19.936  0.00  0.00    +0.000 C 
BRANCH   6   7
ATOM      7  C   UNL     1       1.425   4.795  20.270  0.00  0.00    +0.000 C 
BRANCH   7   8
ATOM      8  C   UNL     1       2.370   5.952  20.608  0.00  0.00    +0.000 C 
BRANCH   8   9
ATOM      9  C   UNL     1       2.041   7.211  19.860  0.00  0.00    +0.000 A 
ATOM     10  C   UNL     1       2.402   7.338  18.511  0.00  0.00    +0.000 A 
ATOM     11  C   UNL     1       2.089   8.498  17.805  0.00  0.00    +0.000 A 
ATOM     12  C   UNL     1       1.417   9.540  18.445  0.00  0.00    +0.000 A 
ATOM     13  C   UNL     1       1.054   9.419  19.785  0.00  0.00    +0.000 A 
ATOM     14  C   UNL     1       1.364   8.261  20.496  0.00  0.00    +0.000 A 
ENDBRANCH   8   9
ENDBRANCH   7   8
ENDBRANCH   6   7
ENDBRANCH   1   6
BRANCH   2  15
ATOM     15  C   UNL     1       4.760   3.859  17.170  0.00  0.00    +0.000 C 
BRANCH  15  16
ATOM     16  N   UNL     1       4.746   5.044  16.282  0.00  0.00    +0.000 NA
ATOM     17  C   UNL     1       5.459   4.753  15.016  0.00  0.00    +0.000 C 
ATOM     18  C   UNL     1       6.990   4.652  15.158  0.00  0.00    +0.000 C 
ATOM     19  O   UNL     1       7.550   5.817  15.776  0.00  0.00    +0.000 OA
ATOM     20  C   UNL     1       6.934   6.073  17.046  0.00  0.00    +0.000 C 
ATOM     21  C   UNL     1       5.414   6.228  16.887  0.00  0.00    +0.000 C 
ENDBRANCH  15  16
ENDBRANCH   2  15
TORSDOF 6
ENDMDL
MODEL 2
REMARK VINA RESULT:      -6.8      0.771      1.386
REMARK  Name = 
REMARK  7 active torsions:
REMARK  status: ('A' for Active; 'I' for Inactive)
REMARK    1  A    between atoms: C_1  and  C_2
REMARK    2  A    between atoms: C_2  and  C_3
REMARK    3  A    between atoms: C_2  and  N_11
REMARK    4  A    between atoms: C_3  and  C_4
REMARK    5  A    between atoms: C_4  and  C_5
REMARK    6  A    between atoms: C_12  and  C_14
REMARK    7  A    between atoms: C_14  and  N_15
REMARK                            x       y       z     vdW  Elec       q    Type
REMARK                         _______ _______ _______ _____ _____    ______ ____
ROOT
ATOM      1  N   UNL     1       2.982   3.554  19.398  0.00  0.00    +0.000 N 
ATOM      2  C   UNL     1       2.997   3.459  18.019  0.00  0.00    +0.000 C 
ATOM      3  O   UNL     1       1.981   3.290  17.349  0.00  0.00    +0.000 OA
ATOM      4  H   UNL     1       3.840   3.297  19.868  0.00  0.00    +0.000 HD
ENDROOT
BRANCH   1   6
ATOM      5  C   UNL     1       1.967   2.716  21.464  0.00  0.00    +0.000 C 
ATOM      6  C   UNL     1       1.727   3.449  20.141  0.00  0.00    +0.000 C 
BRANCH   6   7
ATOM      7  C   UNL     1       1.091   4.827  20.449  0.00  0.00    +0.000 C 
BRANCH   7   8
ATOM      8  C   UNL     1       2.089   5.939  20.782  0.00  0.00    +0.000 C 
BRANCH   8   9
ATOM      9  C   UNL     1       1.906   7.161  19.930  0.00  0.00    +0.000 A 
ATOM     10  C   UNL     1       1.248   8.285  20.449  0.00  0.00    +0.000 A 
ATOM     11  C   UNL     1       1.085   9.428  19.669  0.00  0.00    +0.000 A 
ATOM     12  C   UNL     1       1.574   9.451  18.363  0.00  0.00    +0.000 A 
ATOM     13  C   UNL     1       2.228   8.338  17.840  0.00  0.00    +0.000 A 
ATOM     14  C   UNL     1       2.396   7.193  18.617  0.00  0.00    +0.000 A 
ENDBRANCH   8   9
ENDBRANCH   7   8
ENDBRANCH   6   7
ENDBRANCH   1   6
BRANCH   2  15
ATOM     15  C   UNL     1       4.370   3.617  17.359  0.00  0.00    +0.000 C 
BRANCH  15  16
ATOM     16  N   UNL     1       4.932   4.966  17.596  0.00  0.00    +0.000 NA
ATOM     17  C   UNL     1       5.064   5.705  16.319  0.00  0.00    +0.000 C 
ATOM     18  C   UNL     1       6.197   5.196  15.405  0.00  0.00    +0.000 C 
ATOM     19  O   UNL     1       7.459   5.163  16.083  0.00  0.00    +0.000 OA
ATOM     20  C   UNL     1       7.379   4.381  17.283  0.00  0.00    +0.000 C 
ATOM     21  C   UNL     1       6.285   4.929  18.212  0.00  0.00    +0.000 C 
ENDBRANCH  15  16
ENDBRANCH   2  15
TORSDOF 6
ENDMDL
MODEL 3
REMARK VINA RESULT:      -6.7      2.634      6.782
REMARK  Name = 
REMARK  7 active torsions:
REMARK  status: ('A' for Active; 'I' for Inactive)
REMARK    1  A    between atoms: C_1  and  C_2
REMARK    2  A    between atoms: C_2  and  C_3
REMARK    3  A    between atoms: C_2  and  N_11
REMARK    4  A    between atoms: C_3  and  C_4
REMARK    5  A    between atoms: C_4  and  C_5
REMARK    6  A    between atoms: C_12  and  C_14
REMARK    7  A    between atoms: C_14  and  N_15
REMARK                            x       y       z     vdW  Elec       q    Type
REMARK                         _______ _______ _______ _____ _____    ______ ____
ROOT
ATOM      1  N   UNL     1       5.336   5.179  19.005  0.00  0.00    +0.000 N 
ATOM      2  C   UNL     1       4.081   5.759  18.999  0.00  0.00    +0.000 C 
ATOM      3  O   UNL     1       3.754   6.637  18.203  0.00  0.00    +0.000 OA
ATOM      4  H   UNL     1       5.638   4.789  19.888  0.00  0.00    +0.000 HD
ENDROOT
BRANCH   1   6
ATOM      5  C   UNL     1       7.699   5.778  18.765  0.00  0.00    +0.000 C 
ATOM      6  C   UNL     1       6.358   5.598  18.047  0.00  0.00    +0.000 C 
BRANCH   6   7
ATOM      7  C   UNL     1       6.551   4.589  16.889  0.00  0.00    +0.000 C 
BRANCH   7   8
ATOM      8  C   UNL     1       5.527   4.704  15.755  0.00  0.00    +0.000 C 
BRANCH   8   9
ATOM      9  C   UNL     1       6.138   4.510  14.398  0.00  0.00    +0.000 A 
ATOM     10  C   UNL     1       5.566   3.600  13.497  0.00  0.00    +0.000 A 
ATOM     11  C   UNL     1       6.118   3.423  12.230  0.00  0.00    +0.000 A 
ATOM     12  C   UNL     1       7.248   4.151  11.858  0.00  0.00    +0.000 A 
ATOM     13  C   UNL     1       7.821   5.056  12.748  0.00  0.00    +0.000 A 
ATOM     14  C   UNL     1       7.272   5.239  14.017  0.00  0.00    +0.000 A 
ENDBRANCH   8   9
ENDBRANCH   7   8
ENDBRANCH   6   7
ENDBRANCH   1   6
BRANCH   2  15
ATOM     15  C   UNL     1       3.092   5.210  20.030  0.00  0.00    +0.000 C 
BRANCH  15  16
ATOM     16  N   UNL     1       1.856   4.714  19.384  0.00  0.00    +0.000 NA
ATOM     17  C   UNL     1       0.968   4.075  20.383  0.00  0.00    +0.000 C 
ATOM     18  C   UNL     1       1.465   2.708  20.893  0.00  0.00    +0.000 C 
ATOM     19  O   UNL     1       1.725   1.797  19.819  0.00  0.00    +0.000 OA
ATOM     20  C   UNL     1       2.651   2.360  18.877  0.00  0.00    +0.000 C 
ATOM     21  C   UNL     1       2.121   3.695  18.333  0.00  0.00    +0.000 C 
ENDBRANCH  15  16
ENDBRANCH   2  15
TORSDOF 6
ENDMDL
MODEL 4
REMARK VINA RESULT:      -6.7      0.818      1.371
REMARK  Name = 
REMARK  7 active torsions:
REMARK  status: ('A' for Active; 'I' for Inactive)
REMARK    1  A    between atoms: C_1  and  C_2
REMARK    2  A    between atoms: C_2  and  C_3
REMARK    3  A    between atoms: C_2  and  N_11
REMARK    4  A    between atoms: C_3  and  C_4
REMARK    5  A    between atoms: C_4  and  C_5
REMARK    6  A    between atoms: C_12  and  C_14
REMARK    7  A    between atoms: C_14  and  N_15
REMARK                            x       y       z     vdW  Elec       q    Type
REMARK                         _______ _______ _______ _____ _____    ______ ____
ROOT
ATOM      1  N   UNL     1       3.048   3.672  19.334  0.00  0.00    +0.000 N 
ATOM      2  C   UNL     1       3.033   3.516  17.961  0.00  0.00    +0.000 C 
ATOM      3  O   UNL     1       2.004   3.585  17.292  0.00  0.00    +0.000 OA
ATOM      4  H   UNL     1       3.814   3.224  19.821  0.00  0.00    +0.000 HD
ENDROOT
BRANCH   1   6
ATOM      5  C   UNL     1       1.771   3.051  21.331  0.00  0.00    +0.000 C 
ATOM      6  C   UNL     1       1.811   3.923  20.073  0.00  0.00    +0.000 C 
BRANCH   6   7
ATOM      7  C   UNL     1       1.651   5.404  20.494  0.00  0.00    +0.000 C 
BRANCH   7   8
ATOM      8  C   UNL     1       2.665   6.367  19.870  0.00  0.00    +0.000 C 
BRANCH   8   9
ATOM      9  C   UNL     1       2.060   7.690  19.499  0.00  0.00    +0.000 A 
ATOM     10  C   UNL     1       1.343   8.424  20.454  0.00  0.00    +0.000 A 
ATOM     11  C   UNL     1       0.789   9.659  20.121  0.00  0.00    +0.000 A 
ATOM     12  C   UNL     1       0.945  10.164  18.830  0.00  0.00    +0.000 A 
ATOM     13  C   UNL     1       1.657   9.440  17.877  0.00  0.00    +0.000 A 
ATOM     14  C   UNL     1       2.214   8.204  18.204  0.00  0.00    +0.000 A 
ENDBRANCH   8   9
ENDBRANCH   7   8
ENDBRANCH   6   7
ENDBRANCH   1   6
BRANCH   2  15
ATOM     15  C   UNL     1       4.397   3.289  17.304  0.00  0.00    +0.000 C 
BRANCH  15  16
ATOM     16  N   UNL     1       4.682   4.319  16.280  0.00  0.00    +0.000 NA
ATOM     17  C   UNL     1       6.035   4.122  15.708  0.00  0.00    +0.000 C 
ATOM     18  C   UNL     1       7.188   4.492  16.662  0.00  0.00    +0.000 C 
ATOM     19  O   UNL     1       7.061   5.828  17.164  0.00  0.00    +0.000 OA
ATOM     20  C   UNL     1       5.789   6.021  17.799  0.00  0.00    +0.000 C 
ATOM     21  C   UNL     1       4.645   5.703  16.824  0.00  0.00    +0.000 C 
ENDBRANCH  15  16
ENDBRANCH   2  15
TORSDOF 6
ENDMDL
MODEL 5
REMARK VINA RESULT:      -6.6      0.950      1.292
REMARK  Name = 
REMARK  7 active torsions:
REMARK  status: ('A' for Active; 'I' for Inactive)
REMARK    1  A    between atoms: C_1  and  C_2
REMARK    2  A    between atoms: C_2  and  C_3
REMARK    3  A    between atoms: C_2  and  N_11
REMARK    4  A    between atoms: C_3  and  C_4
REMARK    5  A    between atoms: C_4  and  C_5
REMARK    6  A    between atoms: C_12  and  C_14
REMARK    7  A    between atoms: C_14  and  N_15
REMARK                            x       y       z     vdW  Elec       q    Type
REMARK                         _______ _______ _______ _____ _____    ______ ____
ROOT
ATOM      1  N   UNL     1       3.052   4.049  19.120  0.00  0.00    +0.000 N 
ATOM      2  C   UNL     1       3.005   3.794  17.763  0.00  0.00    +0.000 C 
ATOM      3  O   UNL     1       1.952   3.693  17.138  0.00  0.00    +0.000 OA
ATOM      4  H   UNL     1       3.883   3.730  19.601  0.00  0.00    +0.000 HD
ENDROOT
BRANCH   1   6
ATOM      5  C   UNL     1       1.716   3.090  20.936  0.00  0.00    +0.000 C 
ATOM      6  C   UNL     1       1.822   4.209  19.895  0.00  0.00    +0.000 C 
BRANCH   6   7
ATOM      7  C   UNL     1       1.742   5.571  20.627  0.00  0.00    +0.000 C 
BRANCH   7   8
ATOM      8  C   UNL     1       2.353   6.750  19.865  0.00  0.00    +0.000 C 
BRANCH   8   9
ATOM      9  C   UNL     1       1.637   8.044  20.122  0.00  0.00    +0.000 A 
ATOM     10  C   UNL     1       1.478   8.974  19.085  0.00  0.00    +0.000 A 
ATOM     11  C   UNL     1       0.803  10.172  19.312  0.00  0.00    +0.000 A 
ATOM     12  C   UNL     1       0.289  10.450  20.579  0.00  0.00    +0.000 A 
ATOM     13  C   UNL     1       0.444   9.530  21.614  0.00  0.00    +0.000 A 
ATOM     14  C   UNL     1       1.117   8.329  21.392  0.00  0.00    +0.000 A 
ENDBRANCH   8   9
ENDBRANCH   7   8
ENDBRANCH   6   7
ENDBRANCH   1   6
BRANCH   2  15
ATOM     15  C   UNL     1       4.362   3.680  17.062  0.00  0.00    +0.000 C 
BRANCH  15  16
ATOM     16  N   UNL     1       4.917   5.014  16.738  0.00  0.00    +0.000 NA
ATOM     17  C   UNL     1       5.418   5.043  15.345  0.00  0.00    +0.000 C 
ATOM     18  C   UNL     1       6.719   4.246  15.121  0.00  0.00    +0.000 C 
ATOM     19  O   UNL     1       7.757   4.652  16.021  0.00  0.00    +0.000 OA
ATOM     20  C   UNL     1       7.325   4.553  17.386  0.00  0.00    +0.000 C 
ATOM     21  C   UNL     1       6.059   5.393  17.613  0.00  0.00    +0.000 C 
ENDBRANCH  15  16
ENDBRANCH   2  15
TORSDOF 6
ENDMDL
MODEL 6
REMARK VINA RESULT:      -6.5      0.869      1.258
REMARK  Name = 
REMARK  7 active torsions:
REMARK  status: ('A' for Active; 'I' for Inactive)
REMARK    1  A    between atoms: C_1  and  C_2
REMARK    2  A    between atoms: C_2  and  C_3
REMARK    3  A    between atoms: C_2  and  N_11
REMARK    4  A    between atoms: C_3  and  C_4
REMARK    5  A    between atoms: C_4  and  C_5
REMARK    6  A    between atoms: C_12  and  C_14
REMARK    7  A    between atoms: C_14  and  N_15
REMARK                            x       y       z     vdW  Elec       q    Type
REMARK                         _______ _______ _______ _____ _____    ______ ____
ROOT
ATOM      1  N   UNL     1       2.869   3.700  19.164  0.00  0.00    +0.000 N 
ATOM      2  C   UNL     1       2.665   3.847  17.804  0.00  0.00    +0.000 C 
ATOM      3  O   UNL     1       1.553   4.025  17.311  0.00  0.00    +0.000 OA
ATOM      4  H   UNL     1       3.696   3.183  19.432  0.00  0.00    +0.000 HD
ENDROOT
BRANCH   1   6
ATOM      5  C   UNL     1       2.016   2.804  21.278  0.00  0.00    +0.000 C 
ATOM      6  C   UNL     1       1.745   3.743  20.099  0.00  0.00    +0.000 C 
BRANCH   6   7
ATOM      7  C   UNL     1       1.474   5.163  20.651  0.00  0.00    +0.000 C 
BRANCH   7   8
ATOM      8  C   UNL     1       2.563   6.195  20.344  0.00  0.00    +0.000 C 
BRANCH   8   9
ATOM      9  C   UNL     1       2.005   7.512  19.886  0.00  0.00    +0.000 A 
ATOM     10  C   UNL     1       2.235   7.951  18.575  0.00  0.00    +0.000 A 
ATOM     11  C   UNL     1       1.710   9.166  18.138  0.00  0.00    +0.000 A 
ATOM     12  C   UNL     1       0.957   9.950  19.011  0.00  0.00    +0.000 A 
ATOM     13  C   UNL     1       0.724   9.520  20.315  0.00  0.00    +0.000 A 
ATOM     14  C   UNL     1       1.246   8.305  20.757  0.00  0.00    +0.000 A 
ENDBRANCH   8   9
ENDBRANCH   7   8
ENDBRANCH   6   7
ENDBRANCH   1   6
BRANCH   2  15
ATOM     15  C   UNL     1       3.926   3.815  16.937  0.00  0.00    +0.000 C 
BRANCH  15  16
ATOM     16  N   UNL     1       5.019   4.610  17.542  0.00  0.00    +0.000 NA
ATOM     17  C   UNL     1       4.888   6.038  17.171  0.00  0.00    +0.000 C 
ATOM     18  C   UNL     1       5.233   6.347  15.700  0.00  0.00    +0.000 C 
ATOM     19  O   UNL     1       6.535   5.867  15.343  0.00  0.00    +0.000 OA
ATOM     20  C   UNL     1       6.660   4.464  15.615  0.00  0.00    +0.000 C 
ATOM     21  C   UNL     1       6.368   4.173  17.096  0.00  0.00    +0.000 C 
ENDBRANCH  15  16
ENDBRANCH   2  15
TORSDOF 6
ENDMDL
MODEL 7
REMARK VINA RESULT:      -6.4      2.772      6.868
REMARK  Name = 
REMARK  7 active torsions:
REMARK  status: ('A' for Active; 'I' for Inactive)
REMARK    1  A    between atoms: C_1  and  C_2
REMARK    2  A    between atoms: C_2  and  C_3
REMARK    3  A    between atoms: C_2  and  N_11
REMARK    4  A    between atoms: C_3  and  C_4
REMARK    5  A    between atoms: C_4  and  C_5
REMARK    6  A    between atoms: C_12  and  C_14
REMARK    7  A    between atoms: C_14  and  N_15
REMARK                            x       y       z     vdW  Elec       q    Type
REMARK                         _______ _______ _______ _____ _____    ______ ____
ROOT
ATOM      1  N   UNL     1       5.602   5.364  18.847  0.00  0.00    +0.000 N 
ATOM      2  C   UNL     1       4.264   5.708  18.909  0.00  0.00    +0.000 C 
ATOM      3  O   UNL     1       3.784   6.642  18.272  0.00  0.00    +0.000 OA
ATOM      4  H   UNL     1       5.972   4.883  19.656  0.00  0.00    +0.000 HD
ENDROOT
BRANCH   1   6
ATOM      5  C   UNL     1       7.837   6.365  18.765  0.00  0.00    +0.000 C 
ATOM      6  C   UNL     1       6.530   6.119  18.005  0.00  0.00    +0.000 C 
BRANCH   6   7
ATOM      7  C   UNL     1       6.861   5.398  16.676  0.00  0.00    +0.000 C 
BRANCH   7   8
ATOM      8  C   UNL     1       5.769   5.483  15.606  0.00  0.00    +0.000 C 
BRANCH   8   9
ATOM      9  C   UNL     1       6.192   4.889  14.293  0.00  0.00    +0.000 A 
ATOM     10  C   UNL     1       7.405   5.279  13.708  0.00  0.00    +0.000 A 
ATOM     11  C   UNL     1       7.812   4.723  12.497  0.00  0.00    +0.000 A 
ATOM     12  C   UNL     1       7.006   3.779  11.861  0.00  0.00    +0.000 A 
ATOM     13  C   UNL     1       5.800   3.388  12.437  0.00  0.00    +0.000 A 
ATOM     14  C   UNL     1       5.388   3.939  13.650  0.00  0.00    +0.000 A 
ENDBRANCH   8   9
ENDBRANCH   7   8
ENDBRANCH   6   7
ENDBRANCH   1   6
BRANCH   2  15
ATOM     15  C   UNL     1       3.393   4.820  19.802  0.00  0.00    +0.000 C 
BRANCH  15  16
ATOM     16  N   UNL     1       1.984   4.815  19.348  0.00  0.00    +0.000 NA
ATOM     17  C   UNL     1       1.096   4.300  20.417  0.00  0.00    +0.000 C 
ATOM     18  C   UNL     1       1.213   2.782  20.663  0.00  0.00    +0.000 C 
ATOM     19  O   UNL     1       1.017   2.028  19.460  0.00  0.00    +0.000 OA
ATOM     20  C   UNL     1       1.924   2.451  18.432  0.00  0.00    +0.000 C 
ATOM     21  C   UNL     1       1.763   3.954  18.156  0.00  0.00    +0.000 C 
ENDBRANCH  15  16
ENDBRANCH   2  15
TORSDOF 6
ENDMDL
MODEL 8
REMARK VINA RESULT:      -6.4      3.128      6.629
REMARK  Name = 
REMARK  7 active torsions:
REMARK  status: ('A' for Active; 'I' for Inactive)
REMARK    1  A    between atoms: C_1  and  C_2
REMARK    2  A    between atoms: C_2  and  C_3
REMARK    3  A    between atoms: C_2  and  N_11
REMARK    4  A    between atoms: C_3  and  C_4
REMARK    5  A    between atoms: C_4  and  C_5
REMARK    6  A    between atoms: C_12  and  C_14
REMARK    7  A    between atoms: C_14  and  N_15
REMARK                            x       y       z     vdW  Elec       q    Type
REMARK                         _______ _______ _______ _____ _____    ______ ____
ROOT
ATOM      1  N   UNL     1       5.794   4.132  18.450  0.00  0.00    +0.000 N 
ATOM      2  C   UNL     1       4.734   4.468  19.271  0.00  0.00    +0.000 C 
ATOM      3  O   UNL     1       4.513   5.620  19.639  0.00  0.00    +0.000 OA
ATOM      4  H   UNL     1       6.124   3.179  18.524  0.00  0.00    +0.000 HD
ENDROOT
BRANCH   1   6
ATOM      5  C   UNL     1       8.126   4.546  17.822  0.00  0.00    +0.000 C 
ATOM      6  C   UNL     1       6.729   5.153  17.978  0.00  0.00    +0.000 C 
BRANCH   6   7
ATOM      7  C   UNL     1       6.308   5.777  16.625  0.00  0.00    +0.000 C 
BRANCH   7   8
ATOM      8  C   UNL     1       5.452   4.871  15.735  0.00  0.00    +0.000 C 
BRANCH   8   9
ATOM      9  C   UNL     1       6.086   4.599  14.402  0.00  0.00    +0.000 A 
ATOM     10  C   UNL     1       5.493   3.684  13.520  0.00  0.00    +0.000 A 
ATOM     11  C   UNL     1       6.067   3.434  12.275  0.00  0.00    +0.000 A 
ATOM     12  C   UNL     1       7.240   4.094  11.907  0.00  0.00    +0.000 A 
ATOM     13  C   UNL     1       7.834   5.004  12.778  0.00  0.00    +0.000 A 
ATOM     14  C   UNL     1       7.263   5.258  14.024  0.00  0.00    +0.000 A 
ENDBRANCH   8   9
ENDBRANCH   7   8
ENDBRANCH   6   7
ENDBRANCH   1   6
BRANCH   2  15
ATOM     15  C   UNL     1       3.811   3.313  19.669  0.00  0.00    +0.000 C 
BRANCH  15  16
ATOM     16  N   UNL     1       3.318   2.580  18.480  0.00  0.00    +0.000 NA
ATOM     17  C   UNL     1       2.818   3.528  17.457  0.00  0.00    +0.000 C 
ATOM     18  C   UNL     1       1.481   4.205  17.818  0.00  0.00    +0.000 C 
ATOM     19  O   UNL     1       0.464   3.248  18.136  0.00  0.00    +0.000 OA
ATOM     20  C   UNL     1       0.892   2.369  19.186  0.00  0.00    +0.000 C 
ATOM     21  C   UNL     1       2.196   1.656  18.794  0.00  0.00    +0.000 C 
ENDBRANCH  15  16
ENDBRANCH   2  15
TORSDOF 6
ENDMDL
MODEL 9
REMARK VINA RESULT:      -6.4      2.666      7.073
REMARK  Name = 
REMARK  7 active torsions:
REMARK  status: ('A' for Active; 'I' for Inactive)
REMARK    1  A    between atoms: C_1  and  C_2
REMARK    2  A    between atoms: C_2  and  C_3
REMARK    3  A    between atoms: C_2  and  N_11
REMARK    4  A    between atoms: C_3  and  C_4
REMARK    5  A    between atoms: C_4  and  C_5
REMARK    6  A    between atoms: C_12  and  C_14
REMARK    7  A    between atoms: C_14  and  N_15
REMARK                            x       y       z     vdW  Elec       q    Type
REMARK                         _______ _______ _______ _____ _____    ______ ____
ROOT
ATOM      1  N   UNL     1       5.307   5.918  18.398  0.00  0.00    +0.000 N 
ATOM      2  C   UNL     1       3.986   6.037  18.785  0.00  0.00    +0.000 C 
ATOM      3  O   UNL     1       3.201   6.819  18.253  0.00  0.00    +0.000 OA
ATOM      4  H   UNL     1       5.945   5.577  19.105  0.00  0.00    +0.000 HD
ENDROOT
BRANCH   1   6
ATOM      5  C   UNL     1       7.332   7.022  17.570  0.00  0.00    +0.000 C 
ATOM      6  C   UNL     1       5.848   6.742  17.317  0.00  0.00    +0.000 C 
BRANCH   6   7
ATOM      7  C   UNL     1       5.700   6.083  15.924  0.00  0.00    +0.000 C 
BRANCH   7   8
ATOM      8  C   UNL     1       6.937   5.324  15.435  0.00  0.00    +0.000 C 
BRANCH   8   9
ATOM      9  C   UNL     1       6.731   4.677  14.096  0.00  0.00    +0.000 A 
ATOM     10  C   UNL     1       5.634   3.827  13.891  0.00  0.00    +0.000 A 
ATOM     11  C   UNL     1       5.428   3.232  12.648  0.00  0.00    +0.000 A 
ATOM     12  C   UNL     1       6.320   3.479  11.604  0.00  0.00    +0.000 A 
ATOM     13  C   UNL     1       7.411   4.322  11.801  0.00  0.00    +0.000 A 
ATOM     14  C   UNL     1       7.621   4.921  13.042  0.00  0.00    +0.000 A 
ENDBRANCH   8   9
ENDBRANCH   7   8
ENDBRANCH   6   7
ENDBRANCH   1   6
BRANCH   2  15
ATOM     15  C   UNL     1       3.536   5.096  19.906  0.00  0.00    +0.000 C 
BRANCH  15  16
ATOM     16  N   UNL     1       3.182   3.759  19.380  0.00  0.00    +0.000 NA
ATOM     17  C   UNL     1       1.753   3.715  18.991  0.00  0.00    +0.000 C 
ATOM     18  C   UNL     1       0.771   3.708  20.181  0.00  0.00    +0.000 C 
ATOM     19  O   UNL     1       1.058   2.651  21.105  0.00  0.00    +0.000 OA
ATOM     20  C   UNL     1       2.416   2.720  21.563  0.00  0.00    +0.000 C 
ATOM     21  C   UNL     1       3.389   2.672  20.374  0.00  0.00    +0.000 C 
ENDBRANCH  15  16
ENDBRANCH   2  15
TORSDOF 6
ENDMDL
