MODEL 1
REMARK VINA RESULT:      -8.2      0.000      0.000
REMARK  Name = 
REMARK  7 active torsions:
REMARK  status: ('A' for Active; 'I' for Inactive)
REMARK    1  A    between atoms: C_1  and  C_2
REMARK    2  A    between atoms: C_4  and  C_5
REMARK    3  A    between atoms: C_5  and  C_6
REMARK    4  A    between atoms: N_11  and  C_12
REMARK    5  A    between atoms: C_12  and  C_13
REMARK    6  A    between atoms: C_20  and  C_21
REMARK    7  A    between atoms: C_21  and  C_22
REMARK                            x       y       z     vdW  Elec       q    Type
REMARK                         _______ _______ _______ _____ _____    ______ ____
ROOT
ATOM      1  C   UNL     1       3.419   3.996  16.960  0.00  0.00    +0.000 C 
ENDROOT
BRANCH   1   5
ATOM      2  C   UNL     1       6.629   4.013  13.125  0.00  0.00    +0.000 C 
ATOM      3  C   UNL     1       6.556   4.134  14.648  0.00  0.00    +0.000 C 
ATOM      4  C   UNL     1       5.119   3.902  15.128  0.00  0.00    +0.000 C 
ATOM      5  C   UNL     1       4.934   4.099  16.645  0.00  0.00    +0.000 C 
ATOM      6  C   UNL     1       5.546   5.429  17.117  0.00  0.00    +0.000 C 
ATOM      7  C   UNL     1       6.998   5.641  16.633  0.00  0.00    +0.000 C 
ATOM      8  C   UNL     1       7.068   5.505  15.104  0.00  0.00    +0.000 C 
BRANCH   7   9
ATOM      9  C   UNL     1       7.507   7.013  17.113  0.00  0.00    +0.000 C 
BRANCH   9  10
ATOM     10  C   UNL     1       8.083   7.032  18.511  0.00  0.00    +0.000 C 
ATOM     11  N   UNL     1       8.672   8.196  18.904  0.00  0.00    +0.000 N 
ATOM     12  O   UNL     1       8.051   6.063  19.266  0.00  0.00    +0.000 OA
ATOM     13  H   UNL     1       8.868   8.956  18.270  0.00  0.00    +0.000 HD
ATOM     14  H   UNL     1       9.118   8.199  19.814  0.00  0.00    +0.000 HD
ENDBRANCH   9  10
ENDBRANCH   7   9
ENDBRANCH   1   5
BRANCH   1  15
ATOM     15  C   UNL     1       3.032   3.372  18.307  0.00  0.00    +0.000 C 
ATOM     16  C   UNL     1       1.973   2.281  18.180  0.00  0.00    +0.000 C 
ATOM     17  C   UNL     1       1.254   2.302  19.520  0.00  0.00    +0.000 C 
ATOM     18  C   UNL     1       1.391   3.733  19.966  0.00  0.00    +0.000 C 
ATOM     19  O   UNL     1       0.769   4.236  20.888  0.00  0.00    +0.000 OA
ATOM     20  N   UNL     1       2.410   4.321  19.222  0.00  0.00    +0.000 N 
BRANCH  20  21
ATOM     21  C   UNL     1       3.102   5.502  19.721  0.00  0.00    +0.000 C 
BRANCH  21  22
ATOM     22  C   UNL     1       2.440   6.813  19.374  0.00  0.00    +0.000 A 
ATOM     23  C   UNL     1       1.806   7.586  20.359  0.00  0.00    +0.000 A 
ATOM     24  C   UNL     1       1.286   8.845  20.054  0.00  0.00    +0.000 A 
ATOM     25  C   UNL     1       1.395   9.352  18.762  0.00  0.00    +0.000 A 
ATOM     26  C   UNL     1       2.020   8.597  17.772  0.00  0.00    +0.000 A 
ATOM     27  C   UNL     1       2.539   7.336  18.075  0.00  0.00    +0.000 A 
ENDBRANCH  21  22
ENDBRANCH  20  21
ENDBRANCH   1  15
TORSDOF 6
ENDMDL
MODEL 2
REMARK VINA RESULT:      -7.9      2.637      6.143
REMARK  Name = 
REMARK  7 active torsions:
REMARK  status: ('A' for Active; 'I' for Inactive)
REMARK    1  A    between atoms: C_1  and  C_2
REMARK    2  A    between atoms: C_4  and  C_5
REMARK    3  A    between atoms: C_5  and  C_6
REMARK    4  A    between atoms: N_11  and  C_12
REMARK    5  A    between atoms: C_12  and  C_13
REMARK    6  A    between atoms: C_20  and  C_21
REMARK    7  A    between atoms: C_21  and  C_22
REMARK                            x       y       z     vdW  Elec       q    Type
REMARK                         _______ _______ _______ _____ _____    ______ ____
ROOT
ATOM      1  C   UNL     1       2.040   4.912  20.774  0.00  0.00    +0.000 C 
ENDROOT
BRANCH   1   5
ATOM      2  C   UNL     1       2.632   8.469  17.309  0.00  0.00    +0.000 C 
ATOM      3  C   UNL     1       2.451   8.257  18.813  0.00  0.00    +0.000 C 
ATOM      4  C   UNL     1       2.449   6.760  19.138  0.00  0.00    +0.000 C 
ATOM      5  C   UNL     1       2.176   6.450  20.623  0.00  0.00    +0.000 C 
ATOM      6  C   UNL     1       0.938   7.206  21.136  0.00  0.00    +0.000 C 
ATOM      7  C   UNL     1       0.964   8.715  20.809  0.00  0.00    +0.000 C 
ATOM      8  C   UNL     1       1.159   8.923  19.299  0.00  0.00    +0.000 C 
BRANCH   7   9
ATOM      9  C   UNL     1      -0.332   9.376  21.317  0.00  0.00    +0.000 C 
BRANCH   9  10
ATOM     10  C   UNL     1      -0.203  10.117  22.630  0.00  0.00    +0.000 C 
ATOM     11  N   UNL     1      -0.167   9.348  23.754  0.00  0.00    +0.000 N 
ATOM     12  O   UNL     1      -0.149  11.342  22.709  0.00  0.00    +0.000 OA
ATOM     13  H   UNL     1      -0.372   8.360  23.753  0.00  0.00    +0.000 HD
ATOM     14  H   UNL     1      -0.146   9.836  24.641  0.00  0.00    +0.000 HD
ENDBRANCH   9  10
ENDBRANCH   7   9
ENDBRANCH   1   5
BRANCH   1  15
ATOM     15  C   UNL     1       2.097   4.083  19.485  0.00  0.00    +0.000 C 
ATOM     16  C   UNL     1       0.901   3.149  19.318  0.00  0.00    +0.000 C 
ATOM     17  C   UNL     1       1.438   2.003  18.474  0.00  0.00    +0.000 C 
ATOM     18  C   UNL     1       2.897   1.957  18.838  0.00  0.00    +0.000 C 
ATOM     19  O   UNL     1       3.655   1.043  18.554  0.00  0.00    +0.000 OA
ATOM     20  N   UNL     1       3.230   3.166  19.443  0.00  0.00    +0.000 N 
BRANCH  20  21
ATOM     21  C   UNL     1       4.613   3.622  19.469  0.00  0.00    +0.000 C 
BRANCH  21  22
ATOM     22  C   UNL     1       5.018   4.472  18.289  0.00  0.00    +0.000 A 
ATOM     23  C   UNL     1       4.629   4.130  16.984  0.00  0.00    +0.000 A 
ATOM     24  C   UNL     1       4.918   4.973  15.909  0.00  0.00    +0.000 A 
ATOM     25  C   UNL     1       5.594   6.172  16.123  0.00  0.00    +0.000 A 
ATOM     26  C   UNL     1       5.987   6.526  17.411  0.00  0.00    +0.000 A 
ATOM     27  C   UNL     1       5.701   5.681  18.488  0.00  0.00    +0.000 A 
ENDBRANCH  21  22
ENDBRANCH  20  21
ENDBRANCH   1  15
TORSDOF 6
ENDMDL
MODEL 3
REMARK VINA RESULT:      -7.9      2.694      3.826
REMARK  Name = 
REMARK  7 active torsions:
REMARK  status: ('A' for Active; 'I' for Inactive)
REMARK    1  A    between atoms: C_1  and  C_2
REMARK    2  A    between atoms: C_4  and  C_5
REMARK    3  A    between atoms: C_5  and  C_6
REMARK    4  A    between atoms: N_11  and  C_12
REMARK    5  A    between atoms: C_12  and  C_13
REMARK    6  A    between atoms: C_20  and  C_21
REMARK    7  A    between atoms: C_21  and  C_22
REMARK                            x       y       z     vdW  Elec       q    Type
REMARK                         _______ _______ _______ _____ _____    ______ ____
ROOT
ATOM      1  C   UNL     1       4.166   2.836  17.559  0.00  0.00    +0.000 C 
ENDROOT
BRANCH   1   5
ATOM      2  C   UNL     1       7.203   6.809  17.493  0.00  0.00    +0.000 C 
ATOM      3  C   UNL     1       6.222   6.015  16.628  0.00  0.00    +0.000 C 
ATOM      4  C   UNL     1       5.563   4.908  17.457  0.00  0.00    +0.000 C 
ATOM      5  C   UNL     1       4.628   3.996  16.639  0.00  0.00    +0.000 C 
ATOM      6  C   UNL     1       5.313   3.496  15.356  0.00  0.00    +0.000 C 
ATOM      7  C   UNL     1       5.962   4.626  14.527  0.00  0.00    +0.000 C 
ATOM      8  C   UNL     1       6.936   5.428  15.405  0.00  0.00    +0.000 C 
BRANCH   7   9
ATOM      9  C   UNL     1       6.661   4.027  13.293  0.00  0.00    +0.000 C 
BRANCH   9  10
ATOM     10  C   UNL     1       5.759   3.251  12.358  0.00  0.00    +0.000 C 
ATOM     11  N   UNL     1       6.263   2.085  11.865  0.00  0.00    +0.000 N 
ATOM     12  O   UNL     1       4.638   3.634  12.030  0.00  0.00    +0.000 OA
ATOM     13  H   UNL     1       7.229   1.813  11.972  0.00  0.00    +0.000 HD
ATOM     14  H   UNL     1       5.694   1.591  11.188  0.00  0.00    +0.000 HD
ENDBRANCH   9  10
ENDBRANCH   7   9
ENDBRANCH   1   5
BRANCH   1  15
ATOM     15  C   UNL     1       3.901   3.182  19.030  0.00  0.00    +0.000 C 
ATOM     16  C   UNL     1       4.482   2.159  20.001  0.00  0.00    +0.000 C 
ATOM     17  C   UNL     1       3.582   2.253  21.224  0.00  0.00    +0.000 C 
ATOM     18  C   UNL     1       2.257   2.678  20.650  0.00  0.00    +0.000 C 
ATOM     19  O   UNL     1       1.199   2.660  21.257  0.00  0.00    +0.000 OA
ATOM     20  N   UNL     1       2.484   3.184  19.372  0.00  0.00    +0.000 N 
BRANCH  20  21
ATOM     21  C   UNL     1       1.527   4.095  18.760  0.00  0.00    +0.000 C 
BRANCH  21  22
ATOM     22  C   UNL     1       1.829   5.559  18.969  0.00  0.00    +0.000 A 
ATOM     23  C   UNL     1       2.216   6.378  17.896  0.00  0.00    +0.000 A 
ATOM     24  C   UNL     1       2.394   7.751  18.074  0.00  0.00    +0.000 A 
ATOM     25  C   UNL     1       2.184   8.327  19.325  0.00  0.00    +0.000 A 
ATOM     26  C   UNL     1       1.801   7.528  20.400  0.00  0.00    +0.000 A 
ATOM     27  C   UNL     1       1.625   6.153  20.224  0.00  0.00    +0.000 A 
ENDBRANCH  21  22
ENDBRANCH  20  21
ENDBRANCH   1  15
TORSDOF 6
ENDMDL
MODEL 4
REMARK VINA RESULT:      -7.9      3.194      7.206
REMARK  Name = 
REMARK  7 active torsions:
REMARK  status: ('A' for Active; 'I' for Inactive)
REMARK    1  A    between atoms: C_1  and  C_2
REMARK    2  A    between atoms: C_4  and  C_5
REMARK    3  A    between atoms: C_5  and  C_6
REMARK    4  A    between atoms: N_11  and  C_12
REMARK    5  A    between atoms: C_12  and  C_13
REMARK    6  A    between atoms: C_20  and  C_21
REMARK    7  A    between atoms: C_21  and  C_22
REMARK                            x       y       z     vdW  Elec       q    Type
REMARK                         _______ _______ _______ _____ _____    ______ ____
ROOT
ATOM      1  C   UNL     1       2.544   7.067  19.590  0.00  0.00    +0.000 C 
ENDROOT
BRANCH   1   5
ATOM      2  C   UNL     1       0.055   9.490  23.187  0.00  0.00    +0.000 C 
ATOM      3  C   UNL     1       0.081   9.254  21.676  0.00  0.00    +0.000 C 
ATOM      4  C   UNL     1       1.160   8.225  21.321  0.00  0.00    +0.000 C 
ATOM      5  C   UNL     1       1.321   7.995  19.806  0.00  0.00    +0.000 C 
ATOM      6  C   UNL     1       1.450   9.328  19.047  0.00  0.00    +0.000 C 
ATOM      7  C   UNL     1       0.348  10.348  19.409  0.00  0.00    +0.000 C 
ATOM      8  C   UNL     1       0.318  10.571  20.929  0.00  0.00    +0.000 C 
BRANCH   7   9
ATOM      9  C   UNL     1       0.586  11.661  18.639  0.00  0.00    +0.000 C 
BRANCH   9  10
ATOM     10  C   UNL     1      -0.616  12.573  18.538  0.00  0.00    +0.000 C 
ATOM     11  N   UNL     1      -1.414  12.399  17.448  0.00  0.00    +0.000 N 
ATOM     12  O   UNL     1      -0.874  13.443  19.368  0.00  0.00    +0.000 OA
ATOM     13  H   UNL     1      -1.157  11.818  16.663  0.00  0.00    +0.000 HD
ATOM     14  H   UNL     1      -2.185  13.047  17.336  0.00  0.00    +0.000 HD
ENDBRANCH   9  10
ENDBRANCH   7   9
ENDBRANCH   1   5
BRANCH   1  15
ATOM     15  C   UNL     1       2.255   5.570  19.416  0.00  0.00    +0.000 C 
ATOM     16  C   UNL     1       1.752   4.904  20.693  0.00  0.00    +0.000 C 
ATOM     17  C   UNL     1       2.186   3.453  20.553  0.00  0.00    +0.000 C 
ATOM     18  C   UNL     1       3.429   3.542  19.708  0.00  0.00    +0.000 C 
ATOM     19  O   UNL     1       4.220   2.628  19.539  0.00  0.00    +0.000 OA
ATOM     20  N   UNL     1       3.443   4.790  19.091  0.00  0.00    +0.000 N 
BRANCH  20  21
ATOM     21  C   UNL     1       4.216   5.003  17.876  0.00  0.00    +0.000 C 
BRANCH  21  22
ATOM     22  C   UNL     1       5.511   5.753  18.077  0.00  0.00    +0.000 A 
ATOM     23  C   UNL     1       6.462   5.315  19.011  0.00  0.00    +0.000 A 
ATOM     24  C   UNL     1       7.700   5.952  19.121  0.00  0.00    +0.000 A 
ATOM     25  C   UNL     1       8.007   7.031  18.296  0.00  0.00    +0.000 A 
ATOM     26  C   UNL     1       7.074   7.478  17.365  0.00  0.00    +0.000 A 
ATOM     27  C   UNL     1       5.833   6.844  17.255  0.00  0.00    +0.000 A 
ENDBRANCH  21  22
ENDBRANCH  20  21
ENDBRANCH   1  15
TORSDOF 6
ENDMDL
MODEL 5
REMARK VINA RESULT:      -7.8      2.672      6.107
REMARK  Name = 
REMARK  7 active torsions:
REMARK  status: ('A' for Active; 'I' for Inactive)
REMARK    1  A    between atoms: C_1  and  C_2
REMARK    2  A    between atoms: C_4  and  C_5
REMARK    3  A    between atoms: C_5  and  C_6
REMARK    4  A    between atoms: N_11  and  C_12
REMARK    5  A    between atoms: C_12  and  C_13
REMARK    6  A    between atoms: C_20  and  C_21
REMARK    7  A    between atoms: C_21  and  C_22
REMARK                            x       y       z     vdW  Elec       q    Type
REMARK                         _______ _______ _______ _____ _____    ______ ____
ROOT
ATOM      1  C   UNL     1       2.197   4.810  20.841  0.00  0.00    +0.000 C 
ENDROOT
BRANCH   1   5
ATOM      2  C   UNL     1       2.506   8.436  17.412  0.00  0.00    +0.000 C 
ATOM      3  C   UNL     1       2.379   8.196  18.917  0.00  0.00    +0.000 C 
ATOM      4  C   UNL     1       2.463   6.697  19.221  0.00  0.00    +0.000 C 
ATOM      5  C   UNL     1       2.249   6.354  20.708  0.00  0.00    +0.000 C 
ATOM      6  C   UNL     1       0.989   7.038  21.266  0.00  0.00    +0.000 C 
ATOM      7  C   UNL     1       0.927   8.551  20.960  0.00  0.00    +0.000 C 
ATOM      8  C   UNL     1       1.068   8.787  19.448  0.00  0.00    +0.000 C 
BRANCH   7   9
ATOM      9  C   UNL     1      -0.386   9.137  21.513  0.00  0.00    +0.000 C 
BRANCH   9  10
ATOM     10  C   UNL     1      -0.219  10.302  22.464  0.00  0.00    +0.000 C 
ATOM     11  N   UNL     1      -0.205  11.542  21.900  0.00  0.00    +0.000 N 
ATOM     12  O   UNL     1      -0.085  10.166  23.678  0.00  0.00    +0.000 OA
ATOM     13  H   UNL     1      -0.145  11.694  20.904  0.00  0.00    +0.000 HD
ATOM     14  H   UNL     1      -0.028  12.324  22.519  0.00  0.00    +0.000 HD
ENDBRANCH   9  10
ENDBRANCH   7   9
ENDBRANCH   1   5
BRANCH   1  15
ATOM     15  C   UNL     1       2.173   4.003  19.536  0.00  0.00    +0.000 C 
ATOM     16  C   UNL     1       0.971   3.069  19.431  0.00  0.00    +0.000 C 
ATOM     17  C   UNL     1       1.455   1.940  18.534  0.00  0.00    +0.000 C 
ATOM     18  C   UNL     1       2.935   1.892  18.801  0.00  0.00    +0.000 C 
ATOM     19  O   UNL     1       3.675   0.987  18.452  0.00  0.00    +0.000 OA
ATOM     20  N   UNL     1       3.303   3.092  19.405  0.00  0.00    +0.000 N 
BRANCH  20  21
ATOM     21  C   UNL     1       4.684   3.553  19.349  0.00  0.00    +0.000 C 
BRANCH  21  22
ATOM     22  C   UNL     1       4.980   4.519  18.227  0.00  0.00    +0.000 A 
ATOM     23  C   UNL     1       5.683   5.710  18.467  0.00  0.00    +0.000 A 
ATOM     24  C   UNL     1       6.045   6.550  17.411  0.00  0.00    +0.000 A 
ATOM     25  C   UNL     1       5.714   6.209  16.102  0.00  0.00    +0.000 A 
ATOM     26  C   UNL     1       5.016   5.031  15.848  0.00  0.00    +0.000 A 
ATOM     27  C   UNL     1       4.651   4.191  16.904  0.00  0.00    +0.000 A 
ENDBRANCH  21  22
ENDBRANCH  20  21
ENDBRANCH   1  15
TORSDOF 6
ENDMDL
MODEL 6
REMARK VINA RESULT:      -7.8      2.660      6.710
REMARK  Name = 
REMARK  7 active torsions:
REMARK  status: ('A' for Active; 'I' for Inactive)
REMARK    1  A    between atoms: C_1  and  C_2
REMARK    2  A    between atoms: C_4  and  C_5
REMARK    3  A    between atoms: C_5  and  C_6
REMARK    4  A    between atoms: N_11  and  C_12
REMARK    5  A    between atoms: C_12  and  C_13
REMARK    6  A    between atoms: C_20  and  C_21
REMARK    7  A    between atoms: C_21  and  C_22
REMARK                            x       y       z     vdW  Elec       q    Type
REMARK                         _______ _______ _______ _____ _____    ______ ____
ROOT
ATOM      1  C   UNL     1       4.187   7.034  16.875  0.00  0.00    +0.000 C 
ENDROOT
BRANCH   1   5
ATOM      2  C   UNL     1       1.903   5.894  21.176  0.00  0.00    +0.000 C 
ATOM      3  C   UNL     1       1.717   6.668  19.869  0.00  0.00    +0.000 C 
ATOM      4  C   UNL     1       2.910   6.429  18.939  0.00  0.00    +0.000 C 
ATOM      5  C   UNL     1       2.851   7.247  17.634  0.00  0.00    +0.000 C 
ATOM      6  C   UNL     1       2.563   8.732  17.916  0.00  0.00    +0.000 C 
ATOM      7  C   UNL     1       1.350   8.954  18.846  0.00  0.00    +0.000 C 
ATOM      8  C   UNL     1       1.536   8.164  20.151  0.00  0.00    +0.000 C 
BRANCH   7   9
ATOM      9  C   UNL     1       1.168  10.461  19.108  0.00  0.00    +0.000 C 
BRANCH   9  10
ATOM     10  C   UNL     1      -0.104  11.061  18.551  0.00  0.00    +0.000 C 
ATOM     11  N   UNL     1      -0.793  10.293  17.661  0.00  0.00    +0.000 N 
ATOM     12  O   UNL     1      -0.509  12.181  18.853  0.00  0.00    +0.000 OA
ATOM     13  H   UNL     1      -0.420   9.446  17.260  0.00  0.00    +0.000 HD
ATOM     14  H   UNL     1      -1.610  10.711  17.234  0.00  0.00    +0.000 HD
ENDBRANCH   9  10
ENDBRANCH   7   9
ENDBRANCH   1   5
BRANCH   1  15
ATOM     15  C   UNL     1       5.288   6.262  17.614  0.00  0.00    +0.000 C 
ATOM     16  C   UNL     1       6.520   7.112  17.910  0.00  0.00    +0.000 C 
ATOM     17  C   UNL     1       7.661   6.108  17.963  0.00  0.00    +0.000 C 
ATOM     18  C   UNL     1       7.208   5.017  17.031  0.00  0.00    +0.000 C 
ATOM     19  O   UNL     1       7.922   4.120  16.611  0.00  0.00    +0.000 OA
ATOM     20  N   UNL     1       5.837   5.159  16.835  0.00  0.00    +0.000 N 
BRANCH  20  21
ATOM     21  C   UNL     1       5.032   4.025  16.401  0.00  0.00    +0.000 C 
BRANCH  21  22
ATOM     22  C   UNL     1       4.102   3.473  17.454  0.00  0.00    +0.000 A 
ATOM     23  C   UNL     1       4.563   3.189  18.749  0.00  0.00    +0.000 A 
ATOM     24  C   UNL     1       3.678   2.777  19.748  0.00  0.00    +0.000 A 
ATOM     25  C   UNL     1       2.320   2.647  19.469  0.00  0.00    +0.000 A 
ATOM     26  C   UNL     1       1.847   2.925  18.189  0.00  0.00    +0.000 A 
ATOM     27  C   UNL     1       2.731   3.335  17.187  0.00  0.00    +0.000 A 
ENDBRANCH  21  22
ENDBRANCH  20  21
ENDBRANCH   1  15
TORSDOF 6
ENDMDL
MODEL 7
REMARK VINA RESULT:      -7.8      2.739      6.939
REMARK  Name = 
REMARK  7 active torsions:
REMARK  status: ('A' for Active; 'I' for Inactive)
REMARK    1  A    between atoms: C_1  and  C_2
REMARK    2  A    between atoms: C_4  and  C_5
REMARK    3  A    between atoms: C_5  and  C_6
REMARK    4  A    between atoms: N_11  and  C_12
REMARK    5  A    between atoms: C_12  and  C_13
REMARK    6  A    between atoms: C_20  and  C_21
REMARK    7  A    between atoms: C_21  and  C_22
REMARK                            x       y       z     vdW  Elec       q    Type
REMARK                         _______ _______ _______ _____ _____    ______ ____
ROOT
ATOM      1  C   UNL     1       2.661   8.032  17.388  0.00  0.00    +0.000 C 
ENDROOT
BRANCH   1   5
ATOM      2  C   UNL     1      -1.411  10.882  17.941  0.00  0.00    +0.000 C 
ATOM      3  C   UNL     1      -0.128  10.446  18.651  0.00  0.00    +0.000 C 
ATOM      4  C   UNL     1       0.723   9.577  17.719  0.00  0.00    +0.000 C 
ATOM      5  C   UNL     1       1.993   9.014  18.385  0.00  0.00    +0.000 C 
ATOM      6  C   UNL     1       1.672   8.355  19.738  0.00  0.00    +0.000 C 
ATOM      7  C   UNL     1       0.824   9.250  20.669  0.00  0.00    +0.000 C 
ATOM      8  C   UNL     1      -0.457   9.695  19.946  0.00  0.00    +0.000 C 
BRANCH   7   9
ATOM      9  C   UNL     1       0.514   8.492  21.973  0.00  0.00    +0.000 C 
BRANCH   9  10
ATOM     10  C   UNL     1       0.230   9.367  23.173  0.00  0.00    +0.000 C 
ATOM     11  N   UNL     1      -1.034   9.865  23.269  0.00  0.00    +0.000 N 
ATOM     12  O   UNL     1       1.076   9.645  24.020  0.00  0.00    +0.000 OA
ATOM     13  H   UNL     1      -1.710   9.803  22.522  0.00  0.00    +0.000 HD
ATOM     14  H   UNL     1      -1.217  10.505  24.033  0.00  0.00    +0.000 HD
ENDBRANCH   9  10
ENDBRANCH   7   9
ENDBRANCH   1   5
BRANCH   1  15
ATOM     15  C   UNL     1       3.507   6.903  17.991  0.00  0.00    +0.000 C 
ATOM     16  C   UNL     1       4.962   6.932  17.531  0.00  0.00    +0.000 C 
ATOM     17  C   UNL     1       5.409   5.481  17.618  0.00  0.00    +0.000 C 
ATOM     18  C   UNL     1       4.138   4.710  17.382  0.00  0.00    +0.000 C 
ATOM     19  O   UNL     1       4.085   3.513  17.150  0.00  0.00    +0.000 OA
ATOM     20  N   UNL     1       3.066   5.575  17.581  0.00  0.00    +0.000 N 
BRANCH  20  21
ATOM     21  C   UNL     1       1.745   5.051  17.901  0.00  0.00    +0.000 C 
BRANCH  21  22
ATOM     22  C   UNL     1       1.672   4.274  19.193  0.00  0.00    +0.000 A 
ATOM     23  C   UNL     1       1.206   2.950  19.215  0.00  0.00    +0.000 A 
ATOM     24  C   UNL     1       1.237   2.203  20.395  0.00  0.00    +0.000 A 
ATOM     25  C   UNL     1       1.736   2.765  21.566  0.00  0.00    +0.000 A 
ATOM     26  C   UNL     1       2.201   4.078  21.561  0.00  0.00    +0.000 A 
ATOM     27  C   UNL     1       2.169   4.828  20.383  0.00  0.00    +0.000 A 
ENDBRANCH  21  22
ENDBRANCH  20  21
ENDBRANCH   1  15
TORSDOF 6
ENDMDL
MODEL 8
REMARK VINA RESULT:      -7.7      2.625      6.927
REMARK  Name = 
REMARK  7 active torsions:
REMARK  status: ('A' for Active; 'I' for Inactive)
REMARK    1  A    between atoms: C_1  and  C_2
REMARK    2  A    between atoms: C_4  and  C_5
REMARK    3  A    between atoms: C_5  and  C_6
REMARK    4  A    between atoms: N_11  and  C_12
REMARK    5  A    between atoms: C_12  and  C_13
REMARK    6  A    between atoms: C_20  and  C_21
REMARK    7  A    between atoms: C_21  and  C_22
REMARK                            x       y       z     vdW  Elec       q    Type
REMARK                         _______ _______ _______ _____ _____    ______ ____
ROOT
ATOM      1  C   UNL     1       2.605   7.354  17.436  0.00  0.00    +0.000 C 
ENDROOT
BRANCH   1   5
ATOM      2  C   UNL     1      -1.373  10.378  17.616  0.00  0.00    +0.000 C 
ATOM      3  C   UNL     1      -0.021  10.110  18.279  0.00  0.00    +0.000 C 
ATOM      4  C   UNL     1       0.719   8.993  17.535  0.00  0.00    +0.000 C 
ATOM      5  C   UNL     1       2.054   8.591  18.192  0.00  0.00    +0.000 C 
ATOM      6  C   UNL     1       1.882   8.334  19.699  0.00  0.00    +0.000 C 
ATOM      7  C   UNL     1       1.144   9.474  20.435  0.00  0.00    +0.000 C 
ATOM      8  C   UNL     1      -0.208   9.749  19.757  0.00  0.00    +0.000 C 
BRANCH   7   9
ATOM      9  C   UNL     1       0.978   9.108  21.921  0.00  0.00    +0.000 C 
BRANCH   9  10
ATOM     10  C   UNL     1       0.028   9.992  22.699  0.00  0.00    +0.000 C 
ATOM     11  N   UNL     1      -0.970   9.356  23.374  0.00  0.00    +0.000 N 
ATOM     12  O   UNL     1       0.116  11.217  22.723  0.00  0.00    +0.000 OA
ATOM     13  H   UNL     1      -1.181   8.377  23.253  0.00  0.00    +0.000 HD
ATOM     14  H   UNL     1      -1.649   9.942  23.844  0.00  0.00    +0.000 HD
ENDBRANCH   9  10
ENDBRANCH   7   9
ENDBRANCH   1   5
BRANCH   1  15
ATOM     15  C   UNL     1       4.111   7.085  17.554  0.00  0.00    +0.000 C 
ATOM     16  C   UNL     1       4.813   6.998  16.202  0.00  0.00    +0.000 C 
ATOM     17  C   UNL     1       6.005   6.089  16.459  0.00  0.00    +0.000 C 
ATOM     18  C   UNL     1       5.529   5.196  17.573  0.00  0.00    +0.000 C 
ATOM     19  O   UNL     1       6.094   4.177  17.936  0.00  0.00    +0.000 OA
ATOM     20  N   UNL     1       4.418   5.796  18.161  0.00  0.00    +0.000 N 
BRANCH  20  21
ATOM     21  C   UNL     1       4.030   5.454  19.522  0.00  0.00    +0.000 C 
BRANCH  21  22
ATOM     22  C   UNL     1       2.822   4.554  19.626  0.00  0.00    +0.000 A 
ATOM     23  C   UNL     1       2.263   3.961  18.483  0.00  0.00    +0.000 A 
ATOM     24  C   UNL     1       1.211   3.049  18.594  0.00  0.00    +0.000 A 
ATOM     25  C   UNL     1       0.706   2.713  19.848  0.00  0.00    +0.000 A 
ATOM     26  C   UNL     1       1.250   3.294  20.991  0.00  0.00    +0.000 A 
ATOM     27  C   UNL     1       2.301   4.208  20.882  0.00  0.00    +0.000 A 
ENDBRANCH  21  22
ENDBRANCH  20  21
ENDBRANCH   1  15
TORSDOF 6
ENDMDL
MODEL 9
REMARK VINA RESULT:      -7.7      2.628      6.759
REMARK  Name = 
REMARK  7 active torsions:
REMARK  status: ('A' for Active; 'I' for Inactive)
REMARK    1  A    between atoms: C_1  and  C_2
REMARK    2  A    between atoms: C_4  and  C_5
REMARK    3  A    between atoms: C_5  and  C_6
REMARK    4  A    between atoms: N_11  and  C_12
REMARK    5  A    between atoms: C_12  and  C_13
REMARK    6  A    between atoms: C_20  and  C_21
REMARK    7  A    between atoms: C_21  and  C_22
REMARK                            x       y       z     vdW  Elec       q    Type
REMARK                         _______ _______ _______ _____ _____    ______ ____
ROOT
ATOM      1  C   UNL     1       4.025   7.238  16.966  0.00  0.00    +0.000 C 
ENDROOT
BRANCH   1   5
ATOM      2  C   UNL     1       2.107   5.391  21.198  0.00  0.00    +0.000 C 
ATOM      3  C   UNL     1       1.794   6.328  20.030  0.00  0.00    +0.000 C 
ATOM      4  C   UNL     1       2.927   6.284  19.000  0.00  0.00    +0.000 C 
ATOM      5  C   UNL     1       2.739   7.272  17.832  0.00  0.00    +0.000 C 
ATOM      6  C   UNL     1       2.406   8.685  18.340  0.00  0.00    +0.000 C 
ATOM      7  C   UNL     1       1.254   8.710  19.369  0.00  0.00    +0.000 C 
ATOM      8  C   UNL     1       1.568   7.758  20.533  0.00  0.00    +0.000 C 
BRANCH   7   9
ATOM      9  C   UNL     1       1.025  10.155  19.853  0.00  0.00    +0.000 C 
BRANCH   9  10
ATOM     10  C   UNL     1       0.030  10.954  19.041  0.00  0.00    +0.000 C 
ATOM     11  N   UNL     1       0.542  11.974  18.297  0.00  0.00    +0.000 N 
ATOM     12  O   UNL     1      -1.178  10.731  19.047  0.00  0.00    +0.000 OA
ATOM     13  H   UNL     1       1.493  12.299  18.387  0.00  0.00    +0.000 HD
ATOM     14  H   UNL     1      -0.122  12.557  17.801  0.00  0.00    +0.000 HD
ENDBRANCH   9  10
ENDBRANCH   7   9
ENDBRANCH   1   5
BRANCH   1  15
ATOM     15  C   UNL     1       5.225   6.470  17.536  0.00  0.00    +0.000 C 
ATOM     16  C   UNL     1       6.450   7.351  17.761  0.00  0.00    +0.000 C 
ATOM     17  C   UNL     1       7.626   6.395  17.630  0.00  0.00    +0.000 C 
ATOM     18  C   UNL     1       7.116   5.345  16.679  0.00  0.00    +0.000 C 
ATOM     19  O   UNL     1       7.815   4.508  16.131  0.00  0.00    +0.000 OA
ATOM     20  N   UNL     1       5.728   5.441  16.634  0.00  0.00    +0.000 N 
BRANCH  20  21
ATOM     21  C   UNL     1       4.924   4.303  16.211  0.00  0.00    +0.000 C 
BRANCH  21  22
ATOM     22  C   UNL     1       4.106   3.667  17.309  0.00  0.00    +0.000 A 
ATOM     23  C   UNL     1       2.748   3.367  17.116  0.00  0.00    +0.000 A 
ATOM     24  C   UNL     1       2.022   2.686  18.096  0.00  0.00    +0.000 A 
ATOM     25  C   UNL     1       2.643   2.291  19.278  0.00  0.00    +0.000 A 
ATOM     26  C   UNL     1       3.989   2.582  19.484  0.00  0.00    +0.000 A 
ATOM     27  C   UNL     1       4.716   3.265  18.506  0.00  0.00    +0.000 A 
ENDBRANCH  21  22
ENDBRANCH  20  21
ENDBRANCH   1  15
TORSDOF 6
ENDMDL
