MODEL 1
REMARK VINA RESULT:      -8.4      0.000      0.000
REMARK  Name = 
REMARK  8 active torsions:
REMARK  status: ('A' for Active; 'I' for Inactive)
REMARK    1  A    between atoms: C_1  and  C_2
REMARK    2  A    between atoms: N_4  and  C_5
REMARK    3  A    between atoms: C_5  and  C_6
REMARK    4  A    between atoms: C_5  and  C_7
REMARK    5  A    between atoms: C_10  and  O_11
REMARK    6  A    between atoms: O_11  and  C_12
REMARK    7  A    between atoms: C_19  and  O_20
REMARK    8  A    between atoms: O_20  and  C_21
REMARK                            x       y       z     vdW  Elec       q    Type
REMARK                         _______ _______ _______ _____ _____    ______ ____
ROOT
ATOM      1  C   UNL     1       2.554   6.016  19.391  0.00  0.00    +0.000 C 
ATOM      2  C   UNL     1       2.210   6.905  18.192  0.00  0.00    +0.000 C 
ATOM      3  C   UNL     1       2.044   8.320  18.730  0.00  0.00    +0.000 C 
ATOM      4  N   UNL     1       1.758   8.156  20.138  0.00  0.00    +0.000 N 
ATOM      5  C   UNL     1       1.025   9.033  20.898  0.00  0.00    +0.000 A 
ATOM      6  C   UNL     1       0.777  10.341  20.477  0.00  0.00    +0.000 A 
ATOM      7  C   UNL     1       0.023  11.222  21.262  0.00  0.00    +0.000 A 
ATOM      8  C   UNL     1      -0.491  10.789  22.472  0.00  0.00    +0.000 A 
ATOM      9  C   UNL     1      -0.205   9.478  22.826  0.00  0.00    +0.000 A 
ATOM     10  N   UNL     1       0.531   8.609  22.081  0.00  0.00    +0.000 NA
ATOM     11  C   UNL     1       2.162   6.847  20.639  0.00  0.00    +0.000 C 
ENDROOT
BRANCH   1  12
ATOM     12  O   UNL     1       3.948   5.664  19.380  0.00  0.00    +0.000 OA
BRANCH  12  16
ATOM     13  C   UNL     1       5.618   4.590  15.650  0.00  0.00    +0.000 A 
ATOM     14  C   UNL     1       4.611   3.837  16.285  0.00  0.00    +0.000 A 
ATOM     15  C   UNL     1       4.074   4.240  17.519  0.00  0.00    +0.000 A 
ATOM     16  C   UNL     1       4.526   5.393  18.159  0.00  0.00    +0.000 A 
ATOM     17  C   UNL     1       5.516   6.153  17.531  0.00  0.00    +0.000 A 
ATOM     18  C   UNL     1       6.062   5.749  16.305  0.00  0.00    +0.000 A 
BRANCH  13  19
ATOM     19  C   UNL     1       6.237   4.106  14.344  0.00  0.00    +0.000 C 
ATOM     20  C   UNL     1       7.330   5.092  13.915  0.00  0.00    +0.000 C 
BRANCH  19  24
ATOM     21  C   UNL     1       4.255   3.169  11.236  0.00  0.00    +0.000 C 
ATOM     22  C   UNL     1       5.449   3.195  12.155  0.00  0.00    +0.000 C 
ATOM     23  O   UNL     1       6.499   2.630  11.887  0.00  0.00    +0.000 OA
ATOM     24  N   UNL     1       5.224   3.930  13.303  0.00  0.00    +0.000 N 
ATOM     25  H   UNL     1       4.259   4.041  13.582  0.00  0.00    +0.000 HD
ENDBRANCH  19  24
ENDBRANCH  13  19
ENDBRANCH  12  16
ENDBRANCH   1  12
BRANCH   8  26
ATOM     26  O   UNL     1      -1.213  11.530  23.360  0.00  0.00    +0.000 OA
BRANCH  26  27
ATOM     27  C   UNL     1      -2.374  12.214  22.887  0.00  0.00    +0.000 C 
ATOM     28  C   UNL     1      -3.502  12.179  23.914  0.00  0.00    +0.000 C 
ATOM     29  C   UNL     1      -4.322  13.429  23.645  0.00  0.00    +0.000 C 
ATOM     30  C   UNL     1      -3.354  14.451  23.063  0.00  0.00    +0.000 C 
ATOM     31  C   UNL     1      -2.058  13.706  22.755  0.00  0.00    +0.000 C 
ENDBRANCH  26  27
ENDBRANCH   8  26
TORSDOF 6
ENDMDL
MODEL 2
REMARK VINA RESULT:      -8.2      2.150     11.803
REMARK  Name = 
REMARK  8 active torsions:
REMARK  status: ('A' for Active; 'I' for Inactive)
REMARK    1  A    between atoms: C_1  and  C_2
REMARK    2  A    between atoms: N_4  and  C_5
REMARK    3  A    between atoms: C_5  and  C_6
REMARK    4  A    between atoms: C_5  and  C_7
REMARK    5  A    between atoms: C_10  and  O_11
REMARK    6  A    between atoms: O_11  and  C_12
REMARK    7  A    between atoms: C_19  and  O_20
REMARK    8  A    between atoms: O_20  and  C_21
REMARK                            x       y       z     vdW  Elec       q    Type
REMARK                         _______ _______ _______ _____ _____    ______ ____
ROOT
ATOM      1  C   UNL     1       1.544   7.133  20.353  0.00  0.00    +0.000 C 
ATOM      2  C   UNL     1       1.536   5.644  20.712  0.00  0.00    +0.000 C 
ATOM      3  C   UNL     1       2.923   5.107  20.384  0.00  0.00    +0.000 C 
ATOM      4  N   UNL     1       3.468   6.038  19.422  0.00  0.00    +0.000 N 
ATOM      5  C   UNL     1       4.396   5.720  18.461  0.00  0.00    +0.000 A 
ATOM      6  C   UNL     1       5.164   4.557  18.538  0.00  0.00    +0.000 A 
ATOM      7  C   UNL     1       6.103   4.244  17.547  0.00  0.00    +0.000 A 
ATOM      8  C   UNL     1       6.269   5.097  16.470  0.00  0.00    +0.000 A 
ATOM      9  C   UNL     1       5.472   6.233  16.459  0.00  0.00    +0.000 A 
ATOM     10  N   UNL     1       4.559   6.558  17.416  0.00  0.00    +0.000 NA
ATOM     11  C   UNL     1       2.781   7.324  19.439  0.00  0.00    +0.000 C 
ENDROOT
BRANCH   1  12
ATOM     12  O   UNL     1       1.607   7.942  21.541  0.00  0.00    +0.000 OA
BRANCH  12  16
ATOM     13  C   UNL     1      -1.082  11.200  21.655  0.00  0.00    +0.000 A 
ATOM     14  C   UNL     1      -0.413  10.799  20.482  0.00  0.00    +0.000 A 
ATOM     15  C   UNL     1       0.463   9.699  20.487  0.00  0.00    +0.000 A 
ATOM     16  C   UNL     1       0.703   8.975  21.655  0.00  0.00    +0.000 A 
ATOM     17  C   UNL     1       0.035   9.359  22.819  0.00  0.00    +0.000 A 
ATOM     18  C   UNL     1      -0.831  10.461  22.821  0.00  0.00    +0.000 A 
BRANCH  13  19
ATOM     19  C   UNL     1      -1.977  12.434  21.649  0.00  0.00    +0.000 C 
ATOM     20  C   UNL     1      -1.185  13.621  21.089  0.00  0.00    +0.000 C 
BRANCH  19  24
ATOM     21  C   UNL     1      -4.150  12.969  24.725  0.00  0.00    +0.000 C 
ATOM     22  C   UNL     1      -3.853  12.623  23.288  0.00  0.00    +0.000 C 
ATOM     23  O   UNL     1      -4.726  12.309  22.492  0.00  0.00    +0.000 OA
ATOM     24  N   UNL     1      -2.509  12.716  22.983  0.00  0.00    +0.000 N 
ATOM     25  H   UNL     1      -1.867  12.629  23.758  0.00  0.00    +0.000 HD
ENDBRANCH  19  24
ENDBRANCH  13  19
ENDBRANCH  12  16
ENDBRANCH   1  12
BRANCH   8  26
ATOM     26  O   UNL     1       7.158   4.952  15.446  0.00  0.00    +0.000 OA
BRANCH  26  27
ATOM     27  C   UNL     1       6.663   4.987  14.107  0.00  0.00    +0.000 C 
ATOM     28  C   UNL     1       7.772   5.295  13.107  0.00  0.00    +0.000 C 
ATOM     29  C   UNL     1       7.329   4.643  11.809  0.00  0.00    +0.000 C 
ATOM     30  C   UNL     1       6.466   3.453  12.210  0.00  0.00    +0.000 C 
ATOM     31  C   UNL     1       6.201   3.583  13.707  0.00  0.00    +0.000 C 
ENDBRANCH  26  27
ENDBRANCH   8  26
TORSDOF 6
ENDMDL
MODEL 3
REMARK VINA RESULT:      -8.2      2.205     11.709
REMARK  Name = 
REMARK  8 active torsions:
REMARK  status: ('A' for Active; 'I' for Inactive)
REMARK    1  A    between atoms: C_1  and  C_2
REMARK    2  A    between atoms: N_4  and  C_5
REMARK    3  A    between atoms: C_5  and  C_6
REMARK    4  A    between atoms: C_5  and  C_7
REMARK    5  A    between atoms: C_10  and  O_11
REMARK    6  A    between atoms: O_11  and  C_12
REMARK    7  A    between atoms: C_19  and  O_20
REMARK    8  A    between atoms: O_20  and  C_21
REMARK                            x       y       z     vdW  Elec       q    Type
REMARK                         _______ _______ _______ _____ _____    ______ ____
ROOT
ATOM      1  C   UNL     1       1.374   6.787  20.321  0.00  0.00    +0.000 C 
ATOM      2  C   UNL     1       1.616   5.308  20.635  0.00  0.00    +0.000 C 
ATOM      3  C   UNL     1       3.069   5.016  20.282  0.00  0.00    +0.000 C 
ATOM      4  N   UNL     1       3.441   6.051  19.343  0.00  0.00    +0.000 N 
ATOM      5  C   UNL     1       4.397   5.919  18.366  0.00  0.00    +0.000 A 
ATOM      6  C   UNL     1       5.348   4.897  18.403  0.00  0.00    +0.000 A 
ATOM      7  C   UNL     1       6.313   4.772  17.396  0.00  0.00    +0.000 A 
ATOM      8  C   UNL     1       6.322   5.671  16.343  0.00  0.00    +0.000 A 
ATOM      9  C   UNL     1       5.348   6.659  16.373  0.00  0.00    +0.000 A 
ATOM     10  N   UNL     1       4.407   6.802  17.346  0.00  0.00    +0.000 NA
ATOM     11  C   UNL     1       2.551   7.206  19.404  0.00  0.00    +0.000 C 
ENDROOT
BRANCH   1  12
ATOM     12  O   UNL     1       1.317   7.562  21.532  0.00  0.00    +0.000 OA
BRANCH  12  16
ATOM     13  C   UNL     1      -0.913  11.147  21.687  0.00  0.00    +0.000 A 
ATOM     14  C   UNL     1      -0.469  10.469  22.840  0.00  0.00    +0.000 A 
ATOM     15  C   UNL     1       0.283   9.287  22.740  0.00  0.00    +0.000 A 
ATOM     16  C   UNL     1       0.608   8.742  21.498  0.00  0.00    +0.000 A 
ATOM     17  C   UNL     1       0.182   9.413  20.351  0.00  0.00    +0.000 A 
ATOM     18  C   UNL     1      -0.577  10.588  20.445  0.00  0.00    +0.000 A 
BRANCH  13  19
ATOM     19  C   UNL     1      -1.784  12.392  21.811  0.00  0.00    +0.000 C 
ATOM     20  C   UNL     1      -1.951  13.022  20.423  0.00  0.00    +0.000 C 
BRANCH  19  24
ATOM     21  C   UNL     1      -1.195  14.905  24.605  0.00  0.00    +0.000 C 
ATOM     22  C   UNL     1      -1.996  13.969  23.737  0.00  0.00    +0.000 C 
ATOM     23  O   UNL     1      -3.200  13.808  23.878  0.00  0.00    +0.000 OA
ATOM     24  N   UNL     1      -1.228  13.341  22.775  0.00  0.00    +0.000 N 
ATOM     25  H   UNL     1      -0.239  13.268  22.971  0.00  0.00    +0.000 HD
ENDBRANCH  19  24
ENDBRANCH  13  19
ENDBRANCH  12  16
ENDBRANCH   1  12
BRANCH   8  26
ATOM     26  O   UNL     1       7.211   5.704  15.310  0.00  0.00    +0.000 OA
BRANCH  26  27
ATOM     27  C   UNL     1       7.241   4.597  14.407  0.00  0.00    +0.000 C 
ATOM     28  C   UNL     1       5.837   4.094  14.089  0.00  0.00    +0.000 C 
ATOM     29  C   UNL     1       5.940   3.478  12.705  0.00  0.00    +0.000 C 
ATOM     30  C   UNL     1       7.061   4.225  11.994  0.00  0.00    +0.000 C 
ATOM     31  C   UNL     1       7.766   5.073  13.049  0.00  0.00    +0.000 C 
ENDBRANCH  26  27
ENDBRANCH   8  26
TORSDOF 6
ENDMDL
MODEL 4
REMARK VINA RESULT:      -8.0      2.200     11.682
REMARK  Name = 
REMARK  8 active torsions:
REMARK  status: ('A' for Active; 'I' for Inactive)
REMARK    1  A    between atoms: C_1  and  C_2
REMARK    2  A    between atoms: N_4  and  C_5
REMARK    3  A    between atoms: C_5  and  C_6
REMARK    4  A    between atoms: C_5  and  C_7
REMARK    5  A    between atoms: C_10  and  O_11
REMARK    6  A    between atoms: O_11  and  C_12
REMARK    7  A    between atoms: C_19  and  O_20
REMARK    8  A    between atoms: O_20  and  C_21
REMARK                            x       y       z     vdW  Elec       q    Type
REMARK                         _______ _______ _______ _____ _____    ______ ____
ROOT
ATOM      1  C   UNL     1       1.443   6.982  20.368  0.00  0.00    +0.000 C 
ATOM      2  C   UNL     1       1.611   5.484  20.639  0.00  0.00    +0.000 C 
ATOM      3  C   UNL     1       3.016   5.111  20.184  0.00  0.00    +0.000 C 
ATOM      4  N   UNL     1       3.390   6.140  19.240  0.00  0.00    +0.000 N 
ATOM      5  C   UNL     1       4.268   5.968  18.199  0.00  0.00    +0.000 A 
ATOM      6  C   UNL     1       5.153   4.889  18.153  0.00  0.00    +0.000 A 
ATOM      7  C   UNL     1       6.039   4.725  17.082  0.00  0.00    +0.000 A 
ATOM      8  C   UNL     1       6.036   5.644  16.046  0.00  0.00    +0.000 A 
ATOM      9  C   UNL     1       5.131   6.690  16.158  0.00  0.00    +0.000 A 
ATOM     10  N   UNL     1       4.266   6.870  17.195  0.00  0.00    +0.000 NA
ATOM     11  C   UNL     1       2.581   7.346  19.380  0.00  0.00    +0.000 C 
ENDROOT
BRANCH   1  12
ATOM     12  O   UNL     1       1.516   7.733  21.592  0.00  0.00    +0.000 OA
BRANCH  12  16
ATOM     13  C   UNL     1      -1.006  11.119  21.749  0.00  0.00    +0.000 A 
ATOM     14  C   UNL     1      -0.496  10.599  20.544  0.00  0.00    +0.000 A 
ATOM     15  C   UNL     1       0.329   9.461  20.538  0.00  0.00    +0.000 A 
ATOM     16  C   UNL     1       0.674   8.815  21.725  0.00  0.00    +0.000 A 
ATOM     17  C   UNL     1       0.163   9.318  22.923  0.00  0.00    +0.000 A 
ATOM     18  C   UNL     1      -0.651  10.458  22.935  0.00  0.00    +0.000 A 
BRANCH  13  19
ATOM     19  C   UNL     1      -1.845  12.392  21.746  0.00  0.00    +0.000 C 
ATOM     20  C   UNL     1      -2.528  12.536  20.382  0.00  0.00    +0.000 C 
BRANCH  19  24
ATOM     21  C   UNL     1      -0.342  15.531  23.281  0.00  0.00    +0.000 C 
ATOM     22  C   UNL     1      -1.313  14.385  23.155  0.00  0.00    +0.000 C 
ATOM     23  O   UNL     1      -2.246  14.225  23.929  0.00  0.00    +0.000 OA
ATOM     24  N   UNL     1      -1.038  13.567  22.077  0.00  0.00    +0.000 N 
ATOM     25  H   UNL     1      -0.085  13.575  21.741  0.00  0.00    +0.000 HD
ENDBRANCH  19  24
ENDBRANCH  13  19
ENDBRANCH  12  16
ENDBRANCH   1  12
BRANCH   8  26
ATOM     26  O   UNL     1       6.854   5.643  14.955  0.00  0.00    +0.000 OA
BRANCH  26  27
ATOM     27  C   UNL     1       6.915   4.461  14.155  0.00  0.00    +0.000 C 
ATOM     28  C   UNL     1       5.527   4.011  13.713  0.00  0.00    +0.000 C 
ATOM     29  C   UNL     1       5.747   3.271  12.405  0.00  0.00    +0.000 C 
ATOM     30  C   UNL     1       6.990   3.889  11.776  0.00  0.00    +0.000 C 
ATOM     31  C   UNL     1       7.623   4.786  12.837  0.00  0.00    +0.000 C 
ENDBRANCH  26  27
ENDBRANCH   8  26
TORSDOF 6
ENDMDL
MODEL 5
REMARK VINA RESULT:      -7.9      2.031     11.911
REMARK  Name = 
REMARK  8 active torsions:
REMARK  status: ('A' for Active; 'I' for Inactive)
REMARK    1  A    between atoms: C_1  and  C_2
REMARK    2  A    between atoms: N_4  and  C_5
REMARK    3  A    between atoms: C_5  and  C_6
REMARK    4  A    between atoms: C_5  and  C_7
REMARK    5  A    between atoms: C_10  and  O_11
REMARK    6  A    between atoms: O_11  and  C_12
REMARK    7  A    between atoms: C_19  and  O_20
REMARK    8  A    between atoms: O_20  and  C_21
REMARK                            x       y       z     vdW  Elec       q    Type
REMARK                         _______ _______ _______ _____ _____    ______ ____
ROOT
ATOM      1  C   UNL     1       1.499   7.149  20.348  0.00  0.00    +0.000 C 
ATOM      2  C   UNL     1       1.591   5.640  20.596  0.00  0.00    +0.000 C 
ATOM      3  C   UNL     1       2.960   5.197  20.098  0.00  0.00    +0.000 C 
ATOM      4  N   UNL     1       3.366   6.218  19.158  0.00  0.00    +0.000 N 
ATOM      5  C   UNL     1       4.206   6.014  18.091  0.00  0.00    +0.000 A 
ATOM      6  C   UNL     1       5.029   4.889  18.008  0.00  0.00    +0.000 A 
ATOM      7  C   UNL     1       5.877   4.692  16.912  0.00  0.00    +0.000 A 
ATOM      8  C   UNL     1       5.897   5.624  15.888  0.00  0.00    +0.000 A 
ATOM      9  C   UNL     1       5.053   6.716  16.038  0.00  0.00    +0.000 A 
ATOM     10  N   UNL     1       4.228   6.929  17.099  0.00  0.00    +0.000 NA
ATOM     11  C   UNL     1       2.628   7.464  19.335  0.00  0.00    +0.000 C 
ENDROOT
BRANCH   1  12
ATOM     12  O   UNL     1       1.645   7.877  21.579  0.00  0.00    +0.000 OA
BRANCH  12  16
ATOM     13  C   UNL     1      -1.048  11.089  22.112  0.00  0.00    +0.000 A 
ATOM     14  C   UNL     1      -0.461  10.779  20.870  0.00  0.00    +0.000 A 
ATOM     15  C   UNL     1       0.418   9.691  20.736  0.00  0.00    +0.000 A 
ATOM     16  C   UNL     1       0.745   8.890  21.829  0.00  0.00    +0.000 A 
ATOM     17  C   UNL     1       0.158   9.183  23.062  0.00  0.00    +0.000 A 
ATOM     18  C   UNL     1      -0.712  10.273  23.203  0.00  0.00    +0.000 A 
BRANCH  13  19
ATOM     19  C   UNL     1      -1.949  12.311  22.257  0.00  0.00    +0.000 C 
ATOM     20  C   UNL     1      -1.121  13.477  22.808  0.00  0.00    +0.000 C 
BRANCH  19  24
ATOM     21  C   UNL     1      -4.805  12.391  24.767  0.00  0.00    +0.000 C 
ATOM     22  C   UNL     1      -3.608  12.923  24.020  0.00  0.00    +0.000 C 
ATOM     23  O   UNL     1      -3.138  14.030  24.235  0.00  0.00    +0.000 OA
ATOM     24  N   UNL     1      -3.111  12.024  23.097  0.00  0.00    +0.000 N 
ATOM     25  H   UNL     1      -3.759  11.326  22.759  0.00  0.00    +0.000 HD
ENDBRANCH  19  24
ENDBRANCH  13  19
ENDBRANCH  12  16
ENDBRANCH   1  12
BRANCH   8  26
ATOM     26  O   UNL     1       6.685   5.594  14.776  0.00  0.00    +0.000 OA
BRANCH  26  27
ATOM     27  C   UNL     1       6.738   4.386  14.016  0.00  0.00    +0.000 C 
ATOM     28  C   UNL     1       5.357   3.981  13.509  0.00  0.00    +0.000 C 
ATOM     29  C   UNL     1       5.617   3.191  12.238  0.00  0.00    +0.000 C 
ATOM     30  C   UNL     1       6.918   3.736  11.662  0.00  0.00    +0.000 C 
ATOM     31  C   UNL     1       7.530   4.639  12.730  0.00  0.00    +0.000 C 
ENDBRANCH  26  27
ENDBRANCH   8  26
TORSDOF 6
ENDMDL
MODEL 6
REMARK VINA RESULT:      -7.8      1.104      1.581
REMARK  Name = 
REMARK  8 active torsions:
REMARK  status: ('A' for Active; 'I' for Inactive)
REMARK    1  A    between atoms: C_1  and  C_2
REMARK    2  A    between atoms: N_4  and  C_5
REMARK    3  A    between atoms: C_5  and  C_6
REMARK    4  A    between atoms: C_5  and  C_7
REMARK    5  A    between atoms: C_10  and  O_11
REMARK    6  A    between atoms: O_11  and  C_12
REMARK    7  A    between atoms: C_19  and  O_20
REMARK    8  A    between atoms: O_20  and  C_21
REMARK                            x       y       z     vdW  Elec       q    Type
REMARK                         _______ _______ _______ _____ _____    ______ ____
ROOT
ATOM      1  C   UNL     1       2.181   7.293  18.757  0.00  0.00    +0.000 C 
ATOM      2  C   UNL     1       2.058   8.205  17.532  0.00  0.00    +0.000 C 
ATOM      3  C   UNL     1       1.872   9.622  18.057  0.00  0.00    +0.000 C 
ATOM      4  N   UNL     1       1.372   9.461  19.404  0.00  0.00    +0.000 N 
ATOM      5  C   UNL     1       0.570  10.363  20.057  0.00  0.00    +0.000 A 
ATOM      6  C   UNL     1       0.443  11.684  19.621  0.00  0.00    +0.000 A 
ATOM      7  C   UNL     1      -0.383  12.592  20.295  0.00  0.00    +0.000 A 
ATOM      8  C   UNL     1      -1.091  12.174  21.409  0.00  0.00    +0.000 A 
ATOM      9  C   UNL     1      -0.916  10.849  21.785  0.00  0.00    +0.000 A 
ATOM     10  N   UNL     1      -0.113   9.954  21.147  0.00  0.00    +0.000 NA
ATOM     11  C   UNL     1       1.641   8.132  19.943  0.00  0.00    +0.000 C 
ENDROOT
BRANCH   1  12
ATOM     12  O   UNL     1       3.545   6.881  18.950  0.00  0.00    +0.000 OA
BRANCH  12  16
ATOM     13  C   UNL     1       5.430   4.746  15.829  0.00  0.00    +0.000 A 
ATOM     14  C   UNL     1       5.793   6.059  16.189  0.00  0.00    +0.000 A 
ATOM     15  C   UNL     1       5.148   6.726  17.244  0.00  0.00    +0.000 A 
ATOM     16  C   UNL     1       4.123   6.113  17.964  0.00  0.00    +0.000 A 
ATOM     17  C   UNL     1       3.765   4.808  17.622  0.00  0.00    +0.000 A 
ATOM     18  C   UNL     1       4.398   4.142  16.564  0.00  0.00    +0.000 A 
BRANCH  13  19
ATOM     19  C   UNL     1       6.093   4.060  14.641  0.00  0.00    +0.000 C 
ATOM     20  C   UNL     1       7.278   4.911  14.171  0.00  0.00    +0.000 C 
BRANCH  19  24
ATOM     21  C   UNL     1       4.349   3.189  11.375  0.00  0.00    +0.000 C 
ATOM     22  C   UNL     1       5.515   3.353  12.316  0.00  0.00    +0.000 C 
ATOM     23  O   UNL     1       6.666   3.109  11.985  0.00  0.00    +0.000 OA
ATOM     24  N   UNL     1       5.137   3.816  13.561  0.00  0.00    +0.000 N 
ATOM     25  H   UNL     1       4.178   3.643  13.830  0.00  0.00    +0.000 HD
ENDBRANCH  19  24
ENDBRANCH  13  19
ENDBRANCH  12  16
ENDBRANCH   1  12
BRANCH   8  26
ATOM     26  O   UNL     1      -1.906  12.939  22.189  0.00  0.00    +0.000 OA
BRANCH  26  27
ATOM     27  C   UNL     1      -3.123  12.364  22.666  0.00  0.00    +0.000 C 
ATOM     28  C   UNL     1      -3.260  12.516  24.178  0.00  0.00    +0.000 C 
ATOM     29  C   UNL     1      -4.755  12.537  24.442  0.00  0.00    +0.000 C 
ATOM     30  C   UNL     1      -5.396  13.112  23.185  0.00  0.00    +0.000 C 
ATOM     31  C   UNL     1      -4.305  13.169  22.119  0.00  0.00    +0.000 C 
ENDBRANCH  26  27
ENDBRANCH   8  26
TORSDOF 6
ENDMDL
MODEL 7
REMARK VINA RESULT:      -7.7      2.520     11.312
REMARK  Name = 
REMARK  8 active torsions:
REMARK  status: ('A' for Active; 'I' for Inactive)
REMARK    1  A    between atoms: C_1  and  C_2
REMARK    2  A    between atoms: N_4  and  C_5
REMARK    3  A    between atoms: C_5  and  C_6
REMARK    4  A    between atoms: C_5  and  C_7
REMARK    5  A    between atoms: C_10  and  O_11
REMARK    6  A    between atoms: O_11  and  C_12
REMARK    7  A    between atoms: C_19  and  O_20
REMARK    8  A    between atoms: O_20  and  C_21
REMARK                            x       y       z     vdW  Elec       q    Type
REMARK                         _______ _______ _______ _____ _____    ______ ____
ROOT
ATOM      1  C   UNL     1       1.409   7.045  20.116  0.00  0.00    +0.000 C 
ATOM      2  C   UNL     1       1.621   5.642  20.691  0.00  0.00    +0.000 C 
ATOM      3  C   UNL     1       3.069   5.265  20.408  0.00  0.00    +0.000 C 
ATOM      4  N   UNL     1       3.466   6.109  19.303  0.00  0.00    +0.000 N 
ATOM      5  C   UNL     1       4.424   5.786  18.373  0.00  0.00    +0.000 A 
ATOM      6  C   UNL     1       5.355   4.770  18.600  0.00  0.00    +0.000 A 
ATOM      7  C   UNL     1       6.322   4.449  17.640  0.00  0.00    +0.000 A 
ATOM      8  C   UNL     1       6.355   5.145  16.444  0.00  0.00    +0.000 A 
ATOM      9  C   UNL     1       5.400   6.140  16.288  0.00  0.00    +0.000 A 
ATOM     10  N   UNL     1       4.456   6.471  17.211  0.00  0.00    +0.000 NA
ATOM     11  C   UNL     1       2.599   7.271  19.148  0.00  0.00    +0.000 C 
ENDROOT
BRANCH   1  12
ATOM     12  O   UNL     1       1.361   8.025  21.168  0.00  0.00    +0.000 OA
BRANCH  12  16
ATOM     13  C   UNL     1      -0.860  11.583  20.657  0.00  0.00    +0.000 A 
ATOM     14  C   UNL     1      -0.614  11.007  21.919  0.00  0.00    +0.000 A 
ATOM     15  C   UNL     1       0.142   9.829  22.042  0.00  0.00    +0.000 A 
ATOM     16  C   UNL     1       0.668   9.189  20.920  0.00  0.00    +0.000 A 
ATOM     17  C   UNL     1       0.440   9.760  19.667  0.00  0.00    +0.000 A 
ATOM     18  C   UNL     1      -0.323  10.929  19.537  0.00  0.00    +0.000 A 
BRANCH  13  19
ATOM     19  C   UNL     1      -1.737  12.823  20.532  0.00  0.00    +0.000 C 
ATOM     20  C   UNL     1      -3.146  12.395  20.104  0.00  0.00    +0.000 C 
BRANCH  19  24
ATOM     21  C   UNL     1       0.230  15.613  18.854  0.00  0.00    +0.000 C 
ATOM     22  C   UNL     1      -0.200  14.715  19.986  0.00  0.00    +0.000 C 
ATOM     23  O   UNL     1       0.255  14.817  21.116  0.00  0.00    +0.000 OA
ATOM     24  N   UNL     1      -1.160  13.797  19.606  0.00  0.00    +0.000 N 
ATOM     25  H   UNL     1      -1.194  13.568  18.622  0.00  0.00    +0.000 HD
ENDBRANCH  19  24
ENDBRANCH  13  19
ENDBRANCH  12  16
ENDBRANCH   1  12
BRANCH   8  26
ATOM     26  O   UNL     1       7.249   4.975  15.428  0.00  0.00    +0.000 OA
BRANCH  26  27
ATOM     27  C   UNL     1       6.767   5.028  14.085  0.00  0.00    +0.000 C 
ATOM     28  C   UNL     1       7.911   5.155  13.083  0.00  0.00    +0.000 C 
ATOM     29  C   UNL     1       7.392   4.520  11.805  0.00  0.00    +0.000 C 
ATOM     30  C   UNL     1       6.381   3.466  12.239  0.00  0.00    +0.000 C 
ATOM     31  C   UNL     1       6.129   3.682  13.729  0.00  0.00    +0.000 C 
ENDBRANCH  26  27
ENDBRANCH   8  26
TORSDOF 6
ENDMDL
MODEL 8
REMARK VINA RESULT:      -7.6      3.472     12.383
REMARK  Name = 
REMARK  8 active torsions:
REMARK  status: ('A' for Active; 'I' for Inactive)
REMARK    1  A    between atoms: C_1  and  C_2
REMARK    2  A    between atoms: N_4  and  C_5
REMARK    3  A    between atoms: C_5  and  C_6
REMARK    4  A    between atoms: C_5  and  C_7
REMARK    5  A    between atoms: C_10  and  O_11
REMARK    6  A    between atoms: O_11  and  C_12
REMARK    7  A    between atoms: C_19  and  O_20
REMARK    8  A    between atoms: O_20  and  C_21
REMARK                            x       y       z     vdW  Elec       q    Type
REMARK                         _______ _______ _______ _____ _____    ______ ____
ROOT
ATOM      1  C   UNL     1      -0.191  11.504  20.541  0.00  0.00    +0.000 C 
ATOM      2  C   UNL     1       0.743  12.191  19.541  0.00  0.00    +0.000 C 
ATOM      3  C   UNL     1       1.219  11.115  18.574  0.00  0.00    +0.000 C 
ATOM      4  N   UNL     1       1.038   9.868  19.283  0.00  0.00    +0.000 N 
ATOM      5  C   UNL     1       1.786   8.734  19.081  0.00  0.00    +0.000 A 
ATOM      6  C   UNL     1       2.561   8.560  17.933  0.00  0.00    +0.000 A 
ATOM      7  C   UNL     1       3.322   7.401  17.743  0.00  0.00    +0.000 A 
ATOM      8  C   UNL     1       3.312   6.411  18.712  0.00  0.00    +0.000 A 
ATOM      9  C   UNL     1       2.520   6.652  19.825  0.00  0.00    +0.000 A 
ATOM     10  N   UNL     1       1.768   7.769  20.024  0.00  0.00    +0.000 NA
ATOM     11  C   UNL     1       0.101   9.989  20.394  0.00  0.00    +0.000 C 
ENDROOT
BRANCH   1  12
ATOM     12  O   UNL     1      -1.564  11.829  20.263  0.00  0.00    +0.000 OA
BRANCH  12  16
ATOM     13  C   UNL     1      -3.514  14.451  22.943  0.00  0.00    +0.000 A 
ATOM     14  C   UNL     1      -3.178  13.124  23.276  0.00  0.00    +0.000 A 
ATOM     15  C   UNL     1      -2.517  12.292  22.357  0.00  0.00    +0.000 A 
ATOM     16  C   UNL     1      -2.178  12.750  21.084  0.00  0.00    +0.000 A 
ATOM     17  C   UNL     1      -2.496  14.067  20.750  0.00  0.00    +0.000 A 
ATOM     18  C   UNL     1      -3.165  14.899  21.659  0.00  0.00    +0.000 A 
BRANCH  13  19
ATOM     19  C   UNL     1      -4.290  15.322  23.925  0.00  0.00    +0.000 C 
ATOM     20  C   UNL     1      -3.371  15.692  25.095  0.00  0.00    +0.000 C 
BRANCH  19  24
ATOM     21  C   UNL     1      -7.814  13.959  24.359  0.00  0.00    +0.000 C 
ATOM     22  C   UNL     1      -6.701  14.718  23.682  0.00  0.00    +0.000 C 
ATOM     23  O   UNL     1      -6.862  15.326  22.634  0.00  0.00    +0.000 OA
ATOM     24  N   UNL     1      -5.511  14.658  24.380  0.00  0.00    +0.000 N 
ATOM     25  H   UNL     1      -5.397  13.871  25.004  0.00  0.00    +0.000 HD
ENDBRANCH  19  24
ENDBRANCH  13  19
ENDBRANCH  12  16
ENDBRANCH   1  12
BRANCH   8  26
ATOM     26  O   UNL     1       3.969   5.218  18.661  0.00  0.00    +0.000 OA
BRANCH  26  27
ATOM     27  C   UNL     1       3.220   4.022  18.880  0.00  0.00    +0.000 C 
ATOM     28  C   UNL     1       2.430   3.620  17.639  0.00  0.00    +0.000 C 
ATOM     29  C   UNL     1       2.285   2.111  17.732  0.00  0.00    +0.000 C 
ATOM     30  C   UNL     1       3.499   1.618  18.509  0.00  0.00    +0.000 C 
ATOM     31  C   UNL     1       4.189   2.853  19.081  0.00  0.00    +0.000 C 
ENDBRANCH  26  27
ENDBRANCH   8  26
TORSDOF 6
ENDMDL
MODEL 9
REMARK VINA RESULT:      -7.6      2.966     12.224
REMARK  Name = 
REMARK  8 active torsions:
REMARK  status: ('A' for Active; 'I' for Inactive)
REMARK    1  A    between atoms: C_1  and  C_2
REMARK    2  A    between atoms: N_4  and  C_5
REMARK    3  A    between atoms: C_5  and  C_6
REMARK    4  A    between atoms: C_5  and  C_7
REMARK    5  A    between atoms: C_10  and  O_11
REMARK    6  A    between atoms: O_11  and  C_12
REMARK    7  A    between atoms: C_19  and  O_20
REMARK    8  A    between atoms: O_20  and  C_21
REMARK                            x       y       z     vdW  Elec       q    Type
REMARK                         _______ _______ _______ _____ _____    ______ ____
ROOT
ATOM      1  C   UNL     1       0.329  10.894  20.421  0.00  0.00    +0.000 C 
ATOM      2  C   UNL     1       1.270  11.494  19.372  0.00  0.00    +0.000 C 
ATOM      3  C   UNL     1       1.656  10.361  18.430  0.00  0.00    +0.000 C 
ATOM      4  N   UNL     1       1.427   9.150  19.187  0.00  0.00    +0.000 N 
ATOM      5  C   UNL     1       2.104   7.970  19.003  0.00  0.00    +0.000 A 
ATOM      6  C   UNL     1       2.834   7.715  17.841  0.00  0.00    +0.000 A 
ATOM      7  C   UNL     1       3.523   6.508  17.670  0.00  0.00    +0.000 A 
ATOM      8  C   UNL     1       3.487   5.553  18.672  0.00  0.00    +0.000 A 
ATOM      9  C   UNL     1       2.743   5.876  19.798  0.00  0.00    +0.000 A 
ATOM     10  N   UNL     1       2.061   7.040  19.980  0.00  0.00    +0.000 NA
ATOM     11  C   UNL     1       0.531   9.361  20.319  0.00  0.00    +0.000 C 
ENDROOT
BRANCH   1  12
ATOM     12  O   UNL     1      -1.031  11.288  20.171  0.00  0.00    +0.000 OA
BRANCH  12  16
ATOM     13  C   UNL     1      -3.127  13.647  22.980  0.00  0.00    +0.000 A 
ATOM     14  C   UNL     1      -3.494  13.564  21.623  0.00  0.00    +0.000 A 
ATOM     15  C   UNL     1      -2.776  12.755  20.727  0.00  0.00    +0.000 A 
ATOM     16  C   UNL     1      -1.673  12.014  21.149  0.00  0.00    +0.000 A 
ATOM     17  C   UNL     1      -1.309  12.081  22.496  0.00  0.00    +0.000 A 
ATOM     18  C   UNL     1      -2.016  12.895  23.392  0.00  0.00    +0.000 A 
BRANCH  13  19
ATOM     19  C   UNL     1      -3.874  14.580  23.927  0.00  0.00    +0.000 C 
ATOM     20  C   UNL     1      -3.009  14.827  25.168  0.00  0.00    +0.000 C 
BRANCH  19  24
ATOM     21  C   UNL     1      -7.587  13.828  24.273  0.00  0.00    +0.000 C 
ATOM     22  C   UNL     1      -6.365  14.540  23.750  0.00  0.00    +0.000 C 
ATOM     23  O   UNL     1      -6.434  15.465  22.953  0.00  0.00    +0.000 OA
ATOM     24  N   UNL     1      -5.190  14.045  24.279  0.00  0.00    +0.000 N 
ATOM     25  H   UNL     1      -5.219  13.095  24.623  0.00  0.00    +0.000 HD
ENDBRANCH  19  24
ENDBRANCH  13  19
ENDBRANCH  12  16
ENDBRANCH   1  12
BRANCH   8  26
ATOM     26  O   UNL     1       4.074   4.323  18.645  0.00  0.00    +0.000 OA
BRANCH  26  27
ATOM     27  C   UNL     1       5.498   4.254  18.557  0.00  0.00    +0.000 C 
ATOM     28  C   UNL     1       5.980   4.414  17.119  0.00  0.00    +0.000 C 
ATOM     29  C   UNL     1       7.374   5.006  17.230  0.00  0.00    +0.000 C 
ATOM     30  C   UNL     1       7.387   5.811  18.524  0.00  0.00    +0.000 C 
ATOM     31  C   UNL     1       6.104   5.464  19.273  0.00  0.00    +0.000 C 
ENDBRANCH  26  27
ENDBRANCH   8  26
TORSDOF 6
ENDMDL
