MODEL 1
REMARK VINA RESULT:      -6.9      0.000      0.000
REMARK  Name = 
REMARK  6 active torsions:
REMARK  status: ('A' for Active; 'I' for Inactive)
REMARK    1  A    between atoms: C_1  and  C_2
REMARK    2  A    between atoms: C_2  and  N_3
REMARK    3  A    between atoms: C_8  and  C_9
REMARK    4  A    between atoms: N_11  and  C_12
REMARK    5  A    between atoms: C_12  and  C_13
REMARK    6  A    between atoms: C_14  and  C_15
REMARK                            x       y       z     vdW  Elec       q    Type
REMARK                         _______ _______ _______ _____ _____    ______ ____
ROOT
ATOM      1  C   UNL     1       4.631   3.037  19.836  0.00  0.00    +0.000 C 
ATOM      2  O   UNL     1       4.928   1.878  20.115  0.00  0.00    +0.000 OA
ATOM      3  N   UNL     1       5.631   3.954  19.676  0.00  0.00    +0.000 N 
ATOM      4  H   UNL     1       6.563   3.561  19.784  0.00  0.00    +0.000 HD
ENDROOT
BRANCH   1  10
ATOM      5  N   UNL     1       2.272   2.732  18.916  0.00  0.00    +0.000 N 
ATOM      6  C   UNL     1       0.985   2.764  19.430  0.00  0.00    +0.000 C 
ATOM      7  O   UNL     1      -0.025   2.330  18.904  0.00  0.00    +0.000 OA
ATOM      8  C   UNL     1       1.021   3.509  20.744  0.00  0.00    +0.000 C 
ATOM      9  C   UNL     1       2.507   3.571  21.075  0.00  0.00    +0.000 C 
ATOM     10  C   UNL     1       3.183   3.530  19.711  0.00  0.00    +0.000 C 
BRANCH   5  12
ATOM     11  C   UNL     1       2.959   3.345  16.607  0.00  0.00    +0.000 C 
ATOM     12  C   UNL     1       2.605   2.237  17.587  0.00  0.00    +0.000 C 
ENDBRANCH   5  12
ENDBRANCH   1  10
BRANCH   3  13
ATOM     13  C   UNL     1       5.538   5.373  19.387  0.00  0.00    +0.000 C 
BRANCH  13  14
ATOM     14  C   UNL     1       5.578   5.663  17.904  0.00  0.00    +0.000 A 
ATOM     15  C   UNL     1       4.562   6.391  17.234  0.00  0.00    +0.000 A 
ATOM     16  C   UNL     1       3.323   6.951  17.886  0.00  0.00    +0.000 C 
ATOM     17  C   UNL     1       4.670   6.608  15.845  0.00  0.00    +0.000 A 
ATOM     18  C   UNL     1       5.768   6.156  15.122  0.00  0.00    +0.000 A 
ATOM     19  C   UNL     1       6.778   5.460  15.773  0.00  0.00    +0.000 A 
ATOM     20  C   UNL     1       6.683   5.210  17.144  0.00  0.00    +0.000 A 
ATOM     21 CL   UNL     1       7.993   4.330  17.861  0.00  0.00    +0.000 Cl
ENDBRANCH  13  14
ENDBRANCH   3  13
TORSDOF 4
ENDMDL
MODEL 2
REMARK VINA RESULT:      -6.8      1.272      2.009
REMARK  Name = 
REMARK  6 active torsions:
REMARK  status: ('A' for Active; 'I' for Inactive)
REMARK    1  A    between atoms: C_1  and  C_2
REMARK    2  A    between atoms: C_2  and  N_3
REMARK    3  A    between atoms: C_8  and  C_9
REMARK    4  A    between atoms: N_11  and  C_12
REMARK    5  A    between atoms: C_12  and  C_13
REMARK    6  A    between atoms: C_14  and  C_15
REMARK                            x       y       z     vdW  Elec       q    Type
REMARK                         _______ _______ _______ _____ _____    ______ ____
ROOT
ATOM      1  C   UNL     1       4.623   3.038  19.886  0.00  0.00    +0.000 C 
ATOM      2  O   UNL     1       4.935   1.891  20.197  0.00  0.00    +0.000 OA
ATOM      3  N   UNL     1       5.609   3.968  19.717  0.00  0.00    +0.000 N 
ATOM      4  H   UNL     1       6.546   3.593  19.848  0.00  0.00    +0.000 HD
ENDROOT
BRANCH   1  10
ATOM      5  N   UNL     1       2.292   2.690  18.912  0.00  0.00    +0.000 N 
ATOM      6  C   UNL     1       0.993   2.695  19.396  0.00  0.00    +0.000 C 
ATOM      7  O   UNL     1       0.004   2.243  18.846  0.00  0.00    +0.000 OA
ATOM      8  C   UNL     1       0.985   3.437  20.713  0.00  0.00    +0.000 C 
ATOM      9  C   UNL     1       2.461   3.526  21.077  0.00  0.00    +0.000 C 
ATOM     10  C   UNL     1       3.169   3.503  19.729  0.00  0.00    +0.000 C 
BRANCH   5  12
ATOM     11  C   UNL     1       3.035   3.322  16.625  0.00  0.00    +0.000 C 
ATOM     12  C   UNL     1       2.665   2.205  17.590  0.00  0.00    +0.000 C 
ENDBRANCH   5  12
ENDBRANCH   1  10
BRANCH   3  13
ATOM     13  C   UNL     1       5.497   5.378  19.392  0.00  0.00    +0.000 C 
BRANCH  13  14
ATOM     14  C   UNL     1       5.626   5.639  17.909  0.00  0.00    +0.000 A 
ATOM     15  C   UNL     1       6.715   5.161  17.136  0.00  0.00    +0.000 A 
ATOM     16  C   UNL     1       7.875   4.362  17.672  0.00  0.00    +0.000 C 
ATOM     17  C   UNL     1       6.765   5.458  15.758  0.00  0.00    +0.000 A 
ATOM     18  C   UNL     1       5.753   6.177  15.132  0.00  0.00    +0.000 A 
ATOM     19  C   UNL     1       4.673   6.630  15.877  0.00  0.00    +0.000 A 
ATOM     20  C   UNL     1       4.612   6.372  17.248  0.00  0.00    +0.000 A 
ATOM     21 CL   UNL     1       3.224   6.984  18.088  0.00  0.00    +0.000 Cl
ENDBRANCH  13  14
ENDBRANCH   3  13
TORSDOF 4
ENDMDL
MODEL 3
REMARK VINA RESULT:      -6.7      2.960      6.039
REMARK  Name = 
REMARK  6 active torsions:
REMARK  status: ('A' for Active; 'I' for Inactive)
REMARK    1  A    between atoms: C_1  and  C_2
REMARK    2  A    between atoms: C_2  and  N_3
REMARK    3  A    between atoms: C_8  and  C_9
REMARK    4  A    between atoms: N_11  and  C_12
REMARK    5  A    between atoms: C_12  and  C_13
REMARK    6  A    between atoms: C_14  and  C_15
REMARK                            x       y       z     vdW  Elec       q    Type
REMARK                         _______ _______ _______ _____ _____    ______ ____
ROOT
ATOM      1  C   UNL     1       4.283   6.856  17.134  0.00  0.00    +0.000 C 
ATOM      2  O   UNL     1       3.837   7.941  16.768  0.00  0.00    +0.000 OA
ATOM      3  N   UNL     1       3.743   6.259  18.237  0.00  0.00    +0.000 N 
ATOM      4  H   UNL     1       2.975   6.785  18.648  0.00  0.00    +0.000 HD
ENDROOT
BRANCH   1  10
ATOM      5  N   UNL     1       6.599   5.799  17.267  0.00  0.00    +0.000 N 
ATOM      6  C   UNL     1       7.187   4.617  16.843  0.00  0.00    +0.000 C 
ATOM      7  O   UNL     1       8.244   4.146  17.224  0.00  0.00    +0.000 OA
ATOM      8  C   UNL     1       6.326   4.030  15.749  0.00  0.00    +0.000 C 
ATOM      9  C   UNL     1       5.026   4.815  15.863  0.00  0.00    +0.000 C 
ATOM     10  C   UNL     1       5.461   6.153  16.445  0.00  0.00    +0.000 C 
BRANCH   5  12
ATOM     11  C   UNL     1       7.766   7.980  17.527  0.00  0.00    +0.000 C 
ATOM     12  C   UNL     1       7.223   6.728  18.200  0.00  0.00    +0.000 C 
ENDBRANCH   5  12
ENDBRANCH   1  10
BRANCH   3  13
ATOM     13  C   UNL     1       4.115   5.013  18.882  0.00  0.00    +0.000 C 
BRANCH  13  14
ATOM     14  C   UNL     1       2.919   4.137  19.175  0.00  0.00    +0.000 A 
ATOM     15  C   UNL     1       2.798   2.811  18.686  0.00  0.00    +0.000 A 
ATOM     16  C   UNL     1       3.811   2.111  17.816  0.00  0.00    +0.000 C 
ATOM     17  C   UNL     1       1.644   2.063  18.997  0.00  0.00    +0.000 A 
ATOM     18  C   UNL     1       0.636   2.583  19.801  0.00  0.00    +0.000 A 
ATOM     19  C   UNL     1       0.755   3.873  20.301  0.00  0.00    +0.000 A 
ATOM     20  C   UNL     1       1.877   4.644  19.987  0.00  0.00    +0.000 A 
ATOM     21 CL   UNL     1       1.928   6.242  20.657  0.00  0.00    +0.000 Cl
ENDBRANCH  13  14
ENDBRANCH   3  13
TORSDOF 4
ENDMDL
MODEL 4
REMARK VINA RESULT:      -6.7      2.755      5.818
REMARK  Name = 
REMARK  6 active torsions:
REMARK  status: ('A' for Active; 'I' for Inactive)
REMARK    1  A    between atoms: C_1  and  C_2
REMARK    2  A    between atoms: C_2  and  N_3
REMARK    3  A    between atoms: C_8  and  C_9
REMARK    4  A    between atoms: N_11  and  C_12
REMARK    5  A    between atoms: C_12  and  C_13
REMARK    6  A    between atoms: C_14  and  C_15
REMARK                            x       y       z     vdW  Elec       q    Type
REMARK                         _______ _______ _______ _____ _____    ______ ____
ROOT
ATOM      1  C   UNL     1       4.294   6.887  17.191  0.00  0.00    +0.000 C 
ATOM      2  O   UNL     1       3.867   7.993  16.865  0.00  0.00    +0.000 OA
ATOM      3  N   UNL     1       3.747   6.262  18.275  0.00  0.00    +0.000 N 
ATOM      4  H   UNL     1       2.991   6.787  18.707  0.00  0.00    +0.000 HD
ENDROOT
BRANCH   1  10
ATOM      5  N   UNL     1       6.604   5.811  17.272  0.00  0.00    +0.000 N 
ATOM      6  C   UNL     1       7.176   4.632  16.819  0.00  0.00    +0.000 C 
ATOM      7  O   UNL     1       8.235   4.147  17.176  0.00  0.00    +0.000 OA
ATOM      8  C   UNL     1       6.294   4.070  15.728  0.00  0.00    +0.000 C 
ATOM      9  C   UNL     1       5.002   4.862  15.875  0.00  0.00    +0.000 C 
ATOM     10  C   UNL     1       5.456   6.187  16.473  0.00  0.00    +0.000 C 
BRANCH   5  12
ATOM     11  C   UNL     1       7.786   7.981  17.551  0.00  0.00    +0.000 C 
ATOM     12  C   UNL     1       7.249   6.719  18.210  0.00  0.00    +0.000 C 
ENDBRANCH   5  12
ENDBRANCH   1  10
BRANCH   3  13
ATOM     13  C   UNL     1       4.099   4.987  18.875  0.00  0.00    +0.000 C 
BRANCH  13  14
ATOM     14  C   UNL     1       2.882   4.177  19.258  0.00  0.00    +0.000 A 
ATOM     15  C   UNL     1       1.846   4.686  20.082  0.00  0.00    +0.000 A 
ATOM     16  C   UNL     1       1.820   6.066  20.690  0.00  0.00    +0.000 C 
ATOM     17  C   UNL     1       0.749   3.860  20.401  0.00  0.00    +0.000 A 
ATOM     18  C   UNL     1       0.641   2.569  19.897  0.00  0.00    +0.000 A 
ATOM     19  C   UNL     1       1.640   2.069  19.073  0.00  0.00    +0.000 A 
ATOM     20  C   UNL     1       2.749   2.858  18.762  0.00  0.00    +0.000 A 
ATOM     21 CL   UNL     1       3.942   2.140  17.728  0.00  0.00    +0.000 Cl
ENDBRANCH  13  14
ENDBRANCH   3  13
TORSDOF 4
ENDMDL
MODEL 5
REMARK VINA RESULT:      -6.6      3.195      5.731
REMARK  Name = 
REMARK  6 active torsions:
REMARK  status: ('A' for Active; 'I' for Inactive)
REMARK    1  A    between atoms: C_1  and  C_2
REMARK    2  A    between atoms: C_2  and  N_3
REMARK    3  A    between atoms: C_8  and  C_9
REMARK    4  A    between atoms: N_11  and  C_12
REMARK    5  A    between atoms: C_12  and  C_13
REMARK    6  A    between atoms: C_14  and  C_15
REMARK                            x       y       z     vdW  Elec       q    Type
REMARK                         _______ _______ _______ _____ _____    ______ ____
ROOT
ATOM      1  C   UNL     1       5.440   4.518  18.366  0.00  0.00    +0.000 C 
ATOM      2  O   UNL     1       6.411   4.089  18.985  0.00  0.00    +0.000 OA
ATOM      3  N   UNL     1       4.225   4.560  18.988  0.00  0.00    +0.000 N 
ATOM      4  H   UNL     1       4.254   4.240  19.954  0.00  0.00    +0.000 HD
ENDROOT
BRANCH   1  10
ATOM      5  N   UNL     1       6.782   5.432  16.399  0.00  0.00    +0.000 N 
ATOM      6  C   UNL     1       6.965   5.092  15.068  0.00  0.00    +0.000 C 
ATOM      7  O   UNL     1       7.854   5.477  14.328  0.00  0.00    +0.000 OA
ATOM      8  C   UNL     1       5.815   4.208  14.645  0.00  0.00    +0.000 C 
ATOM      9  C   UNL     1       5.176   3.803  15.967  0.00  0.00    +0.000 C 
ATOM     10  C   UNL     1       5.506   4.963  16.898  0.00  0.00    +0.000 C 
BRANCH   5  12
ATOM     11  C   UNL     1       6.867   7.694  17.427  0.00  0.00    +0.000 C 
ATOM     12  C   UNL     1       7.604   6.401  17.111  0.00  0.00    +0.000 C 
ENDBRANCH   5  12
ENDBRANCH   1  10
BRANCH   3  13
ATOM     13  C   UNL     1       2.939   4.982  18.466  0.00  0.00    +0.000 C 
BRANCH  13  14
ATOM     14  C   UNL     1       2.339   6.119  19.261  0.00  0.00    +0.000 A 
ATOM     15  C   UNL     1       2.404   7.471  18.839  0.00  0.00    +0.000 A 
ATOM     16  C   UNL     1       3.075   7.955  17.578  0.00  0.00    +0.000 C 
ATOM     17  C   UNL     1       1.828   8.474  19.645  0.00  0.00    +0.000 A 
ATOM     18  C   UNL     1       1.167   8.165  20.828  0.00  0.00    +0.000 A 
ATOM     19  C   UNL     1       1.081   6.841  21.239  0.00  0.00    +0.000 A 
ATOM     20  C   UNL     1       1.664   5.831  20.471  0.00  0.00    +0.000 A 
ATOM     21 CL   UNL     1       1.505   4.213  21.073  0.00  0.00    +0.000 Cl
ENDBRANCH  13  14
ENDBRANCH   3  13
TORSDOF 4
ENDMDL
MODEL 6
REMARK VINA RESULT:      -6.6      2.825      5.496
REMARK  Name = 
REMARK  6 active torsions:
REMARK  status: ('A' for Active; 'I' for Inactive)
REMARK    1  A    between atoms: C_1  and  C_2
REMARK    2  A    between atoms: C_2  and  N_3
REMARK    3  A    between atoms: C_8  and  C_9
REMARK    4  A    between atoms: N_11  and  C_12
REMARK    5  A    between atoms: C_12  and  C_13
REMARK    6  A    between atoms: C_14  and  C_15
REMARK                            x       y       z     vdW  Elec       q    Type
REMARK                         _______ _______ _______ _____ _____    ______ ____
ROOT
ATOM      1  C   UNL     1       3.755   6.485  17.707  0.00  0.00    +0.000 C 
ATOM      2  O   UNL     1       4.090   7.668  17.695  0.00  0.00    +0.000 OA
ATOM      3  N   UNL     1       2.426   6.176  17.770  0.00  0.00    +0.000 N 
ATOM      4  H   UNL     1       1.820   6.993  17.777  0.00  0.00    +0.000 HD
ENDROOT
BRANCH   1  10
ATOM      5  N   UNL     1       5.803   5.343  16.705  0.00  0.00    +0.000 N 
ATOM      6  C   UNL     1       6.984   4.802  17.188  0.00  0.00    +0.000 C 
ATOM      7  O   UNL     1       7.984   4.533  16.546  0.00  0.00    +0.000 OA
ATOM      8  C   UNL     1       6.805   4.520  18.662  0.00  0.00    +0.000 C 
ATOM      9  C   UNL     1       5.538   5.287  19.017  0.00  0.00    +0.000 C 
ATOM     10  C   UNL     1       4.759   5.324  17.709  0.00  0.00    +0.000 C 
BRANCH   5  12
ATOM     11  C   UNL     1       5.485   4.327  14.458  0.00  0.00    +0.000 C 
ATOM     12  C   UNL     1       5.542   5.596  15.295  0.00  0.00    +0.000 C 
ENDBRANCH   5  12
ENDBRANCH   1  10
BRANCH   3  13
ATOM     13  C   UNL     1       1.787   4.874  17.834  0.00  0.00    +0.000 C 
BRANCH  13  14
ATOM     14  C   UNL     1       2.053   4.166  19.143  0.00  0.00    +0.000 A 
ATOM     15  C   UNL     1       1.873   4.788  20.404  0.00  0.00    +0.000 A 
ATOM     16  C   UNL     1       1.419   6.211  20.614  0.00  0.00    +0.000 C 
ATOM     17  C   UNL     1       2.154   4.061  21.579  0.00  0.00    +0.000 A 
ATOM     18  C   UNL     1       2.569   2.735  21.530  0.00  0.00    +0.000 A 
ATOM     19  C   UNL     1       2.728   2.111  20.300  0.00  0.00    +0.000 A 
ATOM     20  C   UNL     1       2.481   2.818  19.121  0.00  0.00    +0.000 A 
ATOM     21 CL   UNL     1       2.712   1.950  17.637  0.00  0.00    +0.000 Cl
ENDBRANCH  13  14
ENDBRANCH   3  13
TORSDOF 4
ENDMDL
MODEL 7
REMARK VINA RESULT:      -6.4      2.983      5.703
REMARK  Name = 
REMARK  6 active torsions:
REMARK  status: ('A' for Active; 'I' for Inactive)
REMARK    1  A    between atoms: C_1  and  C_2
REMARK    2  A    between atoms: C_2  and  N_3
REMARK    3  A    between atoms: C_8  and  C_9
REMARK    4  A    between atoms: N_11  and  C_12
REMARK    5  A    between atoms: C_12  and  C_13
REMARK    6  A    between atoms: C_14  and  C_15
REMARK                            x       y       z     vdW  Elec       q    Type
REMARK                         _______ _______ _______ _____ _____    ______ ____
ROOT
ATOM      1  C   UNL     1       3.756   6.474  17.776  0.00  0.00    +0.000 C 
ATOM      2  O   UNL     1       4.089   7.657  17.803  0.00  0.00    +0.000 OA
ATOM      3  N   UNL     1       2.428   6.161  17.836  0.00  0.00    +0.000 N 
ATOM      4  H   UNL     1       1.820   6.977  17.874  0.00  0.00    +0.000 HD
ENDROOT
BRANCH   1  10
ATOM      5  N   UNL     1       5.776   5.350  16.700  0.00  0.00    +0.000 N 
ATOM      6  C   UNL     1       6.971   4.805  17.141  0.00  0.00    +0.000 C 
ATOM      7  O   UNL     1       7.953   4.547  16.466  0.00  0.00    +0.000 OA
ATOM      8  C   UNL     1       6.835   4.502  18.615  0.00  0.00    +0.000 C 
ATOM      9  C   UNL     1       5.578   5.262  19.017  0.00  0.00    +0.000 C 
ATOM     10  C   UNL     1       4.761   5.315  17.733  0.00  0.00    +0.000 C 
BRANCH   5  12
ATOM     11  C   UNL     1       5.433   4.368  14.441  0.00  0.00    +0.000 C 
ATOM     12  C   UNL     1       5.474   5.623  15.301  0.00  0.00    +0.000 C 
ENDBRANCH   5  12
ENDBRANCH   1  10
BRANCH   3  13
ATOM     13  C   UNL     1       1.791   4.857  17.858  0.00  0.00    +0.000 C 
BRANCH  13  14
ATOM     14  C   UNL     1       2.120   4.078  19.110  0.00  0.00    +0.000 A 
ATOM     15  C   UNL     1       2.682   2.776  19.081  0.00  0.00    +0.000 A 
ATOM     16  C   UNL     1       3.007   1.999  17.830  0.00  0.00    +0.000 C 
ATOM     17  C   UNL     1       2.950   2.112  20.296  0.00  0.00    +0.000 A 
ATOM     18  C   UNL     1       2.709   2.719  21.523  0.00  0.00    +0.000 A 
ATOM     19  C   UNL     1       2.179   4.001  21.562  0.00  0.00    +0.000 A 
ATOM     20  C   UNL     1       1.881   4.670  20.373  0.00  0.00    +0.000 A 
ATOM     21 CL   UNL     1       1.218   6.265  20.529  0.00  0.00    +0.000 Cl
ENDBRANCH  13  14
ENDBRANCH   3  13
TORSDOF 4
ENDMDL
MODEL 8
REMARK VINA RESULT:      -6.3      4.190      5.437
REMARK  Name = 
REMARK  6 active torsions:
REMARK  status: ('A' for Active; 'I' for Inactive)
REMARK    1  A    between atoms: C_1  and  C_2
REMARK    2  A    between atoms: C_2  and  N_3
REMARK    3  A    between atoms: C_8  and  C_9
REMARK    4  A    between atoms: N_11  and  C_12
REMARK    5  A    between atoms: C_12  and  C_13
REMARK    6  A    between atoms: C_14  and  C_15
REMARK                            x       y       z     vdW  Elec       q    Type
REMARK                         _______ _______ _______ _____ _____    ______ ____
ROOT
ATOM      1  C   UNL     1       2.839   5.949  19.998  0.00  0.00    +0.000 C 
ATOM      2  O   UNL     1       4.002   5.745  19.659  0.00  0.00    +0.000 OA
ATOM      3  N   UNL     1       2.452   7.224  20.298  0.00  0.00    +0.000 N 
ATOM      4  H   UNL     1       3.193   7.910  20.181  0.00  0.00    +0.000 HD
ENDROOT
BRANCH   1  10
ATOM      5  N   UNL     1       1.741   3.821  19.121  0.00  0.00    +0.000 N 
ATOM      6  C   UNL     1       1.411   2.578  19.638  0.00  0.00    +0.000 C 
ATOM      7  O   UNL     1       1.131   1.573  19.008  0.00  0.00    +0.000 OA
ATOM      8  C   UNL     1       1.378   2.688  21.145  0.00  0.00    +0.000 C 
ATOM      9  C   UNL     1       2.070   4.017  21.416  0.00  0.00    +0.000 C 
ATOM     10  C   UNL     1       1.799   4.831  20.158  0.00  0.00    +0.000 C 
BRANCH   5  12
ATOM     11  C   UNL     1       2.972   3.707  16.964  0.00  0.00    +0.000 C 
ATOM     12  C   UNL     1       1.714   4.143  17.701  0.00  0.00    +0.000 C 
ENDBRANCH   5  12
ENDBRANCH   1  10
BRANCH   3  13
ATOM     13  C   UNL     1       1.162   7.709  20.753  0.00  0.00    +0.000 C 
BRANCH  13  14
ATOM     14  C   UNL     1       0.959   9.176  20.449  0.00  0.00    +0.000 A 
ATOM     15  C   UNL     1       1.134   9.725  19.153  0.00  0.00    +0.000 A 
ATOM     16  C   UNL     1       1.550   8.946  17.930  0.00  0.00    +0.000 C 
ATOM     17  C   UNL     1       0.935  11.106  18.956  0.00  0.00    +0.000 A 
ATOM     18  C   UNL     1       0.538  11.939  19.996  0.00  0.00    +0.000 A 
ATOM     19  C   UNL     1       0.345  11.407  21.263  0.00  0.00    +0.000 A 
ATOM     20  C   UNL     1       0.559  10.046  21.491  0.00  0.00    +0.000 A 
ATOM     21 CL   UNL     1       0.295   9.482  23.109  0.00  0.00    +0.000 Cl
ENDBRANCH  13  14
ENDBRANCH   3  13
TORSDOF 4
ENDMDL
MODEL 9
REMARK VINA RESULT:      -6.3      3.440      6.016
REMARK  Name = 
REMARK  6 active torsions:
REMARK  status: ('A' for Active; 'I' for Inactive)
REMARK    1  A    between atoms: C_1  and  C_2
REMARK    2  A    between atoms: C_2  and  N_3
REMARK    3  A    between atoms: C_8  and  C_9
REMARK    4  A    between atoms: N_11  and  C_12
REMARK    5  A    between atoms: C_12  and  C_13
REMARK    6  A    between atoms: C_14  and  C_15
REMARK                            x       y       z     vdW  Elec       q    Type
REMARK                         _______ _______ _______ _____ _____    ______ ____
ROOT
ATOM      1  C   UNL     1       4.902   4.990  18.545  0.00  0.00    +0.000 C 
ATOM      2  O   UNL     1       5.538   4.240  19.282  0.00  0.00    +0.000 OA
ATOM      3  N   UNL     1       3.877   5.722  19.073  0.00  0.00    +0.000 N 
ATOM      4  H   UNL     1       3.755   5.585  20.073  0.00  0.00    +0.000 HD
ENDROOT
BRANCH   1  10
ATOM      5  N   UNL     1       6.410   5.714  16.620  0.00  0.00    +0.000 N 
ATOM      6  C   UNL     1       6.892   5.140  15.454  0.00  0.00    +0.000 C 
ATOM      7  O   UNL     1       7.824   5.533  14.774  0.00  0.00    +0.000 OA
ATOM      8  C   UNL     1       6.007   3.965  15.108  0.00  0.00    +0.000 C 
ATOM      9  C   UNL     1       5.212   3.733  16.387  0.00  0.00    +0.000 C 
ATOM     10  C   UNL     1       5.162   5.109  17.037  0.00  0.00    +0.000 C 
BRANCH   5  12
ATOM     11  C   UNL     1       7.894   6.762  18.319  0.00  0.00    +0.000 C 
ATOM     12  C   UNL     1       6.909   6.965  17.177  0.00  0.00    +0.000 C 
ENDBRANCH   5  12
ENDBRANCH   1  10
BRANCH   3  13
ATOM     13  C   UNL     1       2.964   6.636  18.410  0.00  0.00    +0.000 C 
BRANCH  13  14
ATOM     14  C   UNL     1       2.077   7.372  19.388  0.00  0.00    +0.000 A 
ATOM     15  C   UNL     1       1.570   6.772  20.569  0.00  0.00    +0.000 A 
ATOM     16  C   UNL     1       1.823   5.348  20.997  0.00  0.00    +0.000 C 
ATOM     17  C   UNL     1       0.739   7.525  21.424  0.00  0.00    +0.000 A 
ATOM     18  C   UNL     1       0.435   8.855  21.155  0.00  0.00    +0.000 A 
ATOM     19  C   UNL     1       0.944   9.456  20.012  0.00  0.00    +0.000 A 
ATOM     20  C   UNL     1       1.749   8.725  19.136  0.00  0.00    +0.000 A 
ATOM     21 CL   UNL     1       2.331   9.567  17.736  0.00  0.00    +0.000 Cl
ENDBRANCH  13  14
ENDBRANCH   3  13
TORSDOF 4
ENDMDL
