MODEL 1
REMARK VINA RESULT:      -8.1      0.000      0.000
REMARK  Name = 
REMARK  5 active torsions:
REMARK  status: ('A' for Active; 'I' for Inactive)
REMARK    1  A    between atoms: O_1  and  C_2
REMARK    2  A    between atoms: C_5  and  C_6
REMARK    3  A    between atoms: N_7  and  N_8
REMARK    4  A    between atoms: C_9  and  C_10
REMARK    5  A    between atoms: C_20  and  O_21
REMARK                            x       y       z     vdW  Elec       q    Type
REMARK                         _______ _______ _______ _____ _____    ______ ____
ROOT
ATOM      1  N   UNL     1       3.312   4.067  19.578  0.00  0.00    +0.000 N 
ATOM      2  C   UNL     1       4.625   3.765  19.294  0.00  0.00    +0.000 A 
ATOM      3  N   UNL     1       5.035   2.652  19.848  0.00  0.00    +0.000 NA
ATOM      4  N   UNL     1       3.963   2.199  20.564  0.00  0.00    +0.000 N 
ATOM      5  C   UNL     1       2.886   3.073  20.449  0.00  0.00    +0.000 A 
ATOM      6  S   UNL     1       1.464   2.858  21.279  0.00  0.00    +0.000 S 
ATOM      7  H   UNL     1       4.014   1.371  21.146  0.00  0.00    +0.000 HD
ENDROOT
BRANCH   2   8
ATOM      8  C   UNL     1       5.490   4.569  18.401  0.00  0.00    +0.000 A 
ATOM      9  C   UNL     1       5.399   4.516  17.008  0.00  0.00    +0.000 A 
ATOM     10  C   UNL     1       6.267   5.275  16.216  0.00  0.00    +0.000 A 
ATOM     11  C   UNL     1       7.216   6.105  16.811  0.00  0.00    +0.000 A 
ATOM     12  C   UNL     1       7.285   6.197  18.199  0.00  0.00    +0.000 A 
ATOM     13  C   UNL     1       6.421   5.437  18.991  0.00  0.00    +0.000 A 
ENDBRANCH   2   8
BRANCH   1  15
ATOM     14  C   UNL     1       2.826   6.266  19.803  0.00  0.00    +0.000 C 
ATOM     15  N   UNL     1       2.624   5.169  19.139  0.00  0.00    +0.000 NA
BRANCH  14  19
ATOM     16  C   UNL     1       1.035   9.951  18.635  0.00  0.00    +0.000 A 
ATOM     17  C   UNL     1       1.660   9.141  17.693  0.00  0.00    +0.000 A 
ATOM     18  C   UNL     1       2.228   7.931  18.098  0.00  0.00    +0.000 A 
ATOM     19  C   UNL     1       2.177   7.544  19.444  0.00  0.00    +0.000 A 
ATOM     20  C   UNL     1       1.538   8.367  20.379  0.00  0.00    +0.000 A 
ATOM     21  C   UNL     1       0.965   9.573  19.972  0.00  0.00    +0.000 A 
BRANCH  16  22
ATOM     22  O   UNL     1       0.474  11.143  18.276  0.00  0.00    +0.000 OA
ATOM     23  H   UNL     1      -0.030  11.494  19.027  0.00  0.00    +0.000 HD
ENDBRANCH  16  22
BRANCH  20  24
ATOM     24  O   UNL     1       1.427   8.048  21.704  0.00  0.00    +0.000 OA
ATOM     25  H   UNL     1       0.584   7.563  21.822  0.00  0.00    +0.000 HD
ENDBRANCH  20  24
ENDBRANCH  14  19
ENDBRANCH   1  15
TORSDOF 5
ENDMDL
MODEL 2
REMARK VINA RESULT:      -8.1      0.085      1.030
REMARK  Name = 
REMARK  5 active torsions:
REMARK  status: ('A' for Active; 'I' for Inactive)
REMARK    1  A    between atoms: O_1  and  C_2
REMARK    2  A    between atoms: C_5  and  C_6
REMARK    3  A    between atoms: N_7  and  N_8
REMARK    4  A    between atoms: C_9  and  C_10
REMARK    5  A    between atoms: C_20  and  O_21
REMARK                            x       y       z     vdW  Elec       q    Type
REMARK                         _______ _______ _______ _____ _____    ______ ____
ROOT
ATOM      1  N   UNL     1       3.331   4.061  19.572  0.00  0.00    +0.000 N 
ATOM      2  C   UNL     1       4.646   3.744  19.318  0.00  0.00    +0.000 A 
ATOM      3  N   UNL     1       5.030   2.627  19.882  0.00  0.00    +0.000 NA
ATOM      4  N   UNL     1       3.937   2.186  20.573  0.00  0.00    +0.000 N 
ATOM      5  C   UNL     1       2.873   3.073  20.432  0.00  0.00    +0.000 A 
ATOM      6  S   UNL     1       1.430   2.875  21.229  0.00  0.00    +0.000 S 
ATOM      7  H   UNL     1       3.965   1.359  21.156  0.00  0.00    +0.000 HD
ENDROOT
BRANCH   2   8
ATOM      8  C   UNL     1       5.542   4.537  18.446  0.00  0.00    +0.000 A 
ATOM      9  C   UNL     1       6.467   5.456  18.945  0.00  0.00    +0.000 A 
ATOM     10  C   UNL     1       7.263   6.201  18.069  0.00  0.00    +0.000 A 
ATOM     11  C   UNL     1       7.155   6.016  16.692  0.00  0.00    +0.000 A 
ATOM     12  C   UNL     1       6.267   5.070  16.186  0.00  0.00    +0.000 A 
ATOM     13  C   UNL     1       5.467   4.328  17.060  0.00  0.00    +0.000 A 
ENDBRANCH   2   8
BRANCH   1  15
ATOM     14  C   UNL     1       2.810   6.249  19.825  0.00  0.00    +0.000 C 
ATOM     15  N   UNL     1       2.666   5.171  19.116  0.00  0.00    +0.000 NA
BRANCH  14  19
ATOM     16  C   UNL     1       1.066   9.950  18.632  0.00  0.00    +0.000 A 
ATOM     17  C   UNL     1       1.695   9.133  17.698  0.00  0.00    +0.000 A 
ATOM     18  C   UNL     1       2.247   7.918  18.110  0.00  0.00    +0.000 A 
ATOM     19  C   UNL     1       2.177   7.533  19.456  0.00  0.00    +0.000 A 
ATOM     20  C   UNL     1       1.534   8.363  20.383  0.00  0.00    +0.000 A 
ATOM     21  C   UNL     1       0.977   9.573  19.969  0.00  0.00    +0.000 A 
BRANCH  16  22
ATOM     22  O   UNL     1       0.520  11.146  18.265  0.00  0.00    +0.000 OA
ATOM     23  H   UNL     1       0.634  11.781  18.989  0.00  0.00    +0.000 HD
ENDBRANCH  16  22
BRANCH  20  24
ATOM     24  O   UNL     1       1.405   8.046  21.707  0.00  0.00    +0.000 OA
ATOM     25  H   UNL     1       2.080   7.368  21.916  0.00  0.00    +0.000 HD
ENDBRANCH  20  24
ENDBRANCH  14  19
ENDBRANCH   1  15
TORSDOF 5
ENDMDL
MODEL 3
REMARK VINA RESULT:      -7.8      1.002      1.467
REMARK  Name = 
REMARK  5 active torsions:
REMARK  status: ('A' for Active; 'I' for Inactive)
REMARK    1  A    between atoms: O_1  and  C_2
REMARK    2  A    between atoms: C_5  and  C_6
REMARK    3  A    between atoms: N_7  and  N_8
REMARK    4  A    between atoms: C_9  and  C_10
REMARK    5  A    between atoms: C_20  and  O_21
REMARK                            x       y       z     vdW  Elec       q    Type
REMARK                         _______ _______ _______ _____ _____    ______ ____
ROOT
ATOM      1  N   UNL     1       3.302   4.085  19.572  0.00  0.00    +0.000 N 
ATOM      2  C   UNL     1       4.601   3.727  19.290  0.00  0.00    +0.000 A 
ATOM      3  N   UNL     1       4.973   2.615  19.871  0.00  0.00    +0.000 NA
ATOM      4  N   UNL     1       3.889   2.220  20.603  0.00  0.00    +0.000 N 
ATOM      5  C   UNL     1       2.844   3.131  20.470  0.00  0.00    +0.000 A 
ATOM      6  S   UNL     1       1.420   2.991  21.312  0.00  0.00    +0.000 S 
ATOM      7  H   UNL     1       3.913   1.407  21.207  0.00  0.00    +0.000 HD
ENDROOT
BRANCH   2   8
ATOM      8  C   UNL     1       5.491   4.475  18.373  0.00  0.00    +0.000 A 
ATOM      9  C   UNL     1       5.438   4.336  16.984  0.00  0.00    +0.000 A 
ATOM     10  C   UNL     1       6.328   5.045  16.170  0.00  0.00    +0.000 A 
ATOM     11  C   UNL     1       7.260   5.912  16.738  0.00  0.00    +0.000 A 
ATOM     12  C   UNL     1       7.291   6.091  18.119  0.00  0.00    +0.000 A 
ATOM     13  C   UNL     1       6.405   5.381  18.933  0.00  0.00    +0.000 A 
ENDBRANCH   2   8
BRANCH   1  15
ATOM     14  C   UNL     1       2.849   6.293  19.781  0.00  0.00    +0.000 C 
ATOM     15  N   UNL     1       2.653   5.200  19.107  0.00  0.00    +0.000 NA
BRANCH  14  19
ATOM     16  C   UNL     1       0.987   9.995  18.788  0.00  0.00    +0.000 A 
ATOM     17  C   UNL     1       0.770   9.407  20.029  0.00  0.00    +0.000 A 
ATOM     18  C   UNL     1       1.402   8.200  20.337  0.00  0.00    +0.000 A 
ATOM     19  C   UNL     1       2.239   7.583  19.397  0.00  0.00    +0.000 A 
ATOM     20  C   UNL     1       2.453   8.192  18.154  0.00  0.00    +0.000 A 
ATOM     21  C   UNL     1       1.827   9.400  17.850  0.00  0.00    +0.000 A 
BRANCH  16  22
ATOM     22  O   UNL     1       0.382  11.171  18.450  0.00  0.00    +0.000 OA
ATOM     23  H   UNL     1       0.111  11.631  19.259  0.00  0.00    +0.000 HD
ENDBRANCH  16  22
BRANCH  20  24
ATOM     24  O   UNL     1       3.273   7.664  17.195  0.00  0.00    +0.000 OA
ATOM     25  H   UNL     1       2.711   7.398  16.438  0.00  0.00    +0.000 HD
ENDBRANCH  20  24
ENDBRANCH  14  19
ENDBRANCH   1  15
TORSDOF 5
ENDMDL
MODEL 4
REMARK VINA RESULT:      -7.8      0.985      1.779
REMARK  Name = 
REMARK  5 active torsions:
REMARK  status: ('A' for Active; 'I' for Inactive)
REMARK    1  A    between atoms: O_1  and  C_2
REMARK    2  A    between atoms: C_5  and  C_6
REMARK    3  A    between atoms: N_7  and  N_8
REMARK    4  A    between atoms: C_9  and  C_10
REMARK    5  A    between atoms: C_20  and  O_21
REMARK                            x       y       z     vdW  Elec       q    Type
REMARK                         _______ _______ _______ _____ _____    ______ ____
ROOT
ATOM      1  N   UNL     1       3.343   4.143  19.538  0.00  0.00    +0.000 N 
ATOM      2  C   UNL     1       4.664   3.826  19.309  0.00  0.00    +0.000 A 
ATOM      3  N   UNL     1       5.025   2.684  19.836  0.00  0.00    +0.000 NA
ATOM      4  N   UNL     1       3.909   2.222  20.475  0.00  0.00    +0.000 N 
ATOM      5  C   UNL     1       2.854   3.122  20.342  0.00  0.00    +0.000 A 
ATOM      6  S   UNL     1       1.388   2.901  21.089  0.00  0.00    +0.000 S 
ATOM      7  H   UNL     1       3.915   1.371  21.024  0.00  0.00    +0.000 HD
ENDROOT
BRANCH   2   8
ATOM      8  C   UNL     1       5.589   4.649  18.497  0.00  0.00    +0.000 A 
ATOM      9  C   UNL     1       6.558   5.481  19.062  0.00  0.00    +0.000 A 
ATOM     10  C   UNL     1       7.381   6.261  18.243  0.00  0.00    +0.000 A 
ATOM     11  C   UNL     1       7.256   6.197  16.856  0.00  0.00    +0.000 A 
ATOM     12  C   UNL     1       6.322   5.338  16.283  0.00  0.00    +0.000 A 
ATOM     13  C   UNL     1       5.496   4.561  17.099  0.00  0.00    +0.000 A 
ENDBRANCH   2   8
BRANCH   1  15
ATOM     14  C   UNL     1       2.764   6.299  19.907  0.00  0.00    +0.000 C 
ATOM     15  N   UNL     1       2.699   5.275  19.111  0.00  0.00    +0.000 NA
BRANCH  14  19
ATOM     16  C   UNL     1       0.869  10.027  19.087  0.00  0.00    +0.000 A 
ATOM     17  C   UNL     1       0.704   9.408  20.322  0.00  0.00    +0.000 A 
ATOM     18  C   UNL     1       1.347   8.193  20.572  0.00  0.00    +0.000 A 
ATOM     19  C   UNL     1       2.141   7.599  19.582  0.00  0.00    +0.000 A 
ATOM     20  C   UNL     1       2.302   8.238  18.346  0.00  0.00    +0.000 A 
ATOM     21  C   UNL     1       1.666   9.455  18.099  0.00  0.00    +0.000 A 
BRANCH  16  22
ATOM     22  O   UNL     1       0.252  11.212  18.805  0.00  0.00    +0.000 OA
ATOM     23  H   UNL     1      -0.411  11.393  19.488  0.00  0.00    +0.000 HD
ENDBRANCH  16  22
BRANCH  20  24
ATOM     24  O   UNL     1       3.079   7.734  17.340  0.00  0.00    +0.000 OA
ATOM     25  H   UNL     1       2.490   7.248  16.726  0.00  0.00    +0.000 HD
ENDBRANCH  20  24
ENDBRANCH  14  19
ENDBRANCH   1  15
TORSDOF 5
ENDMDL
MODEL 5
REMARK VINA RESULT:      -7.8      2.369      3.965
REMARK  Name = 
REMARK  5 active torsions:
REMARK  status: ('A' for Active; 'I' for Inactive)
REMARK    1  A    between atoms: O_1  and  C_2
REMARK    2  A    between atoms: C_5  and  C_6
REMARK    3  A    between atoms: N_7  and  N_8
REMARK    4  A    between atoms: C_9  and  C_10
REMARK    5  A    between atoms: C_20  and  O_21
REMARK                            x       y       z     vdW  Elec       q    Type
REMARK                         _______ _______ _______ _____ _____    ______ ____
ROOT
ATOM      1  N   UNL     1       4.113   5.094  17.928  0.00  0.00    +0.000 N 
ATOM      2  C   UNL     1       3.742   3.799  18.218  0.00  0.00    +0.000 A 
ATOM      3  N   UNL     1       4.293   2.911  17.431  0.00  0.00    +0.000 NA
ATOM      4  N   UNL     1       5.045   3.638  16.551  0.00  0.00    +0.000 N 
ATOM      5  C   UNL     1       4.926   5.001  16.807  0.00  0.00    +0.000 A 
ATOM      6  S   UNL     1       5.638   6.159  15.853  0.00  0.00    +0.000 S 
ATOM      7  H   UNL     1       5.545   3.206  15.783  0.00  0.00    +0.000 HD
ENDROOT
BRANCH   2   8
ATOM      8  C   UNL     1       2.858   3.418  19.343  0.00  0.00    +0.000 A 
ATOM      9  C   UNL     1       1.470   3.567  19.300  0.00  0.00    +0.000 A 
ATOM     10  C   UNL     1       0.690   3.220  20.408  0.00  0.00    +0.000 A 
ATOM     11  C   UNL     1       1.290   2.701  21.554  0.00  0.00    +0.000 A 
ATOM     12  C   UNL     1       2.668   2.506  21.590  0.00  0.00    +0.000 A 
ATOM     13  C   UNL     1       3.450   2.857  20.486  0.00  0.00    +0.000 A 
ENDBRANCH   2   8
BRANCH   1  15
ATOM     14  C   UNL     1       2.620   6.785  18.105  0.00  0.00    +0.000 C 
ATOM     15  N   UNL     1       3.687   6.221  18.583  0.00  0.00    +0.000 NA
BRANCH  14  19
ATOM     16  C   UNL     1       0.945  10.352  19.727  0.00  0.00    +0.000 A 
ATOM     17  C   UNL     1       1.290  10.283  18.381  0.00  0.00    +0.000 A 
ATOM     18  C   UNL     1       1.824   9.098  17.869  0.00  0.00    +0.000 A 
ATOM     19  C   UNL     1       2.021   7.994  18.709  0.00  0.00    +0.000 A 
ATOM     20  C   UNL     1       1.662   8.077  20.060  0.00  0.00    +0.000 A 
ATOM     21  C   UNL     1       1.122   9.258  20.569  0.00  0.00    +0.000 A 
BRANCH  16  22
ATOM     22  O   UNL     1       0.425  11.495  20.263  0.00  0.00    +0.000 OA
ATOM     23  H   UNL     1      -0.339  11.773  19.734  0.00  0.00    +0.000 HD
ENDBRANCH  16  22
BRANCH  20  24
ATOM     24  O   UNL     1       1.802   7.035  20.936  0.00  0.00    +0.000 OA
ATOM     25  H   UNL     1       1.665   6.206  20.433  0.00  0.00    +0.000 HD
ENDBRANCH  20  24
ENDBRANCH  14  19
ENDBRANCH   1  15
TORSDOF 5
ENDMDL
MODEL 6
REMARK VINA RESULT:      -7.7      4.504      5.658
REMARK  Name = 
REMARK  5 active torsions:
REMARK  status: ('A' for Active; 'I' for Inactive)
REMARK    1  A    between atoms: O_1  and  C_2
REMARK    2  A    between atoms: C_5  and  C_6
REMARK    3  A    between atoms: N_7  and  N_8
REMARK    4  A    between atoms: C_9  and  C_10
REMARK    5  A    between atoms: C_20  and  O_21
REMARK                            x       y       z     vdW  Elec       q    Type
REMARK                         _______ _______ _______ _____ _____    ______ ____
ROOT
ATOM      1  N   UNL     1       6.008   4.196  15.039  0.00  0.00    +0.000 N 
ATOM      2  C   UNL     1       7.062   5.037  15.321  0.00  0.00    +0.000 A 
ATOM      3  N   UNL     1       7.693   5.458  14.255  0.00  0.00    +0.000 NA
ATOM      4  N   UNL     1       7.058   4.852  13.207  0.00  0.00    +0.000 N 
ATOM      5  C   UNL     1       6.029   4.031  13.660  0.00  0.00    +0.000 A 
ATOM      6  S   UNL     1       5.128   3.077  12.643  0.00  0.00    +0.000 S 
ATOM      7  H   UNL     1       7.375   4.956  12.251  0.00  0.00    +0.000 HD
ENDROOT
BRANCH   2   8
ATOM      8  C   UNL     1       7.428   5.485  16.684  0.00  0.00    +0.000 A 
ATOM      9  C   UNL     1       7.759   4.598  17.710  0.00  0.00    +0.000 A 
ATOM     10  C   UNL     1       8.064   5.080  18.988  0.00  0.00    +0.000 A 
ATOM     11  C   UNL     1       8.061   6.451  19.240  0.00  0.00    +0.000 A 
ATOM     12  C   UNL     1       7.775   7.345  18.211  0.00  0.00    +0.000 A 
ATOM     13  C   UNL     1       7.467   6.865  16.936  0.00  0.00    +0.000 A 
ENDBRANCH   2   8
BRANCH   1  15
ATOM     14  C   UNL     1       4.432   4.408  16.648  0.00  0.00    +0.000 C 
ATOM     15  N   UNL     1       5.181   3.603  15.957  0.00  0.00    +0.000 NA
BRANCH  14  19
ATOM     16  C   UNL     1       1.556   3.113  19.514  0.00  0.00    +0.000 A 
ATOM     17  C   UNL     1       1.154   3.792  18.368  0.00  0.00    +0.000 A 
ATOM     18  C   UNL     1       2.114   4.194  17.436  0.00  0.00    +0.000 A 
ATOM     19  C   UNL     1       3.471   3.925  17.662  0.00  0.00    +0.000 A 
ATOM     20  C   UNL     1       3.859   3.234  18.817  0.00  0.00    +0.000 A 
ATOM     21  C   UNL     1       2.899   2.827  19.743  0.00  0.00    +0.000 A 
BRANCH  16  22
ATOM     22  O   UNL     1       0.646   2.709  20.448  0.00  0.00    +0.000 OA
ATOM     23  H   UNL     1       0.835   1.792  20.698  0.00  0.00    +0.000 HD
ENDBRANCH  16  22
BRANCH  20  24
ATOM     24  O   UNL     1       5.159   2.914  19.095  0.00  0.00    +0.000 OA
ATOM     25  H   UNL     1       5.726   3.397  18.458  0.00  0.00    +0.000 HD
ENDBRANCH  20  24
ENDBRANCH  14  19
ENDBRANCH   1  15
TORSDOF 5
ENDMDL
MODEL 7
REMARK VINA RESULT:      -7.7      2.381      4.044
REMARK  Name = 
REMARK  5 active torsions:
REMARK  status: ('A' for Active; 'I' for Inactive)
REMARK    1  A    between atoms: O_1  and  C_2
REMARK    2  A    between atoms: C_5  and  C_6
REMARK    3  A    between atoms: N_7  and  N_8
REMARK    4  A    between atoms: C_9  and  C_10
REMARK    5  A    between atoms: C_20  and  O_21
REMARK                            x       y       z     vdW  Elec       q    Type
REMARK                         _______ _______ _______ _____ _____    ______ ____
ROOT
ATOM      1  N   UNL     1       4.140   5.102  17.896  0.00  0.00    +0.000 N 
ATOM      2  C   UNL     1       3.798   3.806  18.209  0.00  0.00    +0.000 A 
ATOM      3  N   UNL     1       4.345   2.918  17.419  0.00  0.00    +0.000 NA
ATOM      4  N   UNL     1       5.064   3.646  16.514  0.00  0.00    +0.000 N 
ATOM      5  C   UNL     1       4.930   5.011  16.758  0.00  0.00    +0.000 A 
ATOM      6  S   UNL     1       5.600   6.168  15.775  0.00  0.00    +0.000 S 
ATOM      7  H   UNL     1       5.554   3.213  15.740  0.00  0.00    +0.000 HD
ENDROOT
BRANCH   2   8
ATOM      8  C   UNL     1       2.946   3.423  19.358  0.00  0.00    +0.000 A 
ATOM      9  C   UNL     1       3.463   2.880  20.536  0.00  0.00    +0.000 A 
ATOM     10  C   UNL     1       2.604   2.506  21.575  0.00  0.00    +0.000 A 
ATOM     11  C   UNL     1       1.228   2.693  21.451  0.00  0.00    +0.000 A 
ATOM     12  C   UNL     1       0.708   3.274  20.298  0.00  0.00    +0.000 A 
ATOM     13  C   UNL     1       1.564   3.644  19.257  0.00  0.00    +0.000 A 
ENDBRANCH   2   8
BRANCH   1  15
ATOM     14  C   UNL     1       2.642   6.790  18.068  0.00  0.00    +0.000 C 
ATOM     15  N   UNL     1       3.711   6.230  18.548  0.00  0.00    +0.000 NA
BRANCH  14  19
ATOM     16  C   UNL     1       0.955  10.355  19.680  0.00  0.00    +0.000 A 
ATOM     17  C   UNL     1       1.296  10.282  18.333  0.00  0.00    +0.000 A 
ATOM     18  C   UNL     1       1.834   9.098  17.825  0.00  0.00    +0.000 A 
ATOM     19  C   UNL     1       2.040   7.998  18.669  0.00  0.00    +0.000 A 
ATOM     20  C   UNL     1       1.685   8.086  20.021  0.00  0.00    +0.000 A 
ATOM     21  C   UNL     1       1.141   9.266  20.526  0.00  0.00    +0.000 A 
BRANCH  16  22
ATOM     22  O   UNL     1       0.432  11.499  20.213  0.00  0.00    +0.000 OA
ATOM     23  H   UNL     1       0.567  11.491  21.172  0.00  0.00    +0.000 HD
ENDBRANCH  16  22
BRANCH  20  24
ATOM     24  O   UNL     1       1.833   7.049  20.901  0.00  0.00    +0.000 OA
ATOM     25  H   UNL     1       2.599   7.256  21.477  0.00  0.00    +0.000 HD
ENDBRANCH  20  24
ENDBRANCH  14  19
ENDBRANCH   1  15
TORSDOF 5
ENDMDL
MODEL 8
REMARK VINA RESULT:      -7.7      2.186      3.758
REMARK  Name = 
REMARK  5 active torsions:
REMARK  status: ('A' for Active; 'I' for Inactive)
REMARK    1  A    between atoms: O_1  and  C_2
REMARK    2  A    between atoms: C_5  and  C_6
REMARK    3  A    between atoms: N_7  and  N_8
REMARK    4  A    between atoms: C_9  and  C_10
REMARK    5  A    between atoms: C_20  and  O_21
REMARK                            x       y       z     vdW  Elec       q    Type
REMARK                         _______ _______ _______ _____ _____    ______ ____
ROOT
ATOM      1  N   UNL     1       4.628   5.466  18.388  0.00  0.00    +0.000 N 
ATOM      2  C   UNL     1       4.388   4.186  18.833  0.00  0.00    +0.000 A 
ATOM      3  N   UNL     1       5.472   3.461  18.944  0.00  0.00    +0.000 NA
ATOM      4  N   UNL     1       6.486   4.277  18.527  0.00  0.00    +0.000 N 
ATOM      5  C   UNL     1       5.993   5.520  18.138  0.00  0.00    +0.000 A 
ATOM      6  S   UNL     1       6.957   6.704  17.487  0.00  0.00    +0.000 S 
ATOM      7  H   UNL     1       7.443   3.954  18.455  0.00  0.00    +0.000 HD
ENDROOT
BRANCH   2   8
ATOM      8  C   UNL     1       3.053   3.673  19.215  0.00  0.00    +0.000 A 
ATOM      9  C   UNL     1       2.147   3.153  18.288  0.00  0.00    +0.000 A 
ATOM     10  C   UNL     1       0.886   2.714  18.705  0.00  0.00    +0.000 A 
ATOM     11  C   UNL     1       0.532   2.772  20.052  0.00  0.00    +0.000 A 
ATOM     12  C   UNL     1       1.445   3.247  20.990  0.00  0.00    +0.000 A 
ATOM     13  C   UNL     1       2.704   3.690  20.575  0.00  0.00    +0.000 A 
ENDBRANCH   2   8
BRANCH   1  15
ATOM     14  C   UNL     1       3.141   6.945  19.239  0.00  0.00    +0.000 C 
ATOM     15  N   UNL     1       3.683   6.437  18.174  0.00  0.00    +0.000 NA
BRANCH  14  19
ATOM     16  C   UNL     1       0.259  10.069  18.928  0.00  0.00    +0.000 A 
ATOM     17  C   UNL     1       0.912   9.595  17.794  0.00  0.00    +0.000 A 
ATOM     18  C   UNL     1       1.842   8.561  17.920  0.00  0.00    +0.000 A 
ATOM     19  C   UNL     1       2.123   8.015  19.179  0.00  0.00    +0.000 A 
ATOM     20  C   UNL     1       1.453   8.498  20.310  0.00  0.00    +0.000 A 
ATOM     21  C   UNL     1       0.518   9.526  20.183  0.00  0.00    +0.000 A 
BRANCH  16  22
ATOM     22  O   UNL     1      -0.652  11.082  18.844  0.00  0.00    +0.000 OA
ATOM     23  H   UNL     1      -0.185  11.914  18.676  0.00  0.00    +0.000 HD
ENDBRANCH  16  22
BRANCH  20  24
ATOM     24  O   UNL     1       1.655   8.000  21.568  0.00  0.00    +0.000 OA
ATOM     25  H   UNL     1       1.238   8.620  22.202  0.00  0.00    +0.000 HD
ENDBRANCH  20  24
ENDBRANCH  14  19
ENDBRANCH   1  15
TORSDOF 5
ENDMDL
MODEL 9
REMARK VINA RESULT:      -7.7      4.504      5.669
REMARK  Name = 
REMARK  5 active torsions:
REMARK  status: ('A' for Active; 'I' for Inactive)
REMARK    1  A    between atoms: O_1  and  C_2
REMARK    2  A    between atoms: C_5  and  C_6
REMARK    3  A    between atoms: N_7  and  N_8
REMARK    4  A    between atoms: C_9  and  C_10
REMARK    5  A    between atoms: C_20  and  O_21
REMARK                            x       y       z     vdW  Elec       q    Type
REMARK                         _______ _______ _______ _____ _____    ______ ____
ROOT
ATOM      1  N   UNL     1       6.021   4.214  15.022  0.00  0.00    +0.000 N 
ATOM      2  C   UNL     1       7.058   5.077  15.299  0.00  0.00    +0.000 A 
ATOM      3  N   UNL     1       7.691   5.491  14.231  0.00  0.00    +0.000 NA
ATOM      4  N   UNL     1       7.076   4.857  13.188  0.00  0.00    +0.000 N 
ATOM      5  C   UNL     1       6.057   4.026  13.646  0.00  0.00    +0.000 A 
ATOM      6  S   UNL     1       5.182   3.041  12.637  0.00  0.00    +0.000 S 
ATOM      7  H   UNL     1       7.400   4.951  12.233  0.00  0.00    +0.000 HD
ENDROOT
BRANCH   2   8
ATOM      8  C   UNL     1       7.404   5.554  16.657  0.00  0.00    +0.000 A 
ATOM      9  C   UNL     1       7.403   6.905  17.009  0.00  0.00    +0.000 A 
ATOM     10  C   UNL     1       7.772   7.298  18.300  0.00  0.00    +0.000 A 
ATOM     11  C   UNL     1       8.123   6.341  19.251  0.00  0.00    +0.000 A 
ATOM     12  C   UNL     1       8.084   4.988  18.923  0.00  0.00    +0.000 A 
ATOM     13  C   UNL     1       7.720   4.595  17.633  0.00  0.00    +0.000 A 
ENDBRANCH   2   8
BRANCH   1  15
ATOM     14  C   UNL     1       4.435   4.426  16.621  0.00  0.00    +0.000 C 
ATOM     15  N   UNL     1       5.196   3.622  15.942  0.00  0.00    +0.000 NA
BRANCH  14  19
ATOM     16  C   UNL     1       1.560   3.132  19.488  0.00  0.00    +0.000 A 
ATOM     17  C   UNL     1       1.158   3.811  18.343  0.00  0.00    +0.000 A 
ATOM     18  C   UNL     1       2.117   4.212  17.410  0.00  0.00    +0.000 A 
ATOM     19  C   UNL     1       3.474   3.944  17.635  0.00  0.00    +0.000 A 
ATOM     20  C   UNL     1       3.862   3.253  18.790  0.00  0.00    +0.000 A 
ATOM     21  C   UNL     1       2.903   2.846  19.718  0.00  0.00    +0.000 A 
BRANCH  16  22
ATOM     22  O   UNL     1       0.651   2.729  20.424  0.00  0.00    +0.000 OA
ATOM     23  H   UNL     1       0.781   3.244  21.234  0.00  0.00    +0.000 HD
ENDBRANCH  16  22
BRANCH  20  24
ATOM     24  O   UNL     1       5.163   2.933  19.068  0.00  0.00    +0.000 OA
ATOM     25  H   UNL     1       5.550   2.540  18.259  0.00  0.00    +0.000 HD
ENDBRANCH  20  24
ENDBRANCH  14  19
ENDBRANCH   1  15
TORSDOF 5
ENDMDL
