MODEL 1
REMARK VINA RESULT:      -6.9      0.000      0.000
REMARK  Name = 
REMARK  3 active torsions:
REMARK  status: ('A' for Active; 'I' for Inactive)
REMARK    1  A    between atoms: C_1  and  C_2
REMARK    2  A    between atoms: C_2  and  N_3
REMARK    3  A    between atoms: C_13  and  C_15
REMARK                            x       y       z     vdW  Elec       q    Type
REMARK                         _______ _______ _______ _____ _____    ______ ____
ROOT
ATOM      1  N   UNL     1       6.891   5.493  13.251  0.00  0.00    +0.000 N 
ATOM      2  C   UNL     1       6.696   5.260  14.631  0.00  0.00    +0.000 A 
ATOM      3  C   UNL     1       5.564   5.789  15.239  0.00  0.00    +0.000 A 
ATOM      4  C   UNL     1       5.326   5.545  16.592  0.00  0.00    +0.000 A 
ATOM      5  C   UNL     1       6.305   4.861  17.310  0.00  0.00    +0.000 A 
ATOM      6  N   UNL     1       7.419   4.396  16.715  0.00  0.00    +0.000 NA
ATOM      7  N   UNL     1       7.606   4.594  15.373  0.00  0.00    +0.000 NA
ATOM      8  C   UNL     1       6.130   4.533  18.767  0.00  0.00    +0.000 C 
ATOM      9  C   UNL     1       5.062   5.425  19.392  0.00  0.00    +0.000 C 
ATOM     10  N   UNL     1       3.868   5.392  18.552  0.00  0.00    +0.000 N 
ATOM     11  C   UNL     1       2.651   4.774  18.840  0.00  0.00    +0.000 C 
ATOM     12  O   UNL     1       1.674   4.933  18.113  0.00  0.00    +0.000 OA
ATOM     13  C   UNL     1       4.055   6.022  17.251  0.00  0.00    +0.000 C 
ATOM     14  H   UNL     1       5.991   5.538  12.784  0.00  0.00    +0.000 HD
ENDROOT
BRANCH  11  15
ATOM     15  C   UNL     1       2.545   3.940  20.032  0.00  0.00    +0.000 A 
ATOM     16  C   UNL     1       2.743   2.544  20.252  0.00  0.00    +0.000 A 
ATOM     17  C   UNL     1       2.523   2.306  21.587  0.00  0.00    +0.000 A 
ATOM     18  O   UNL     1       2.134   3.445  22.205  0.00  0.00    +0.000 OA
ATOM     19  C   UNL     1       2.124   4.421  21.262  0.00  0.00    +0.000 A 
ENDBRANCH  11  15
BRANCH   1  21
ATOM     20  C   UNL     1       6.883   3.433  11.951  0.00  0.00    +0.000 C 
ATOM     21  C   UNL     1       7.748   4.479  12.636  0.00  0.00    +0.000 C 
ENDBRANCH   1  21
TORSDOF 2
ENDMDL
MODEL 2
REMARK VINA RESULT:      -6.8      3.430      4.874
REMARK  Name = 
REMARK  3 active torsions:
REMARK  status: ('A' for Active; 'I' for Inactive)
REMARK    1  A    between atoms: C_1  and  C_2
REMARK    2  A    between atoms: C_2  and  N_3
REMARK    3  A    between atoms: C_13  and  C_15
REMARK                            x       y       z     vdW  Elec       q    Type
REMARK                         _______ _______ _______ _____ _____    ______ ____
ROOT
ATOM      1  N   UNL     1       9.285   9.025  18.958  0.00  0.00    +0.000 N 
ATOM      2  C   UNL     1       8.255   8.281  18.340  0.00  0.00    +0.000 A 
ATOM      3  C   UNL     1       8.148   6.927  18.634  0.00  0.00    +0.000 A 
ATOM      4  C   UNL     1       7.119   6.174  18.067  0.00  0.00    +0.000 A 
ATOM      5  C   UNL     1       6.297   6.799  17.132  0.00  0.00    +0.000 A 
ATOM      6  N   UNL     1       6.444   8.100  16.823  0.00  0.00    +0.000 NA
ATOM      7  N   UNL     1       7.423   8.838  17.435  0.00  0.00    +0.000 NA
ATOM      8  C   UNL     1       5.150   6.076  16.482  0.00  0.00    +0.000 C 
ATOM      9  C   UNL     1       5.329   4.566  16.605  0.00  0.00    +0.000 C 
ATOM     10  N   UNL     1       5.624   4.238  17.997  0.00  0.00    +0.000 N 
ATOM     11  C   UNL     1       4.784   3.597  18.908  0.00  0.00    +0.000 C 
ATOM     12  O   UNL     1       5.196   3.251  20.012  0.00  0.00    +0.000 OA
ATOM     13  C   UNL     1       6.921   4.728  18.448  0.00  0.00    +0.000 C 
ATOM     14  H   UNL     1       9.463   8.652  19.884  0.00  0.00    +0.000 HD
ENDROOT
BRANCH  11  15
ATOM     15  C   UNL     1       3.402   3.325  18.527  0.00  0.00    +0.000 A 
ATOM     16  C   UNL     1       2.211   4.107  18.602  0.00  0.00    +0.000 A 
ATOM     17  C   UNL     1       1.192   3.349  18.078  0.00  0.00    +0.000 A 
ATOM     18  O   UNL     1       1.649   2.121  17.743  0.00  0.00    +0.000 OA
ATOM     19  C   UNL     1       2.975   2.101  18.037  0.00  0.00    +0.000 A 
ENDBRANCH  11  15
BRANCH   1  21
ATOM     20  C   UNL     1       9.580  11.049  20.281  0.00  0.00    +0.000 C 
ATOM     21  C   UNL     1       8.971  10.453  19.022  0.00  0.00    +0.000 C 
ENDBRANCH   1  21
TORSDOF 2
ENDMDL
MODEL 3
REMARK VINA RESULT:      -6.7      4.195      6.690
REMARK  Name = 
REMARK  3 active torsions:
REMARK  status: ('A' for Active; 'I' for Inactive)
REMARK    1  A    between atoms: C_1  and  C_2
REMARK    2  A    between atoms: C_2  and  N_3
REMARK    3  A    between atoms: C_13  and  C_15
REMARK                            x       y       z     vdW  Elec       q    Type
REMARK                         _______ _______ _______ _____ _____    ______ ____
ROOT
ATOM      1  N   UNL     1      -0.176  11.279  19.530  0.00  0.00    +0.000 N 
ATOM      2  C   UNL     1       0.668  10.216  19.140  0.00  0.00    +0.000 A 
ATOM      3  C   UNL     1       0.908   9.192  20.048  0.00  0.00    +0.000 A 
ATOM      4  C   UNL     1       1.707   8.110  19.678  0.00  0.00    +0.000 A 
ATOM      5  C   UNL     1       2.328   8.158  18.432  0.00  0.00    +0.000 A 
ATOM      6  N   UNL     1       2.122   9.181  17.581  0.00  0.00    +0.000 NA
ATOM      7  N   UNL     1       1.286  10.205  17.940  0.00  0.00    +0.000 NA
ATOM      8  C   UNL     1       3.191   7.031  17.937  0.00  0.00    +0.000 C 
ATOM      9  C   UNL     1       3.652   6.158  19.100  0.00  0.00    +0.000 C 
ATOM     10  N   UNL     1       2.491   5.804  19.911  0.00  0.00    +0.000 N 
ATOM     11  C   UNL     1       1.882   4.552  20.011  0.00  0.00    +0.000 C 
ATOM     12  O   UNL     1       0.996   4.345  20.835  0.00  0.00    +0.000 OA
ATOM     13  C   UNL     1       1.900   6.939  20.609  0.00  0.00    +0.000 C 
ATOM     14  H   UNL     1      -0.890  10.931  20.162  0.00  0.00    +0.000 HD
ENDROOT
BRANCH  11  15
ATOM     15  C   UNL     1       2.324   3.477  19.128  0.00  0.00    +0.000 A 
ATOM     16  C   UNL     1       3.374   2.517  19.231  0.00  0.00    +0.000 A 
ATOM     17  C   UNL     1       3.317   1.728  18.108  0.00  0.00    +0.000 A 
ATOM     18  O   UNL     1       2.346   2.172  17.276  0.00  0.00    +0.000 OA
ATOM     19  C   UNL     1       1.767   3.240  17.882  0.00  0.00    +0.000 A 
ENDBRANCH  11  15
BRANCH   1  21
ATOM     20  C   UNL     1      -2.153  11.364  18.110  0.00  0.00    +0.000 C 
ATOM     21  C   UNL     1      -0.779  11.955  18.381  0.00  0.00    +0.000 C 
ENDBRANCH   1  21
TORSDOF 2
ENDMDL
MODEL 4
REMARK VINA RESULT:      -6.6      3.077      4.387
REMARK  Name = 
REMARK  3 active torsions:
REMARK  status: ('A' for Active; 'I' for Inactive)
REMARK    1  A    between atoms: C_1  and  C_2
REMARK    2  A    between atoms: C_2  and  N_3
REMARK    3  A    between atoms: C_13  and  C_15
REMARK                            x       y       z     vdW  Elec       q    Type
REMARK                         _______ _______ _______ _____ _____    ______ ____
ROOT
ATOM      1  N   UNL     1       8.990   8.507  18.588  0.00  0.00    +0.000 N 
ATOM      2  C   UNL     1       7.884   7.757  18.128  0.00  0.00    +0.000 A 
ATOM      3  C   UNL     1       7.764   6.435  18.536  0.00  0.00    +0.000 A 
ATOM      4  C   UNL     1       6.664   5.679  18.128  0.00  0.00    +0.000 A 
ATOM      5  C   UNL     1       5.777   6.262  17.227  0.00  0.00    +0.000 A 
ATOM      6  N   UNL     1       5.932   7.530  16.803  0.00  0.00    +0.000 NA
ATOM      7  N   UNL     1       6.987   8.275  17.262  0.00  0.00    +0.000 NA
ATOM      8  C   UNL     1       4.551   5.535  16.745  0.00  0.00    +0.000 C 
ATOM      9  C   UNL     1       4.696   4.033  16.969  0.00  0.00    +0.000 C 
ATOM     10  N   UNL     1       5.112   3.801  18.350  0.00  0.00    +0.000 N 
ATOM     11  C   UNL     1       4.343   3.262  19.382  0.00  0.00    +0.000 C 
ATOM     12  O   UNL     1       4.848   2.987  20.467  0.00  0.00    +0.000 OA
ATOM     13  C   UNL     1       6.460   4.275  18.639  0.00  0.00    +0.000 C 
ATOM     14  H   UNL     1       9.244   8.199  19.520  0.00  0.00    +0.000 HD
ENDROOT
BRANCH  11  15
ATOM     15  C   UNL     1       2.924   3.014  19.153  0.00  0.00    +0.000 A 
ATOM     16  C   UNL     1       2.228   2.015  18.410  0.00  0.00    +0.000 A 
ATOM     17  C   UNL     1       0.884   2.256  18.560  0.00  0.00    +0.000 A 
ATOM     18  O   UNL     1       0.691   3.379  19.290  0.00  0.00    +0.000 OA
ATOM     19  C   UNL     1       1.921   3.847  19.624  0.00  0.00    +0.000 A 
ENDBRANCH  11  15
BRANCH   1  21
ATOM     20  C   UNL     1       9.448  10.609  19.729  0.00  0.00    +0.000 C 
ATOM     21  C   UNL     1       8.726   9.947  18.567  0.00  0.00    +0.000 C 
ENDBRANCH   1  21
TORSDOF 2
ENDMDL
MODEL 5
REMARK VINA RESULT:      -6.1      5.082      7.931
REMARK  Name = 
REMARK  3 active torsions:
REMARK  status: ('A' for Active; 'I' for Inactive)
REMARK    1  A    between atoms: C_1  and  C_2
REMARK    2  A    between atoms: C_2  and  N_3
REMARK    3  A    between atoms: C_13  and  C_15
REMARK                            x       y       z     vdW  Elec       q    Type
REMARK                         _______ _______ _______ _____ _____    ______ ____
ROOT
ATOM      1  N   UNL     1      -1.375  11.641  20.713  0.00  0.00    +0.000 N 
ATOM      2  C   UNL     1      -0.498  10.792  20.002  0.00  0.00    +0.000 A 
ATOM      3  C   UNL     1       0.203   9.822  20.709  0.00  0.00    +0.000 A 
ATOM      4  C   UNL     1       1.049   8.944  20.029  0.00  0.00    +0.000 A 
ATOM      5  C   UNL     1       1.239   9.153  18.665  0.00  0.00    +0.000 A 
ATOM      6  N   UNL     1       0.588  10.128  18.004  0.00  0.00    +0.000 NA
ATOM      7  N   UNL     1      -0.284  10.942  18.678  0.00  0.00    +0.000 NA
ATOM      8  C   UNL     1       2.116   8.249  17.844  0.00  0.00    +0.000 C 
ATOM      9  C   UNL     1       3.070   7.467  18.741  0.00  0.00    +0.000 C 
ATOM     10  N   UNL     1       2.304   6.854  19.822  0.00  0.00    +0.000 N 
ATOM     11  C   UNL     1       2.013   5.499  19.987  0.00  0.00    +0.000 C 
ATOM     12  O   UNL     1       1.477   5.088  21.012  0.00  0.00    +0.000 OA
ATOM     13  C   UNL     1       1.742   7.820  20.758  0.00  0.00    +0.000 C 
ATOM     14  H   UNL     1      -1.781  11.134  21.492  0.00  0.00    +0.000 HD
ENDROOT
BRANCH  11  15
ATOM     15  C   UNL     1       2.368   4.565  18.924  0.00  0.00    +0.000 A 
ATOM     16  C   UNL     1       1.680   4.134  17.751  0.00  0.00    +0.000 A 
ATOM     17  C   UNL     1       2.502   3.250  17.097  0.00  0.00    +0.000 A 
ATOM     18  O   UNL     1       3.630   3.044  17.815  0.00  0.00    +0.000 OA
ATOM     19  C   UNL     1       3.535   3.818  18.927  0.00  0.00    +0.000 A 
ENDBRANCH  11  15
BRANCH   1  21
ATOM     20  C   UNL     1      -3.451  12.915  20.710  0.00  0.00    +0.000 C 
ATOM     21  C   UNL     1      -2.419  12.200  19.853  0.00  0.00    +0.000 C 
ENDBRANCH   1  21
TORSDOF 2
ENDMDL
MODEL 6
REMARK VINA RESULT:      -6.1      3.876      7.459
REMARK  Name = 
REMARK  3 active torsions:
REMARK  status: ('A' for Active; 'I' for Inactive)
REMARK    1  A    between atoms: C_1  and  C_2
REMARK    2  A    between atoms: C_2  and  N_3
REMARK    3  A    between atoms: C_13  and  C_15
REMARK                            x       y       z     vdW  Elec       q    Type
REMARK                         _______ _______ _______ _____ _____    ______ ____
ROOT
ATOM      1  N   UNL     1       0.287   9.939  20.760  0.00  0.00    +0.000 N 
ATOM      2  C   UNL     1       1.029   8.795  20.387  0.00  0.00    +0.000 A 
ATOM      3  C   UNL     1       1.669   8.795  19.154  0.00  0.00    +0.000 A 
ATOM      4  C   UNL     1       2.440   7.695  18.774  0.00  0.00    +0.000 A 
ATOM      5  C   UNL     1       2.443   6.584  19.614  0.00  0.00    +0.000 A 
ATOM      6  N   UNL     1       1.779   6.583  20.784  0.00  0.00    +0.000 NA
ATOM      7  N   UNL     1       1.076   7.696  21.168  0.00  0.00    +0.000 NA
ATOM      8  C   UNL     1       3.259   5.361  19.300  0.00  0.00    +0.000 C 
ATOM      9  C   UNL     1       3.628   5.328  17.820  0.00  0.00    +0.000 C 
ATOM     10  N   UNL     1       4.192   6.621  17.446  0.00  0.00    +0.000 N 
ATOM     11  C   UNL     1       5.525   6.904  17.144  0.00  0.00    +0.000 C 
ATOM     12  O   UNL     1       5.854   8.003  16.708  0.00  0.00    +0.000 OA
ATOM     13  C   UNL     1       3.226   7.712  17.486  0.00  0.00    +0.000 C 
ATOM     14  H   UNL     1       0.723  10.768  20.371  0.00  0.00    +0.000 HD
ENDROOT
BRANCH  11  15
ATOM     15  C   UNL     1       6.531   5.865  17.340  0.00  0.00    +0.000 A 
ATOM     16  C   UNL     1       7.275   5.449  18.483  0.00  0.00    +0.000 A 
ATOM     17  C   UNL     1       8.073   4.401  18.092  0.00  0.00    +0.000 A 
ATOM     18  O   UNL     1       7.930   4.177  16.765  0.00  0.00    +0.000 OA
ATOM     19  C   UNL     1       7.020   5.076  16.310  0.00  0.00    +0.000 A 
ENDBRANCH  11  15
BRANCH   1  21
ATOM     20  C   UNL     1      -0.929  11.081  22.535  0.00  0.00    +0.000 C 
ATOM     21  C   UNL     1       0.145  10.054  22.212  0.00  0.00    +0.000 C 
ENDBRANCH   1  21
TORSDOF 2
ENDMDL
MODEL 7
REMARK VINA RESULT:      -6.1      4.060      7.152
REMARK  Name = 
REMARK  3 active torsions:
REMARK  status: ('A' for Active; 'I' for Inactive)
REMARK    1  A    between atoms: C_1  and  C_2
REMARK    2  A    between atoms: C_2  and  N_3
REMARK    3  A    between atoms: C_13  and  C_15
REMARK                            x       y       z     vdW  Elec       q    Type
REMARK                         _______ _______ _______ _____ _____    ______ ____
ROOT
ATOM      1  N   UNL     1       0.212  10.447  19.291  0.00  0.00    +0.000 N 
ATOM      2  C   UNL     1       1.018   9.289  19.362  0.00  0.00    +0.000 A 
ATOM      3  C   UNL     1       1.704   8.888  18.223  0.00  0.00    +0.000 A 
ATOM      4  C   UNL     1       2.537   7.770  18.272  0.00  0.00    +0.000 A 
ATOM      5  C   UNL     1       2.560   7.030  19.452  0.00  0.00    +0.000 A 
ATOM      6  N   UNL     1       1.853   7.406  20.533  0.00  0.00    +0.000 NA
ATOM      7  N   UNL     1       1.087   8.541  20.484  0.00  0.00    +0.000 NA
ATOM      8  C   UNL     1       3.441   5.822  19.608  0.00  0.00    +0.000 C 
ATOM      9  C   UNL     1       3.866   5.288  18.244  0.00  0.00    +0.000 C 
ATOM     10  N   UNL     1       4.385   6.395  17.446  0.00  0.00    +0.000 N 
ATOM     11  C   UNL     1       5.713   6.626  17.088  0.00  0.00    +0.000 C 
ATOM     12  O   UNL     1       6.009   7.516  16.296  0.00  0.00    +0.000 OA
ATOM     13  C   UNL     1       3.369   7.374  17.078  0.00  0.00    +0.000 C 
ATOM     14  H   UNL     1       0.624  11.108  18.641  0.00  0.00    +0.000 HD
ENDROOT
BRANCH  11  15
ATOM     15  C   UNL     1       6.758   5.781  17.659  0.00  0.00    +0.000 A 
ATOM     16  C   UNL     1       7.474   5.836  18.891  0.00  0.00    +0.000 A 
ATOM     17  C   UNL     1       8.334   4.765  18.911  0.00  0.00    +0.000 A 
ATOM     18  O   UNL     1       8.255   4.083  17.745  0.00  0.00    +0.000 OA
ATOM     19  C   UNL     1       7.323   4.711  16.984  0.00  0.00    +0.000 A 
ENDBRANCH  11  15
BRANCH   1  21
ATOM     20  C   UNL     1       0.672  12.431  20.628  0.00  0.00    +0.000 C 
ATOM     21  C   UNL     1       0.011  11.061  20.605  0.00  0.00    +0.000 C 
ENDBRANCH   1  21
TORSDOF 2
ENDMDL
MODEL 8
REMARK VINA RESULT:      -6.0      4.696      7.521
REMARK  Name = 
REMARK  3 active torsions:
REMARK  status: ('A' for Active; 'I' for Inactive)
REMARK    1  A    between atoms: C_1  and  C_2
REMARK    2  A    between atoms: C_2  and  N_3
REMARK    3  A    between atoms: C_13  and  C_15
REMARK                            x       y       z     vdW  Elec       q    Type
REMARK                         _______ _______ _______ _____ _____    ______ ____
ROOT
ATOM      1  N   UNL     1      -0.696  11.355  20.860  0.00  0.00    +0.000 N 
ATOM      2  C   UNL     1       0.070  10.426  20.121  0.00  0.00    +0.000 A 
ATOM      3  C   UNL     1       0.676   9.377  20.801  0.00  0.00    +0.000 A 
ATOM      4  C   UNL     1       1.408   8.422  20.094  0.00  0.00    +0.000 A 
ATOM      5  C   UNL     1       1.592   8.628  18.728  0.00  0.00    +0.000 A 
ATOM      6  N   UNL     1       1.037   9.676  18.092  0.00  0.00    +0.000 NA
ATOM      7  N   UNL     1       0.271  10.570  18.794  0.00  0.00    +0.000 NA
ATOM      8  C   UNL     1       2.349   7.646  17.878  0.00  0.00    +0.000 C 
ATOM      9  C   UNL     1       3.231   6.753  18.745  0.00  0.00    +0.000 C 
ATOM     10  N   UNL     1       2.425   6.212  19.836  0.00  0.00    +0.000 N 
ATOM     11  C   UNL     1       1.993   4.894  19.992  0.00  0.00    +0.000 C 
ATOM     12  O   UNL     1       1.438   4.530  21.024  0.00  0.00    +0.000 OA
ATOM     13  C   UNL     1       1.991   7.220  20.795  0.00  0.00    +0.000 C 
ATOM     14  H   UNL     1      -1.138  10.884  21.643  0.00  0.00    +0.000 HD
ENDROOT
BRANCH  11  15
ATOM     15  C   UNL     1       2.224   3.941  18.911  0.00  0.00    +0.000 A 
ATOM     16  C   UNL     1       3.123   2.843  18.771  0.00  0.00    +0.000 A 
ATOM     17  C   UNL     1       2.891   2.280  17.540  0.00  0.00    +0.000 A 
ATOM     18  O   UNL     1       1.955   2.992  16.871  0.00  0.00    +0.000 OA
ATOM     19  C   UNL     1       1.573   4.006  17.689  0.00  0.00    +0.000 A 
ENDBRANCH  11  15
BRANCH   1  21
ATOM     20  C   UNL     1      -1.527  13.539  20.173  0.00  0.00    +0.000 C 
ATOM     21  C   UNL     1      -1.691  12.034  20.029  0.00  0.00    +0.000 C 
ENDBRANCH   1  21
TORSDOF 2
ENDMDL
MODEL 9
REMARK VINA RESULT:      -5.9      5.293      7.072
REMARK  Name = 
REMARK  3 active torsions:
REMARK  status: ('A' for Active; 'I' for Inactive)
REMARK    1  A    between atoms: C_1  and  C_2
REMARK    2  A    between atoms: C_2  and  N_3
REMARK    3  A    between atoms: C_13  and  C_15
REMARK                            x       y       z     vdW  Elec       q    Type
REMARK                         _______ _______ _______ _____ _____    ______ ____
ROOT
ATOM      1  N   UNL     1       4.597   4.722  19.082  0.00  0.00    +0.000 N 
ATOM      2  C   UNL     1       3.884   5.906  18.789  0.00  0.00    +0.000 A 
ATOM      3  C   UNL     1       2.919   6.338  19.690  0.00  0.00    +0.000 A 
ATOM      4  C   UNL     1       2.224   7.523  19.447  0.00  0.00    +0.000 A 
ATOM      5  C   UNL     1       2.456   8.173  18.237  0.00  0.00    +0.000 A 
ATOM      6  N   UNL     1       3.361   7.716  17.353  0.00  0.00    +0.000 NA
ATOM      7  N   UNL     1       4.077   6.583  17.638  0.00  0.00    +0.000 NA
ATOM      8  C   UNL     1       1.770   9.467  17.894  0.00  0.00    +0.000 C 
ATOM      9  C   UNL     1       0.527   9.660  18.756  0.00  0.00    +0.000 C 
ATOM     10  N   UNL     1       0.885   9.445  20.155  0.00  0.00    +0.000 N 
ATOM     11  C   UNL     1       0.984  10.410  21.158  0.00  0.00    +0.000 C 
ATOM     12  O   UNL     1       1.159  10.087  22.330  0.00  0.00    +0.000 OA
ATOM     13  C   UNL     1       1.245   8.065  20.458  0.00  0.00    +0.000 C 
ATOM     14  H   UNL     1       4.710   4.633  20.087  0.00  0.00    +0.000 HD
ENDROOT
BRANCH  11  15
ATOM     15  C   UNL     1       0.861  11.819  20.800  0.00  0.00    +0.000 A 
ATOM     16  C   UNL     1       1.799  12.770  20.298  0.00  0.00    +0.000 A 
ATOM     17  C   UNL     1       1.124  13.953  20.121  0.00  0.00    +0.000 A 
ATOM     18  O   UNL     1      -0.155  13.828  20.542  0.00  0.00    +0.000 OA
ATOM     19  C   UNL     1      -0.304  12.549  20.973  0.00  0.00    +0.000 A 
ENDBRANCH  11  15
BRANCH   1  21
ATOM     20  C   UNL     1       6.908   5.482  19.202  0.00  0.00    +0.000 C 
ATOM     21  C   UNL     1       5.894   4.677  18.405  0.00  0.00    +0.000 C 
ENDBRANCH   1  21
TORSDOF 2
ENDMDL
