MODEL 1
REMARK VINA RESULT:      -8.0      0.000      0.000
REMARK  Name = 
REMARK  10 active torsions:
REMARK  status: ('A' for Active; 'I' for Inactive)
REMARK    1  A    between atoms: C_1  and  C_2
REMARK    2  A    between atoms: C_5  and  O_6
REMARK    3  A    between atoms: O_6  and  C_7
REMARK    4  A    between atoms: C_11  and  C_12
REMARK    5  A    between atoms: C_15  and  O_16
REMARK    6  A    between atoms: O_16  and  C_17
REMARK    7  A    between atoms: C_17  and  C_18
REMARK    8  A    between atoms: C_18  and  C_19
REMARK    9  A    between atoms: C_19  and  C_20
REMARK   10  A    between atoms: C_20  and  O_22
REMARK                            x       y       z     vdW  Elec       q    Type
REMARK                         _______ _______ _______ _____ _____    ______ ____
ROOT
ATOM      1  C   UNL     1       0.962   9.778  18.995  0.00  0.00    +0.000 A 
ATOM      2  C   UNL     1       0.626   9.639  20.336  0.00  0.00    +0.000 A 
ATOM      3  C   UNL     1       1.077   8.528  21.047  0.00  0.00    +0.000 A 
ATOM      4  C   UNL     1       1.856   7.552  20.413  0.00  0.00    +0.000 A 
ATOM      5  C   UNL     1       2.246   7.695  19.072  0.00  0.00    +0.000 A 
ATOM      6  C   UNL     1       1.824   8.854  18.397  0.00  0.00    +0.000 A 
ENDROOT
BRANCH   5   7
ATOM      7  C   UNL     1       3.038   6.669  18.362  0.00  0.00    +0.000 A 
ATOM      8  C   UNL     1       4.195   7.030  17.648  0.00  0.00    +0.000 A 
ATOM      9  C   UNL     1       5.003   6.080  17.026  0.00  0.00    +0.000 A 
ATOM     10  C   UNL     1       4.667   4.729  17.075  0.00  0.00    +0.000 A 
ATOM     11  C   UNL     1       3.502   4.351  17.743  0.00  0.00    +0.000 A 
ATOM     12  C   UNL     1       2.700   5.307  18.381  0.00  0.00    +0.000 A 
BRANCH  10  13
ATOM     13  O   UNL     1       5.396   3.718  16.512  0.00  0.00    +0.000 OA
BRANCH  13  14
ATOM     14  C   UNL     1       6.173   4.083  15.367  0.00  0.00    +0.000 C 
BRANCH  14  15
ATOM     15  C   UNL     1       5.315   4.039  14.110  0.00  0.00    +0.000 C 
BRANCH  15  16
ATOM     16  C   UNL     1       6.157   3.883  12.849  0.00  0.00    +0.000 C 
BRANCH  16  17
ATOM     17  C   UNL     1       5.510   2.928  11.873  0.00  0.00    +0.000 C 
ATOM     18  O   UNL     1       4.479   3.134  11.253  0.00  0.00    +0.000 OA
BRANCH  17  19
ATOM     19  O   UNL     1       6.201   1.769  11.763  0.00  0.00    +0.000 OA
ATOM     20  H   UNL     1       6.313   1.467  10.842  0.00  0.00    +0.000 HD
ENDBRANCH  17  19
ENDBRANCH  16  17
ENDBRANCH  15  16
ENDBRANCH  14  15
ENDBRANCH  13  14
ENDBRANCH  10  13
ENDBRANCH   5   7
BRANCH   1  21
ATOM     21  O   UNL     1       0.431  10.851  18.311  0.00  0.00    +0.000 OA
BRANCH  21  26
ATOM     22  C   UNL     1      -5.187  11.280  17.530  0.00  0.00    +0.000 C 
ATOM     23  C   UNL     1      -3.712  11.128  17.743  0.00  0.00    +0.000 A 
ATOM     24  C   UNL     1      -2.995  10.132  17.075  0.00  0.00    +0.000 A 
ATOM     25  C   UNL     1      -1.621   9.993  17.277  0.00  0.00    +0.000 A 
ATOM     26  C   UNL     1      -0.937  10.882  18.114  0.00  0.00    +0.000 A 
ATOM     27  C   UNL     1      -1.654  11.848  18.818  0.00  0.00    +0.000 A 
ATOM     28  C   UNL     1      -3.035  11.970  18.640  0.00  0.00    +0.000 A 
ENDBRANCH  21  26
ENDBRANCH   1  21
TORSDOF 9
ENDMDL
MODEL 2
REMARK VINA RESULT:      -7.7      1.743      3.204
REMARK  Name = 
REMARK  10 active torsions:
REMARK  status: ('A' for Active; 'I' for Inactive)
REMARK    1  A    between atoms: C_1  and  C_2
REMARK    2  A    between atoms: C_5  and  O_6
REMARK    3  A    between atoms: O_6  and  C_7
REMARK    4  A    between atoms: C_11  and  C_12
REMARK    5  A    between atoms: C_15  and  O_16
REMARK    6  A    between atoms: O_16  and  C_17
REMARK    7  A    between atoms: C_17  and  C_18
REMARK    8  A    between atoms: C_18  and  C_19
REMARK    9  A    between atoms: C_19  and  C_20
REMARK   10  A    between atoms: C_20  and  O_22
REMARK                            x       y       z     vdW  Elec       q    Type
REMARK                         _______ _______ _______ _____ _____    ______ ____
ROOT
ATOM      1  C   UNL     1       1.106   9.610  19.230  0.00  0.00    +0.000 A 
ATOM      2  C   UNL     1       0.821   9.189  20.523  0.00  0.00    +0.000 A 
ATOM      3  C   UNL     1       1.307   7.961  20.970  0.00  0.00    +0.000 A 
ATOM      4  C   UNL     1       2.068   7.151  20.119  0.00  0.00    +0.000 A 
ATOM      5  C   UNL     1       2.406   7.575  18.824  0.00  0.00    +0.000 A 
ATOM      6  C   UNL     1       1.951   8.843  18.421  0.00  0.00    +0.000 A 
ENDROOT
BRANCH   5   7
ATOM      7  C   UNL     1       3.178   6.732  17.888  0.00  0.00    +0.000 A 
ATOM      8  C   UNL     1       4.082   7.315  16.983  0.00  0.00    +0.000 A 
ATOM      9  C   UNL     1       4.877   6.545  16.134  0.00  0.00    +0.000 A 
ATOM     10  C   UNL     1       4.776   5.156  16.145  0.00  0.00    +0.000 A 
ATOM     11  C   UNL     1       3.857   4.556  17.006  0.00  0.00    +0.000 A 
ATOM     12  C   UNL     1       3.070   5.332  17.869  0.00  0.00    +0.000 A 
BRANCH  10  13
ATOM     13  O   UNL     1       5.516   4.310  15.366  0.00  0.00    +0.000 OA
BRANCH  13  14
ATOM     14  C   UNL     1       6.717   3.815  15.966  0.00  0.00    +0.000 C 
BRANCH  14  15
ATOM     15  C   UNL     1       7.469   4.944  16.656  0.00  0.00    +0.000 C 
BRANCH  15  16
ATOM     16  C   UNL     1       7.869   4.578  18.081  0.00  0.00    +0.000 C 
BRANCH  16  17
ATOM     17  C   UNL     1       7.371   5.605  19.070  0.00  0.00    +0.000 C 
ATOM     18  O   UNL     1       6.286   5.588  19.630  0.00  0.00    +0.000 OA
BRANCH  17  19
ATOM     19  O   UNL     1       8.272   6.596  19.270  0.00  0.00    +0.000 OA
ATOM     20  H   UNL     1       7.916   7.352  19.774  0.00  0.00    +0.000 HD
ENDBRANCH  17  19
ENDBRANCH  16  17
ENDBRANCH  15  16
ENDBRANCH  14  15
ENDBRANCH  13  14
ENDBRANCH  10  13
ENDBRANCH   5   7
BRANCH   1  21
ATOM     21  O   UNL     1       0.543  10.794  18.804  0.00  0.00    +0.000 OA
BRANCH  21  26
ATOM     22  C   UNL     1      -4.994  11.093  17.534  0.00  0.00    +0.000 C 
ATOM     23  C   UNL     1      -3.540  10.975  17.873  0.00  0.00    +0.000 A 
ATOM     24  C   UNL     1      -2.728  10.048  17.215  0.00  0.00    +0.000 A 
ATOM     25  C   UNL     1      -1.374   9.939  17.534  0.00  0.00    +0.000 A 
ATOM     26  C   UNL     1      -0.803  10.794  18.483  0.00  0.00    +0.000 A 
ATOM     27  C   UNL     1      -1.616  11.689  19.175  0.00  0.00    +0.000 A 
ATOM     28  C   UNL     1      -2.979  11.779  18.878  0.00  0.00    +0.000 A 
ENDBRANCH  21  26
ENDBRANCH   1  21
TORSDOF 9
ENDMDL
MODEL 3
REMARK VINA RESULT:      -7.6      2.687      9.206
REMARK  Name = 
REMARK  10 active torsions:
REMARK  status: ('A' for Active; 'I' for Inactive)
REMARK    1  A    between atoms: C_1  and  C_2
REMARK    2  A    between atoms: C_5  and  O_6
REMARK    3  A    between atoms: O_6  and  C_7
REMARK    4  A    between atoms: C_11  and  C_12
REMARK    5  A    between atoms: C_15  and  O_16
REMARK    6  A    between atoms: O_16  and  C_17
REMARK    7  A    between atoms: C_17  and  C_18
REMARK    8  A    between atoms: C_18  and  C_19
REMARK    9  A    between atoms: C_19  and  C_20
REMARK   10  A    between atoms: C_20  and  O_22
REMARK                            x       y       z     vdW  Elec       q    Type
REMARK                         _______ _______ _______ _____ _____    ______ ____
ROOT
ATOM      1  C   UNL     1       3.911   4.259  19.786  0.00  0.00    +0.000 A 
ATOM      2  C   UNL     1       3.038   3.293  20.273  0.00  0.00    +0.000 A 
ATOM      3  C   UNL     1       1.756   3.665  20.675  0.00  0.00    +0.000 A 
ATOM      4  C   UNL     1       1.351   5.003  20.599  0.00  0.00    +0.000 A 
ATOM      5  C   UNL     1       2.200   5.988  20.068  0.00  0.00    +0.000 A 
ATOM      6  C   UNL     1       3.466   5.574  19.618  0.00  0.00    +0.000 A 
ENDROOT
BRANCH   5   7
ATOM      7  C   UNL     1       1.819   7.414  20.006  0.00  0.00    +0.000 A 
ATOM      8  C   UNL     1       1.975   8.141  18.813  0.00  0.00    +0.000 A 
ATOM      9  C   UNL     1       1.562   9.468  18.698  0.00  0.00    +0.000 A 
ATOM     10  C   UNL     1       0.996  10.125  19.789  0.00  0.00    +0.000 A 
ATOM     11  C   UNL     1       0.868   9.437  20.995  0.00  0.00    +0.000 A 
ATOM     12  C   UNL     1       1.271   8.098  21.102  0.00  0.00    +0.000 A 
BRANCH  10  13
ATOM     13  O   UNL     1       0.547  11.417  19.779  0.00  0.00    +0.000 OA
BRANCH  13  14
ATOM     14  C   UNL     1      -0.154  11.815  18.597  0.00  0.00    +0.000 C 
BRANCH  14  15
ATOM     15  C   UNL     1      -1.600  11.340  18.653  0.00  0.00    +0.000 C 
BRANCH  15  16
ATOM     16  C   UNL     1      -2.271  11.386  17.285  0.00  0.00    +0.000 C 
BRANCH  16  17
ATOM     17  C   UNL     1      -3.593  10.657  17.299  0.00  0.00    +0.000 C 
ATOM     18  O   UNL     1      -4.677  11.143  17.019  0.00  0.00    +0.000 OA
BRANCH  17  19
ATOM     19  O   UNL     1      -3.458   9.367  17.686  0.00  0.00    +0.000 OA
ATOM     20  H   UNL     1      -2.822   8.861  17.147  0.00  0.00    +0.000 HD
ENDBRANCH  17  19
ENDBRANCH  16  17
ENDBRANCH  15  16
ENDBRANCH  14  15
ENDBRANCH  13  14
ENDBRANCH  10  13
ENDBRANCH   5   7
BRANCH   1  21
ATOM     21  O   UNL     1       5.193   3.862  19.472  0.00  0.00    +0.000 OA
BRANCH  21  26
ATOM     22  C   UNL     1       6.794   4.903  14.114  0.00  0.00    +0.000 C 
ATOM     23  C   UNL     1       6.407   4.611  15.532  0.00  0.00    +0.000 A 
ATOM     24  C   UNL     1       7.260   4.947  16.586  0.00  0.00    +0.000 A 
ATOM     25  C   UNL     1       6.897   4.673  17.905  0.00  0.00    +0.000 A 
ATOM     26  C   UNL     1       5.651   4.102  18.190  0.00  0.00    +0.000 A 
ATOM     27  C   UNL     1       4.817   3.722  17.141  0.00  0.00    +0.000 A 
ATOM     28  C   UNL     1       5.192   3.970  15.817  0.00  0.00    +0.000 A 
ENDBRANCH  21  26
ENDBRANCH   1  21
TORSDOF 9
ENDMDL
MODEL 4
REMARK VINA RESULT:      -7.6      2.672      9.353
REMARK  Name = 
REMARK  10 active torsions:
REMARK  status: ('A' for Active; 'I' for Inactive)
REMARK    1  A    between atoms: C_1  and  C_2
REMARK    2  A    between atoms: C_5  and  O_6
REMARK    3  A    between atoms: O_6  and  C_7
REMARK    4  A    between atoms: C_11  and  C_12
REMARK    5  A    between atoms: C_15  and  O_16
REMARK    6  A    between atoms: O_16  and  C_17
REMARK    7  A    between atoms: C_17  and  C_18
REMARK    8  A    between atoms: C_18  and  C_19
REMARK    9  A    between atoms: C_19  and  C_20
REMARK   10  A    between atoms: C_20  and  O_22
REMARK                            x       y       z     vdW  Elec       q    Type
REMARK                         _______ _______ _______ _____ _____    ______ ____
ROOT
ATOM      1  C   UNL     1       4.071   4.314  19.748  0.00  0.00    +0.000 A 
ATOM      2  C   UNL     1       3.257   3.391  20.394  0.00  0.00    +0.000 A 
ATOM      3  C   UNL     1       1.987   3.774  20.822  0.00  0.00    +0.000 A 
ATOM      4  C   UNL     1       1.536   5.083  20.612  0.00  0.00    +0.000 A 
ATOM      5  C   UNL     1       2.323   6.019  19.921  0.00  0.00    +0.000 A 
ATOM      6  C   UNL     1       3.576   5.587  19.452  0.00  0.00    +0.000 A 
ENDROOT
BRANCH   5   7
ATOM      7  C   UNL     1       1.894   7.417  19.712  0.00  0.00    +0.000 A 
ATOM      8  C   UNL     1       1.311   8.148  20.762  0.00  0.00    +0.000 A 
ATOM      9  C   UNL     1       0.958   9.490  20.620  0.00  0.00    +0.000 A 
ATOM     10  C   UNL     1       1.157  10.144  19.406  0.00  0.00    +0.000 A 
ATOM     11  C   UNL     1       1.697   9.429  18.338  0.00  0.00    +0.000 A 
ATOM     12  C   UNL     1       2.065   8.084  18.489  0.00  0.00    +0.000 A 
BRANCH  10  13
ATOM     13  O   UNL     1       0.860  11.458  19.167  0.00  0.00    +0.000 OA
BRANCH  13  14
ATOM     14  C   UNL     1      -0.450  11.875  19.563  0.00  0.00    +0.000 C 
BRANCH  14  15
ATOM     15  C   UNL     1      -1.136  12.616  18.425  0.00  0.00    +0.000 C 
BRANCH  15  16
ATOM     16  C   UNL     1      -1.776  11.660  17.424  0.00  0.00    +0.000 C 
BRANCH  16  17
ATOM     17  C   UNL     1      -3.112  11.160  17.922  0.00  0.00    +0.000 C 
ATOM     18  O   UNL     1      -3.513  10.009  17.849  0.00  0.00    +0.000 OA
BRANCH  17  19
ATOM     19  O   UNL     1      -3.858  12.153  18.460  0.00  0.00    +0.000 OA
ATOM     20  H   UNL     1      -3.567  12.421  19.352  0.00  0.00    +0.000 HD
ENDBRANCH  17  19
ENDBRANCH  16  17
ENDBRANCH  15  16
ENDBRANCH  14  15
ENDBRANCH  13  14
ENDBRANCH  10  13
ENDBRANCH   5   7
BRANCH   1  21
ATOM     21  O   UNL     1       5.347   3.915  19.412  0.00  0.00    +0.000 OA
BRANCH  21  26
ATOM     22  C   UNL     1       6.814   4.847  13.995  0.00  0.00    +0.000 C 
ATOM     23  C   UNL     1       6.464   4.585  15.428  0.00  0.00    +0.000 A 
ATOM     24  C   UNL     1       7.323   4.981  16.456  0.00  0.00    +0.000 A 
ATOM     25  C   UNL     1       6.994   4.734  17.789  0.00  0.00    +0.000 A 
ATOM     26  C   UNL     1       5.774   4.131  18.114  0.00  0.00    +0.000 A 
ATOM     27  C   UNL     1       4.934   3.692  17.093  0.00  0.00    +0.000 A 
ATOM     28  C   UNL     1       5.276   3.912  15.755  0.00  0.00    +0.000 A 
ENDBRANCH  21  26
ENDBRANCH   1  21
TORSDOF 9
ENDMDL
MODEL 5
REMARK VINA RESULT:      -7.6      3.026      9.076
REMARK  Name = 
REMARK  10 active torsions:
REMARK  status: ('A' for Active; 'I' for Inactive)
REMARK    1  A    between atoms: C_1  and  C_2
REMARK    2  A    between atoms: C_5  and  O_6
REMARK    3  A    between atoms: O_6  and  C_7
REMARK    4  A    between atoms: C_11  and  C_12
REMARK    5  A    between atoms: C_15  and  O_16
REMARK    6  A    between atoms: O_16  and  C_17
REMARK    7  A    between atoms: C_17  and  C_18
REMARK    8  A    between atoms: C_18  and  C_19
REMARK    9  A    between atoms: C_19  and  C_20
REMARK   10  A    between atoms: C_20  and  O_22
REMARK                            x       y       z     vdW  Elec       q    Type
REMARK                         _______ _______ _______ _____ _____    ______ ____
ROOT
ATOM      1  C   UNL     1       4.103   4.514  19.392  0.00  0.00    +0.000 A 
ATOM      2  C   UNL     1       3.420   3.460  19.989  0.00  0.00    +0.000 A 
ATOM      3  C   UNL     1       2.190   3.696  20.601  0.00  0.00    +0.000 A 
ATOM      4  C   UNL     1       1.649   4.987  20.625  0.00  0.00    +0.000 A 
ATOM      5  C   UNL     1       2.298   6.058  19.988  0.00  0.00    +0.000 A 
ATOM      6  C   UNL     1       3.509   5.778  19.330  0.00  0.00    +0.000 A 
ENDROOT
BRANCH   5   7
ATOM      7  C   UNL     1       1.774   7.438  20.023  0.00  0.00    +0.000 A 
ATOM      8  C   UNL     1       1.865   8.263  18.888  0.00  0.00    +0.000 A 
ATOM      9  C   UNL     1       1.319   9.546  18.863  0.00  0.00    +0.000 A 
ATOM     10  C   UNL     1       0.678  10.060  19.988  0.00  0.00    +0.000 A 
ATOM     11  C   UNL     1       0.610   9.275  21.139  0.00  0.00    +0.000 A 
ATOM     12  C   UNL     1       1.147   7.980  21.156  0.00  0.00    +0.000 A 
BRANCH  10  13
ATOM     13  O   UNL     1       0.098  11.296  20.064  0.00  0.00    +0.000 OA
BRANCH  13  14
ATOM     14  C   UNL     1      -0.379  11.829  18.825  0.00  0.00    +0.000 C 
BRANCH  14  15
ATOM     15  C   UNL     1      -1.842  11.463  18.620  0.00  0.00    +0.000 C 
BRANCH  15  16
ATOM     16  C   UNL     1      -2.049  10.613  17.371  0.00  0.00    +0.000 C 
BRANCH  16  17
ATOM     17  C   UNL     1      -3.298  11.026  16.628  0.00  0.00    +0.000 C 
ATOM     18  O   UNL     1      -4.438  10.955  17.058  0.00  0.00    +0.000 OA
BRANCH  17  19
ATOM     19  O   UNL     1      -3.021  11.483  15.385  0.00  0.00    +0.000 OA
ATOM     20  H   UNL     1      -3.168  12.442  15.279  0.00  0.00    +0.000 HD
ENDBRANCH  17  19
ENDBRANCH  16  17
ENDBRANCH  15  16
ENDBRANCH  14  15
ENDBRANCH  13  14
ENDBRANCH  10  13
ENDBRANCH   5   7
BRANCH   1  21
ATOM     21  O   UNL     1       5.350   4.251  18.867  0.00  0.00    +0.000 OA
BRANCH  21  26
ATOM     22  C   UNL     1       8.456   8.825  17.531  0.00  0.00    +0.000 C 
ATOM     23  C   UNL     1       7.671   7.598  17.881  0.00  0.00    +0.000 A 
ATOM     24  C   UNL     1       8.081   6.764  18.924  0.00  0.00    +0.000 A 
ATOM     25  C   UNL     1       7.348   5.622  19.247  0.00  0.00    +0.000 A 
ATOM     26  C   UNL     1       6.165   5.325  18.561  0.00  0.00    +0.000 A 
ATOM     27  C   UNL     1       5.776   6.127  17.490  0.00  0.00    +0.000 A 
ATOM     28  C   UNL     1       6.525   7.256  17.146  0.00  0.00    +0.000 A 
ENDBRANCH  21  26
ENDBRANCH   1  21
TORSDOF 9
ENDMDL
MODEL 6
REMARK VINA RESULT:      -7.5      3.102      9.338
REMARK  Name = 
REMARK  10 active torsions:
REMARK  status: ('A' for Active; 'I' for Inactive)
REMARK    1  A    between atoms: C_1  and  C_2
REMARK    2  A    between atoms: C_5  and  O_6
REMARK    3  A    between atoms: O_6  and  C_7
REMARK    4  A    between atoms: C_11  and  C_12
REMARK    5  A    between atoms: C_15  and  O_16
REMARK    6  A    between atoms: O_16  and  C_17
REMARK    7  A    between atoms: C_17  and  C_18
REMARK    8  A    between atoms: C_18  and  C_19
REMARK    9  A    between atoms: C_19  and  C_20
REMARK   10  A    between atoms: C_20  and  O_22
REMARK                            x       y       z     vdW  Elec       q    Type
REMARK                         _______ _______ _______ _____ _____    ______ ____
ROOT
ATOM      1  C   UNL     1       4.062   4.374  19.613  0.00  0.00    +0.000 A 
ATOM      2  C   UNL     1       3.275   3.346  20.118  0.00  0.00    +0.000 A 
ATOM      3  C   UNL     1       1.996   3.629  20.595  0.00  0.00    +0.000 A 
ATOM      4  C   UNL     1       1.509   4.942  20.575  0.00  0.00    +0.000 A 
ATOM      5  C   UNL     1       2.268   5.989  20.026  0.00  0.00    +0.000 A 
ATOM      6  C   UNL     1       3.531   5.663  19.501  0.00  0.00    +0.000 A 
ENDROOT
BRANCH   5   7
ATOM      7  C   UNL     1       1.801   7.390  20.020  0.00  0.00    +0.000 A 
ATOM      8  C   UNL     1       1.258   7.966  21.182  0.00  0.00    +0.000 A 
ATOM      9  C   UNL     1       0.872   9.305  21.231  0.00  0.00    +0.000 A 
ATOM     10  C   UNL     1       0.994  10.113  20.103  0.00  0.00    +0.000 A 
ATOM     11  C   UNL     1       1.493   9.554  18.927  0.00  0.00    +0.000 A 
ATOM     12  C   UNL     1       1.894   8.212  18.885  0.00  0.00    +0.000 A 
BRANCH  10  13
ATOM     13  O   UNL     1       0.659  11.438  20.048  0.00  0.00    +0.000 OA
BRANCH  13  14
ATOM     14  C   UNL     1       0.139  11.890  18.794  0.00  0.00    +0.000 C 
BRANCH  14  15
ATOM     15  C   UNL     1       0.748  13.235  18.422  0.00  0.00    +0.000 C 
BRANCH  15  16
ATOM     16  C   UNL     1       2.247  13.130  18.160  0.00  0.00    +0.000 C 
BRANCH  16  17
ATOM     17  C   UNL     1       2.931  14.462  18.357  0.00  0.00    +0.000 C 
ATOM     18  O   UNL     1       2.875  15.150  19.364  0.00  0.00    +0.000 OA
BRANCH  17  19
ATOM     19  O   UNL     1       3.624  14.844  17.259  0.00  0.00    +0.000 OA
ATOM     20  H   UNL     1       4.487  15.251  17.463  0.00  0.00    +0.000 HD
ENDBRANCH  17  19
ENDBRANCH  16  17
ENDBRANCH  15  16
ENDBRANCH  14  15
ENDBRANCH  13  14
ENDBRANCH  10  13
ENDBRANCH   5   7
BRANCH   1  21
ATOM     21  O   UNL     1       5.347   4.062  19.223  0.00  0.00    +0.000 OA
BRANCH  21  26
ATOM     22  C   UNL     1       7.016   4.718  13.825  0.00  0.00    +0.000 C 
ATOM     23  C   UNL     1       6.544   4.567  15.239  0.00  0.00    +0.000 A 
ATOM     24  C   UNL     1       5.246   4.131  15.513  0.00  0.00    +0.000 A 
ATOM     25  C   UNL     1       4.808   3.993  16.831  0.00  0.00    +0.000 A 
ATOM     26  C   UNL     1       5.684   4.241  17.894  0.00  0.00    +0.000 A 
ATOM     27  C   UNL     1       6.965   4.720  17.628  0.00  0.00    +0.000 A 
ATOM     28  C   UNL     1       7.395   4.888  16.308  0.00  0.00    +0.000 A 
ENDBRANCH  21  26
ENDBRANCH   1  21
TORSDOF 9
ENDMDL
MODEL 7
REMARK VINA RESULT:      -7.5      3.042      9.942
REMARK  Name = 
REMARK  10 active torsions:
REMARK  status: ('A' for Active; 'I' for Inactive)
REMARK    1  A    between atoms: C_1  and  C_2
REMARK    2  A    between atoms: C_5  and  O_6
REMARK    3  A    between atoms: O_6  and  C_7
REMARK    4  A    between atoms: C_11  and  C_12
REMARK    5  A    between atoms: C_15  and  O_16
REMARK    6  A    between atoms: O_16  and  C_17
REMARK    7  A    between atoms: C_17  and  C_18
REMARK    8  A    between atoms: C_18  and  C_19
REMARK    9  A    between atoms: C_19  and  C_20
REMARK   10  A    between atoms: C_20  and  O_22
REMARK                            x       y       z     vdW  Elec       q    Type
REMARK                         _______ _______ _______ _____ _____    ______ ____
ROOT
ATOM      1  C   UNL     1       4.106   4.281  19.572  0.00  0.00    +0.000 A 
ATOM      2  C   UNL     1       3.340   3.349  20.262  0.00  0.00    +0.000 A 
ATOM      3  C   UNL     1       2.094   3.720  20.766  0.00  0.00    +0.000 A 
ATOM      4  C   UNL     1       1.620   5.025  20.588  0.00  0.00    +0.000 A 
ATOM      5  C   UNL     1       2.356   5.971  19.855  0.00  0.00    +0.000 A 
ATOM      6  C   UNL     1       3.582   5.551  19.310  0.00  0.00    +0.000 A 
ENDROOT
BRANCH   5   7
ATOM      7  C   UNL     1       1.903   7.365  19.677  0.00  0.00    +0.000 A 
ATOM      8  C   UNL     1       1.351   8.078  20.756  0.00  0.00    +0.000 A 
ATOM      9  C   UNL     1       0.978   9.417  20.642  0.00  0.00    +0.000 A 
ATOM     10  C   UNL     1       1.123  10.087  19.429  0.00  0.00    +0.000 A 
ATOM     11  C   UNL     1       1.631   9.389  18.334  0.00  0.00    +0.000 A 
ATOM     12  C   UNL     1       2.020   8.047  18.456  0.00  0.00    +0.000 A 
BRANCH  10  13
ATOM     13  O   UNL     1       0.802  11.399  19.214  0.00  0.00    +0.000 OA
BRANCH  13  14
ATOM     14  C   UNL     1       0.277  12.097  20.347  0.00  0.00    +0.000 C 
BRANCH  14  15
ATOM     15  C   UNL     1      -1.245  12.086  20.317  0.00  0.00    +0.000 C 
BRANCH  15  16
ATOM     16  C   UNL     1      -1.846  12.710  21.572  0.00  0.00    +0.000 C 
BRANCH  16  17
ATOM     17  C   UNL     1      -1.067  12.319  22.805  0.00  0.00    +0.000 C 
ATOM     18  O   UNL     1      -0.902  11.180  23.212  0.00  0.00    +0.000 OA
BRANCH  17  19
ATOM     19  O   UNL     1      -0.564  13.397  23.452  0.00  0.00    +0.000 OA
ATOM     20  H   UNL     1       0.059  13.921  22.913  0.00  0.00    +0.000 HD
ENDBRANCH  17  19
ENDBRANCH  16  17
ENDBRANCH  15  16
ENDBRANCH  14  15
ENDBRANCH  13  14
ENDBRANCH  10  13
ENDBRANCH   5   7
BRANCH   1  21
ATOM     21  O   UNL     1       5.362   3.895  19.158  0.00  0.00    +0.000 OA
BRANCH  21  26
ATOM     22  C   UNL     1       7.102   4.829  13.824  0.00  0.00    +0.000 C 
ATOM     23  C   UNL     1       6.610   4.602  15.220  0.00  0.00    +0.000 A 
ATOM     24  C   UNL     1       5.342   4.063  15.450  0.00  0.00    +0.000 A 
ATOM     25  C   UNL     1       4.886   3.854  16.752  0.00  0.00    +0.000 A 
ATOM     26  C   UNL     1       5.716   4.137  17.843  0.00  0.00    +0.000 A 
ATOM     27  C   UNL     1       6.963   4.718  17.623  0.00  0.00    +0.000 A 
ATOM     28  C   UNL     1       7.409   4.955  16.319  0.00  0.00    +0.000 A 
ENDBRANCH  21  26
ENDBRANCH   1  21
TORSDOF 9
ENDMDL
MODEL 8
REMARK VINA RESULT:      -7.5      2.477      9.139
REMARK  Name = 
REMARK  10 active torsions:
REMARK  status: ('A' for Active; 'I' for Inactive)
REMARK    1  A    between atoms: C_1  and  C_2
REMARK    2  A    between atoms: C_5  and  O_6
REMARK    3  A    between atoms: O_6  and  C_7
REMARK    4  A    between atoms: C_11  and  C_12
REMARK    5  A    between atoms: C_15  and  O_16
REMARK    6  A    between atoms: O_16  and  C_17
REMARK    7  A    between atoms: C_17  and  C_18
REMARK    8  A    between atoms: C_18  and  C_19
REMARK    9  A    between atoms: C_19  and  C_20
REMARK   10  A    between atoms: C_20  and  O_22
REMARK                            x       y       z     vdW  Elec       q    Type
REMARK                         _______ _______ _______ _____ _____    ______ ____
ROOT
ATOM      1  C   UNL     1       4.428   4.871  19.354  0.00  0.00    +0.000 A 
ATOM      2  C   UNL     1       3.757   3.815  19.961  0.00  0.00    +0.000 A 
ATOM      3  C   UNL     1       2.477   4.018  20.475  0.00  0.00    +0.000 A 
ATOM      4  C   UNL     1       1.874   5.278  20.392  0.00  0.00    +0.000 A 
ATOM      5  C   UNL     1       2.514   6.347  19.743  0.00  0.00    +0.000 A 
ATOM      6  C   UNL     1       3.779   6.098  19.184  0.00  0.00    +0.000 A 
ENDROOT
BRANCH   5   7
ATOM      7  C   UNL     1       1.922   7.699  19.667  0.00  0.00    +0.000 A 
ATOM      8  C   UNL     1       1.261   8.251  20.778  0.00  0.00    +0.000 A 
ATOM      9  C   UNL     1       0.752   9.549  20.764  0.00  0.00    +0.000 A 
ATOM     10  C   UNL     1       0.867  10.337  19.620  0.00  0.00    +0.000 A 
ATOM     11  C   UNL     1       1.484   9.797  18.492  0.00  0.00    +0.000 A 
ATOM     12  C   UNL     1       2.008   8.497  18.515  0.00  0.00    +0.000 A 
BRANCH  10  13
ATOM     13  O   UNL     1       0.417  11.624  19.506  0.00  0.00    +0.000 OA
BRANCH  13  14
ATOM     14  C   UNL     1      -0.984  11.765  19.251  0.00  0.00    +0.000 C 
BRANCH  14  15
ATOM     15  C   UNL     1      -1.398  10.888  18.077  0.00  0.00    +0.000 C 
BRANCH  15  16
ATOM     16  C   UNL     1      -2.792  11.239  17.566  0.00  0.00    +0.000 C 
BRANCH  16  17
ATOM     17  C   UNL     1      -3.006  10.722  16.163  0.00  0.00    +0.000 C 
ATOM     18  O   UNL     1      -2.829   9.572  15.793  0.00  0.00    +0.000 OA
BRANCH  17  19
ATOM     19  O   UNL     1      -3.411  11.698  15.317  0.00  0.00    +0.000 OA
ATOM     20  H   UNL     1      -2.689  12.075  14.780  0.00  0.00    +0.000 HD
ENDBRANCH  17  19
ENDBRANCH  16  17
ENDBRANCH  15  16
ENDBRANCH  14  15
ENDBRANCH  13  14
ENDBRANCH  10  13
ENDBRANCH   5   7
BRANCH   1  21
ATOM     21  O   UNL     1       5.719   4.646  18.929  0.00  0.00    +0.000 OA
BRANCH  21  26
ATOM     22  C   UNL     1       6.308   3.909  13.319  0.00  0.00    +0.000 C 
ATOM     23  C   UNL     1       6.186   4.082  14.802  0.00  0.00    +0.000 A 
ATOM     24  C   UNL     1       7.275   4.517  15.561  0.00  0.00    +0.000 A 
ATOM     25  C   UNL     1       7.159   4.675  16.942  0.00  0.00    +0.000 A 
ATOM     26  C   UNL     1       5.932   4.447  17.577  0.00  0.00    +0.000 A 
ATOM     27  C   UNL     1       4.855   3.968  16.833  0.00  0.00    +0.000 A 
ATOM     28  C   UNL     1       4.979   3.781  15.453  0.00  0.00    +0.000 A 
ENDBRANCH  21  26
ENDBRANCH   1  21
TORSDOF 9
ENDMDL
MODEL 9
REMARK VINA RESULT:      -7.5      2.154      2.955
REMARK  Name = 
REMARK  10 active torsions:
REMARK  status: ('A' for Active; 'I' for Inactive)
REMARK    1  A    between atoms: C_1  and  C_2
REMARK    2  A    between atoms: C_5  and  O_6
REMARK    3  A    between atoms: O_6  and  C_7
REMARK    4  A    between atoms: C_11  and  C_12
REMARK    5  A    between atoms: C_15  and  O_16
REMARK    6  A    between atoms: O_16  and  C_17
REMARK    7  A    between atoms: C_17  and  C_18
REMARK    8  A    between atoms: C_18  and  C_19
REMARK    9  A    between atoms: C_19  and  C_20
REMARK   10  A    between atoms: C_20  and  O_22
REMARK                            x       y       z     vdW  Elec       q    Type
REMARK                         _______ _______ _______ _____ _____    ______ ____
ROOT
ATOM      1  C   UNL     1      -0.444  10.671  20.632  0.00  0.00    +0.000 A 
ATOM      2  C   UNL     1      -0.557  10.695  22.017  0.00  0.00    +0.000 A 
ATOM      3  C   UNL     1       0.103   9.731  22.778  0.00  0.00    +0.000 A 
ATOM      4  C   UNL     1       0.868   8.739  22.152  0.00  0.00    +0.000 A 
ATOM      5  C   UNL     1       1.033   8.722  20.757  0.00  0.00    +0.000 A 
ATOM      6  C   UNL     1       0.402   9.740  20.021  0.00  0.00    +0.000 A 
ENDROOT
BRANCH   5   7
ATOM      7  C   UNL     1       1.803   7.671  20.061  0.00  0.00    +0.000 A 
ATOM      8  C   UNL     1       1.945   6.395  20.634  0.00  0.00    +0.000 A 
ATOM      9  C   UNL     1       2.606   5.359  19.974  0.00  0.00    +0.000 A 
ATOM     10  C   UNL     1       3.171   5.573  18.719  0.00  0.00    +0.000 A 
ATOM     11  C   UNL     1       3.076   6.842  18.147  0.00  0.00    +0.000 A 
ATOM     12  C   UNL     1       2.399   7.877  18.807  0.00  0.00    +0.000 A 
BRANCH  10  13
ATOM     13  O   UNL     1       3.825   4.625  17.981  0.00  0.00    +0.000 OA
BRANCH  13  14
ATOM     14  C   UNL     1       4.748   5.129  17.011  0.00  0.00    +0.000 C 
BRANCH  14  15
ATOM     15  C   UNL     1       4.901   4.140  15.863  0.00  0.00    +0.000 C 
BRANCH  15  16
ATOM     16  C   UNL     1       6.315   4.144  15.291  0.00  0.00    +0.000 C 
BRANCH  16  17
ATOM     17  C   UNL     1       7.260   4.928  16.170  0.00  0.00    +0.000 C 
ATOM     18  O   UNL     1       7.456   6.131  16.109  0.00  0.00    +0.000 OA
BRANCH  17  19
ATOM     19  O   UNL     1       7.907   4.134  17.055  0.00  0.00    +0.000 OA
ATOM     20  H   UNL     1       8.781   3.833  16.743  0.00  0.00    +0.000 HD
ENDBRANCH  17  19
ENDBRANCH  16  17
ENDBRANCH  15  16
ENDBRANCH  14  15
ENDBRANCH  13  14
ENDBRANCH  10  13
ENDBRANCH   5   7
BRANCH   1  21
ATOM     21  O   UNL     1      -1.175  11.594  19.915  0.00  0.00    +0.000 OA
BRANCH  21  26
ATOM     22  C   UNL     1      -3.809  10.142  15.087  0.00  0.00    +0.000 C 
ATOM     23  C   UNL     1      -3.111  10.486  16.367  0.00  0.00    +0.000 A 
ATOM     24  C   UNL     1      -1.880   9.906  16.685  0.00  0.00    +0.000 A 
ATOM     25  C   UNL     1      -1.233  10.227  17.879  0.00  0.00    +0.000 A 
ATOM     26  C   UNL     1      -1.787  11.174  18.749  0.00  0.00    +0.000 A 
ATOM     27  C   UNL     1      -3.036  11.721  18.460  0.00  0.00    +0.000 A 
ATOM     28  C   UNL     1      -3.699  11.377  17.278  0.00  0.00    +0.000 A 
ENDBRANCH  21  26
ENDBRANCH   1  21
TORSDOF 9
ENDMDL
