MODEL 1
REMARK VINA RESULT:      -7.9      0.000      0.000
REMARK  Name = 
REMARK  7 active torsions:
REMARK  status: ('A' for Active; 'I' for Inactive)
REMARK    1  A    between atoms: C_1  and  O_2
REMARK    2  A    between atoms: O_2  and  C_3
REMARK    3  A    between atoms: C_5  and  O_6
REMARK    4  A    between atoms: O_6  and  O_7
REMARK    5  A    between atoms: C_10  and  C_11
REMARK    6  A    between atoms: C_11  and  C_13
REMARK    7  A    between atoms: C_14  and  C_15
REMARK                            x       y       z     vdW  Elec       q    Type
REMARK                         _______ _______ _______ _____ _____    ______ ____
ROOT
ATOM      1  C   UNL     1       3.684   3.828  17.690  0.00  0.00    +0.000 C 
ATOM      2  O   UNL     1       3.529   2.668  18.053  0.00  0.00    +0.000 OA
ENDROOT
BRANCH   1   8
ATOM      3  C   UNL     1       6.167   4.503  17.401  0.00  0.00    +0.000 A 
ATOM      4  C   UNL     1       7.163   4.950  16.515  0.00  0.00    +0.000 A 
ATOM      5  C   UNL     1       6.947   5.048  15.148  0.00  0.00    +0.000 A 
ATOM      6  C   UNL     1       5.707   4.704  14.631  0.00  0.00    +0.000 A 
ATOM      7  C   UNL     1       4.685   4.293  15.496  0.00  0.00    +0.000 A 
ATOM      8  C   UNL     1       4.893   4.204  16.887  0.00  0.00    +0.000 A 
BRANCH   3  10
ATOM      9  C   UNL     1       7.082   5.553  19.309  0.00  0.00    +0.000 C 
ATOM     10  O   UNL     1       6.434   4.402  18.743  0.00  0.00    +0.000 OA
ENDBRANCH   3  10
BRANCH   5  11
ATOM     11  O   UNL     1       8.034   5.465  14.416  0.00  0.00    +0.000 OA
BRANCH  11  12
ATOM     12  O   UNL     1       7.690   5.448  13.010  0.00  0.00    +0.000 OA
ATOM     13  H   UNL     1       7.031   6.162  13.067  0.00  0.00    +0.000 HD
ENDBRANCH  11  12
ENDBRANCH   5  11
ENDBRANCH   1   8
BRANCH   1  14
ATOM     14  C   UNL     1       2.745   4.894  18.142  0.00  0.00    +0.000 C 
ATOM     15  C   UNL     1       3.251   6.029  18.651  0.00  0.00    +0.000 C 
BRANCH  15  16
ATOM     16  C   UNL     1       2.481   7.256  18.917  0.00  0.00    +0.000 A 
ATOM     17  C   UNL     1       2.239   8.132  17.847  0.00  0.00    +0.000 A 
ATOM     18  C   UNL     1       1.468   9.286  18.022  0.00  0.00    +0.000 A 
ATOM     19  C   UNL     1       0.935   9.589  19.276  0.00  0.00    +0.000 A 
ATOM     20 CL   UNL     1      -0.006  11.029  19.427  0.00  0.00    +0.000 Cl
ATOM     21  C   UNL     1       1.176   8.729  20.353  0.00  0.00    +0.000 A 
ATOM     22 CL   UNL     1       0.528   9.020  21.929  0.00  0.00    +0.000 Cl
ATOM     23  C   UNL     1       1.952   7.575  20.174  0.00  0.00    +0.000 A 
ENDBRANCH  15  16
ENDBRANCH   1  14
TORSDOF 6
ENDMDL
MODEL 2
REMARK VINA RESULT:      -7.5      0.858      1.576
REMARK  Name = 
REMARK  7 active torsions:
REMARK  status: ('A' for Active; 'I' for Inactive)
REMARK    1  A    between atoms: C_1  and  O_2
REMARK    2  A    between atoms: O_2  and  C_3
REMARK    3  A    between atoms: C_5  and  O_6
REMARK    4  A    between atoms: O_6  and  O_7
REMARK    5  A    between atoms: C_10  and  C_11
REMARK    6  A    between atoms: C_11  and  C_13
REMARK    7  A    between atoms: C_14  and  C_15
REMARK                            x       y       z     vdW  Elec       q    Type
REMARK                         _______ _______ _______ _____ _____    ______ ____
ROOT
ATOM      1  C   UNL     1       3.921   3.708  18.416  0.00  0.00    +0.000 C 
ATOM      2  O   UNL     1       3.935   2.584  18.903  0.00  0.00    +0.000 OA
ENDROOT
BRANCH   1   8
ATOM      3  C   UNL     1       6.285   4.635  17.907  0.00  0.00    +0.000 A 
ATOM      4  C   UNL     1       7.172   5.104  16.922  0.00  0.00    +0.000 A 
ATOM      5  C   UNL     1       6.873   5.042  15.569  0.00  0.00    +0.000 A 
ATOM      6  C   UNL     1       5.658   4.508  15.166  0.00  0.00    +0.000 A 
ATOM      7  C   UNL     1       4.740   4.069  16.129  0.00  0.00    +0.000 A 
ATOM      8  C   UNL     1       5.031   4.141  17.506  0.00  0.00    +0.000 A 
BRANCH   3  10
ATOM      9  C   UNL     1       7.674   5.642  19.531  0.00  0.00    +0.000 C 
ATOM     10  O   UNL     1       6.633   4.697  19.234  0.00  0.00    +0.000 OA
ENDBRANCH   3  10
BRANCH   5  11
ATOM     11  O   UNL     1       7.860   5.508  14.733  0.00  0.00    +0.000 OA
BRANCH  11  12
ATOM     12  O   UNL     1       7.435   5.337  13.360  0.00  0.00    +0.000 OA
ATOM     13  H   UNL     1       6.754   6.032  13.387  0.00  0.00    +0.000 HD
ENDBRANCH  11  12
ENDBRANCH   5  11
ENDBRANCH   1   8
BRANCH   1  14
ATOM     14  C   UNL     1       2.876   4.693  18.815  0.00  0.00    +0.000 C 
ATOM     15  C   UNL     1       3.257   5.839  19.403  0.00  0.00    +0.000 C 
BRANCH  15  16
ATOM     16  C   UNL     1       2.385   7.003  19.637  0.00  0.00    +0.000 A 
ATOM     17  C   UNL     1       1.676   7.068  20.846  0.00  0.00    +0.000 A 
ATOM     18  C   UNL     1       0.874   8.172  21.152  0.00  0.00    +0.000 A 
ATOM     19  C   UNL     1       0.761   9.228  20.246  0.00  0.00    +0.000 A 
ATOM     20 CL   UNL     1      -0.245  10.562  20.682  0.00  0.00    +0.000 Cl
ATOM     21  C   UNL     1       1.456   9.172  19.033  0.00  0.00    +0.000 A 
ATOM     22 CL   UNL     1       1.388  10.451  17.872  0.00  0.00    +0.000 Cl
ATOM     23  C   UNL     1       2.255   8.062  18.728  0.00  0.00    +0.000 A 
ENDBRANCH  15  16
ENDBRANCH   1  14
TORSDOF 6
ENDMDL
MODEL 3
REMARK VINA RESULT:      -7.3      1.451      1.928
REMARK  Name = 
REMARK  7 active torsions:
REMARK  status: ('A' for Active; 'I' for Inactive)
REMARK    1  A    between atoms: C_1  and  O_2
REMARK    2  A    between atoms: O_2  and  C_3
REMARK    3  A    between atoms: C_5  and  O_6
REMARK    4  A    between atoms: O_6  and  O_7
REMARK    5  A    between atoms: C_10  and  C_11
REMARK    6  A    between atoms: C_11  and  C_13
REMARK    7  A    between atoms: C_14  and  C_15
REMARK                            x       y       z     vdW  Elec       q    Type
REMARK                         _______ _______ _______ _____ _____    ______ ____
ROOT
ATOM      1  C   UNL     1       2.438   4.256  17.539  0.00  0.00    +0.000 C 
ATOM      2  O   UNL     1       1.771   3.291  17.186  0.00  0.00    +0.000 OA
ENDROOT
BRANCH   1   8
ATOM      3  C   UNL     1       4.871   4.021  18.394  0.00  0.00    +0.000 A 
ATOM      4  C   UNL     1       6.238   4.146  18.086  0.00  0.00    +0.000 A 
ATOM      5  C   UNL     1       6.684   4.414  16.801  0.00  0.00    +0.000 A 
ATOM      6  C   UNL     1       5.758   4.574  15.780  0.00  0.00    +0.000 A 
ATOM      7  C   UNL     1       4.390   4.493  16.067  0.00  0.00    +0.000 A 
ATOM      8  C   UNL     1       3.928   4.234  17.373  0.00  0.00    +0.000 A 
BRANCH   3  10
ATOM      9  C   UNL     1       4.385   2.329  19.970  0.00  0.00    +0.000 C 
ATOM     10  O   UNL     1       4.477   3.734  19.677  0.00  0.00    +0.000 OA
ENDBRANCH   3  10
BRANCH   5  11
ATOM     11  O   UNL     1       8.051   4.469  16.659  0.00  0.00    +0.000 OA
BRANCH  11  12
ATOM     12  O   UNL     1       8.670   3.980  17.873  0.00  0.00    +0.000 OA
ATOM     13  H   UNL     1       7.846   3.942  18.389  0.00  0.00    +0.000 HD
ENDBRANCH  11  12
ENDBRANCH   5  11
ENDBRANCH   1   8
BRANCH   1  14
ATOM     14  C   UNL     1       1.798   5.402  18.245  0.00  0.00    +0.000 C 
ATOM     15  C   UNL     1       2.522   6.510  18.470  0.00  0.00    +0.000 C 
BRANCH  15  16
ATOM     16  C   UNL     1       1.979   7.799  18.932  0.00  0.00    +0.000 A 
ATOM     17  C   UNL     1       1.799   8.820  17.986  0.00  0.00    +0.000 A 
ATOM     18  C   UNL     1       1.237  10.048  18.351  0.00  0.00    +0.000 A 
ATOM     19  C   UNL     1       0.855  10.278  19.674  0.00  0.00    +0.000 A 
ATOM     20 CL   UNL     1       0.169  11.815  20.060  0.00  0.00    +0.000 Cl
ATOM     21  C   UNL     1       1.038   9.272  20.629  0.00  0.00    +0.000 A 
ATOM     22 CL   UNL     1       0.566   9.471  22.280  0.00  0.00    +0.000 Cl
ATOM     23  C   UNL     1       1.605   8.044  20.260  0.00  0.00    +0.000 A 
ENDBRANCH  15  16
ENDBRANCH   1  14
TORSDOF 6
ENDMDL
MODEL 4
REMARK VINA RESULT:      -7.2      0.904      1.006
REMARK  Name = 
REMARK  7 active torsions:
REMARK  status: ('A' for Active; 'I' for Inactive)
REMARK    1  A    between atoms: C_1  and  O_2
REMARK    2  A    between atoms: O_2  and  C_3
REMARK    3  A    between atoms: C_5  and  O_6
REMARK    4  A    between atoms: O_6  and  O_7
REMARK    5  A    between atoms: C_10  and  C_11
REMARK    6  A    between atoms: C_11  and  C_13
REMARK    7  A    between atoms: C_14  and  C_15
REMARK                            x       y       z     vdW  Elec       q    Type
REMARK                         _______ _______ _______ _____ _____    ______ ____
ROOT
ATOM      1  C   UNL     1       4.368   4.285  17.477  0.00  0.00    +0.000 C 
ATOM      2  O   UNL     1       4.506   3.358  18.266  0.00  0.00    +0.000 OA
ENDROOT
BRANCH   1   8
ATOM      3  C   UNL     1       6.565   5.175  16.435  0.00  0.00    +0.000 A 
ATOM      4  C   UNL     1       7.318   5.348  15.261  0.00  0.00    +0.000 A 
ATOM      5  C   UNL     1       6.933   4.796  14.048  0.00  0.00    +0.000 A 
ATOM      6  C   UNL     1       5.763   4.055  13.981  0.00  0.00    +0.000 A 
ATOM      7  C   UNL     1       4.974   3.900  15.128  0.00  0.00    +0.000 A 
ATOM      8  C   UNL     1       5.352   4.468  16.361  0.00  0.00    +0.000 A 
BRANCH   3  10
ATOM      9  C   UNL     1       7.316   7.121  17.544  0.00  0.00    +0.000 C 
ATOM     10  O   UNL     1       6.997   5.722  17.618  0.00  0.00    +0.000 OA
ENDBRANCH   3  10
BRANCH   5  11
ATOM     11  O   UNL     1       7.797   5.026  13.004  0.00  0.00    +0.000 OA
BRANCH  11  12
ATOM     12  O   UNL     1       8.801   5.982  13.424  0.00  0.00    +0.000 OA
ATOM     13  H   UNL     1       8.207   6.753  13.408  0.00  0.00    +0.000 HD
ENDBRANCH  11  12
ENDBRANCH   5  11
ENDBRANCH   1   8
BRANCH   1  14
ATOM     14  C   UNL     1       3.300   5.304  17.686  0.00  0.00    +0.000 C 
ATOM     15  C   UNL     1       3.385   6.121  18.748  0.00  0.00    +0.000 C 
BRANCH  15  16
ATOM     16  C   UNL     1       2.556   7.320  18.964  0.00  0.00    +0.000 A 
ATOM     17  C   UNL     1       2.359   8.193  17.884  0.00  0.00    +0.000 A 
ATOM     18  C   UNL     1       1.538   9.319  18.008  0.00  0.00    +0.000 A 
ATOM     19  C   UNL     1       0.909   9.595  19.223  0.00  0.00    +0.000 A 
ATOM     20 CL   UNL     1      -0.090  11.002  19.313  0.00  0.00    +0.000 Cl
ATOM     21  C   UNL     1       1.104   8.738  20.311  0.00  0.00    +0.000 A 
ATOM     22 CL   UNL     1       0.338   8.997  21.839  0.00  0.00    +0.000 Cl
ATOM     23  C   UNL     1       1.930   7.613  20.183  0.00  0.00    +0.000 A 
ENDBRANCH  15  16
ENDBRANCH   1  14
TORSDOF 6
ENDMDL
MODEL 5
REMARK VINA RESULT:      -7.1      2.690      4.258
REMARK  Name = 
REMARK  7 active torsions:
REMARK  status: ('A' for Active; 'I' for Inactive)
REMARK    1  A    between atoms: C_1  and  O_2
REMARK    2  A    between atoms: O_2  and  C_3
REMARK    3  A    between atoms: C_5  and  O_6
REMARK    4  A    between atoms: O_6  and  O_7
REMARK    5  A    between atoms: C_10  and  C_11
REMARK    6  A    between atoms: C_11  and  C_13
REMARK    7  A    between atoms: C_14  and  C_15
REMARK                            x       y       z     vdW  Elec       q    Type
REMARK                         _______ _______ _______ _____ _____    ______ ____
ROOT
ATOM      1  C   UNL     1       3.200   6.987  18.028  0.00  0.00    +0.000 C 
ATOM      2  O   UNL     1       4.031   7.399  17.229  0.00  0.00    +0.000 OA
ENDROOT
BRANCH   1   8
ATOM      3  C   UNL     1       4.100   4.830  19.143  0.00  0.00    +0.000 A 
ATOM      4  C   UNL     1       3.967   3.436  19.275  0.00  0.00    +0.000 A 
ATOM      5  C   UNL     1       2.904   2.740  18.718  0.00  0.00    +0.000 A 
ATOM      6  C   UNL     1       1.941   3.432  17.999  0.00  0.00    +0.000 A 
ATOM      7  C   UNL     1       2.071   4.815  17.821  0.00  0.00    +0.000 A 
ATOM      8  C   UNL     1       3.154   5.528  18.372  0.00  0.00    +0.000 A 
BRANCH   3  10
ATOM      9  C   UNL     1       6.408   5.324  19.039  0.00  0.00    +0.000 C 
ATOM     10  O   UNL     1       5.157   5.480  19.730  0.00  0.00    +0.000 OA
ENDBRANCH   3  10
BRANCH   5  11
ATOM     11  O   UNL     1       2.900   1.388  18.969  0.00  0.00    +0.000 OA
BRANCH  11  12
ATOM     12  O   UNL     1       4.014   0.776  18.277  0.00  0.00    +0.000 OA
ATOM     13  H   UNL     1       3.719   1.031  17.384  0.00  0.00    +0.000 HD
ENDBRANCH  11  12
ENDBRANCH   5  11
ENDBRANCH   1   8
BRANCH   1  14
ATOM     14  C   UNL     1       2.154   7.899  18.571  0.00  0.00    +0.000 C 
ATOM     15  C   UNL     1       1.895   7.877  19.888  0.00  0.00    +0.000 C 
BRANCH  15  16
ATOM     16  C   UNL     1       1.076   8.866  20.609  0.00  0.00    +0.000 A 
ATOM     17  C   UNL     1       0.552   8.507  21.861  0.00  0.00    +0.000 A 
ATOM     18  C   UNL     1      -0.188   9.420  22.620  0.00  0.00    +0.000 A 
ATOM     19  C   UNL     1      -0.425  10.706  22.132  0.00  0.00    +0.000 A 
ATOM     20 CL   UNL     1      -1.347  11.785  23.116  0.00  0.00    +0.000 Cl
ATOM     21  C   UNL     1       0.084  11.074  20.882  0.00  0.00    +0.000 A 
ATOM     22 CL   UNL     1      -0.143  12.656  20.223  0.00  0.00    +0.000 Cl
ATOM     23  C   UNL     1       0.822  10.155  20.123  0.00  0.00    +0.000 A 
ENDBRANCH  15  16
ENDBRANCH   1  14
TORSDOF 6
ENDMDL
MODEL 6
REMARK VINA RESULT:      -7.1      2.188      3.567
REMARK  Name = 
REMARK  7 active torsions:
REMARK  status: ('A' for Active; 'I' for Inactive)
REMARK    1  A    between atoms: C_1  and  O_2
REMARK    2  A    between atoms: O_2  and  C_3
REMARK    3  A    between atoms: C_5  and  O_6
REMARK    4  A    between atoms: O_6  and  O_7
REMARK    5  A    between atoms: C_10  and  C_11
REMARK    6  A    between atoms: C_11  and  C_13
REMARK    7  A    between atoms: C_14  and  C_15
REMARK                            x       y       z     vdW  Elec       q    Type
REMARK                         _______ _______ _______ _____ _____    ______ ____
ROOT
ATOM      1  C   UNL     1       4.044   6.744  17.298  0.00  0.00    +0.000 C 
ATOM      2  O   UNL     1       4.842   7.031  16.414  0.00  0.00    +0.000 OA
ENDROOT
BRANCH   1   8
ATOM      3  C   UNL     1       5.027   4.921  18.853  0.00  0.00    +0.000 A 
ATOM      4  C   UNL     1       4.982   3.574  19.252  0.00  0.00    +0.000 A 
ATOM      5  C   UNL     1       4.001   2.703  18.803  0.00  0.00    +0.000 A 
ATOM      6  C   UNL     1       3.033   3.166  17.924  0.00  0.00    +0.000 A 
ATOM      7  C   UNL     1       3.078   4.493  17.480  0.00  0.00    +0.000 A 
ATOM      8  C   UNL     1       4.079   5.381  17.922  0.00  0.00    +0.000 A 
BRANCH   3  10
ATOM      9  C   UNL     1       7.309   5.531  18.777  0.00  0.00    +0.000 C 
ATOM     10  O   UNL     1       6.005   5.752  19.341  0.00  0.00    +0.000 OA
ENDBRANCH   3  10
BRANCH   5  11
ATOM     11  O   UNL     1       4.074   1.429  19.316  0.00  0.00    +0.000 OA
BRANCH  11  12
ATOM     12  O   UNL     1       5.232   1.335  20.180  0.00  0.00    +0.000 OA
ATOM     13  H   UNL     1       5.806   1.894  19.627  0.00  0.00    +0.000 HD
ENDBRANCH  11  12
ENDBRANCH   5  11
ENDBRANCH   1   8
BRANCH   1  14
ATOM     14  C   UNL     1       2.960   7.694  17.678  0.00  0.00    +0.000 C 
ATOM     15  C   UNL     1       2.428   7.611  18.908  0.00  0.00    +0.000 C 
BRANCH  15  16
ATOM     16  C   UNL     1       1.531   8.612  19.513  0.00  0.00    +0.000 A 
ATOM     17  C   UNL     1       1.011   9.621  18.689  0.00  0.00    +0.000 A 
ATOM     18  C   UNL     1       0.112  10.567  19.190  0.00  0.00    +0.000 A 
ATOM     19  C   UNL     1      -0.273  10.526  20.531  0.00  0.00    +0.000 A 
ATOM     20 CL   UNL     1      -1.385  11.723  21.090  0.00  0.00    +0.000 Cl
ATOM     21  C   UNL     1       0.245   9.530  21.367  0.00  0.00    +0.000 A 
ATOM     22 CL   UNL     1      -0.205   9.395  23.030  0.00  0.00    +0.000 Cl
ATOM     23  C   UNL     1       1.149   8.585  20.860  0.00  0.00    +0.000 A 
ENDBRANCH  15  16
ENDBRANCH   1  14
TORSDOF 6
ENDMDL
MODEL 7
REMARK VINA RESULT:      -7.0      1.430      2.579
REMARK  Name = 
REMARK  7 active torsions:
REMARK  status: ('A' for Active; 'I' for Inactive)
REMARK    1  A    between atoms: C_1  and  O_2
REMARK    2  A    between atoms: O_2  and  C_3
REMARK    3  A    between atoms: C_5  and  O_6
REMARK    4  A    between atoms: O_6  and  O_7
REMARK    5  A    between atoms: C_10  and  C_11
REMARK    6  A    between atoms: C_11  and  C_13
REMARK    7  A    between atoms: C_14  and  C_15
REMARK                            x       y       z     vdW  Elec       q    Type
REMARK                         _______ _______ _______ _____ _____    ______ ____
ROOT
ATOM      1  C   UNL     1       3.146   4.637  19.965  0.00  0.00    +0.000 C 
ATOM      2  O   UNL     1       2.915   3.619  20.605  0.00  0.00    +0.000 OA
ENDROOT
BRANCH   1   8
ATOM      3  C   UNL     1       4.074   4.119  17.604  0.00  0.00    +0.000 A 
ATOM      4  C   UNL     1       5.207   4.087  16.772  0.00  0.00    +0.000 A 
ATOM      5  C   UNL     1       6.434   4.593  17.175  0.00  0.00    +0.000 A 
ATOM      6  C   UNL     1       6.558   5.145  18.442  0.00  0.00    +0.000 A 
ATOM      7  C   UNL     1       5.455   5.154  19.304  0.00  0.00    +0.000 A 
ATOM      8  C   UNL     1       4.209   4.629  18.907  0.00  0.00    +0.000 A 
BRANCH   3  10
ATOM      9  C   UNL     1       2.678   2.224  17.404  0.00  0.00    +0.000 C 
ATOM     10  O   UNL     1       2.875   3.625  17.154  0.00  0.00    +0.000 OA
ENDBRANCH   3  10
BRANCH   5  11
ATOM     11  O   UNL     1       7.432   4.520  16.231  0.00  0.00    +0.000 OA
BRANCH  11  12
ATOM     12  O   UNL     1       7.545   5.799  15.563  0.00  0.00    +0.000 OA
ATOM     13  H   UNL     1       8.367   5.583  15.088  0.00  0.00    +0.000 HD
ENDBRANCH  11  12
ENDBRANCH   5  11
ENDBRANCH   1   8
BRANCH   1  14
ATOM     14  C   UNL     1       2.466   5.918  20.309  0.00  0.00    +0.000 C 
ATOM     15  C   UNL     1       2.540   6.943  19.445  0.00  0.00    +0.000 C 
BRANCH  15  16
ATOM     16  C   UNL     1       1.739   8.177  19.521  0.00  0.00    +0.000 A 
ATOM     17  C   UNL     1       1.576   8.935  18.352  0.00  0.00    +0.000 A 
ATOM     18  C   UNL     1       0.783  10.087  18.345  0.00  0.00    +0.000 A 
ATOM     19  C   UNL     1       0.145  10.505  19.515  0.00  0.00    +0.000 A 
ATOM     20 CL   UNL     1      -0.820  11.935  19.441  0.00  0.00    +0.000 Cl
ATOM     21  C   UNL     1       0.306   9.763  20.690  0.00  0.00    +0.000 A 
ATOM     22 CL   UNL     1      -0.472  10.200  22.170  0.00  0.00    +0.000 Cl
ATOM     23  C   UNL     1       1.106   8.611  20.693  0.00  0.00    +0.000 A 
ENDBRANCH  15  16
ENDBRANCH   1  14
TORSDOF 6
ENDMDL
MODEL 8
REMARK VINA RESULT:      -7.0      7.065      8.770
REMARK  Name = 
REMARK  7 active torsions:
REMARK  status: ('A' for Active; 'I' for Inactive)
REMARK    1  A    between atoms: C_1  and  O_2
REMARK    2  A    between atoms: O_2  and  C_3
REMARK    3  A    between atoms: C_5  and  O_6
REMARK    4  A    between atoms: O_6  and  O_7
REMARK    5  A    between atoms: C_10  and  C_11
REMARK    6  A    between atoms: C_11  and  C_13
REMARK    7  A    between atoms: C_14  and  C_15
REMARK                            x       y       z     vdW  Elec       q    Type
REMARK                         _______ _______ _______ _____ _____    ______ ____
ROOT
ATOM      1  C   UNL     1       9.391  10.843  19.385  0.00  0.00    +0.000 C 
ATOM      2  O   UNL     1       9.426  10.734  20.604  0.00  0.00    +0.000 OA
ENDROOT
BRANCH   1   8
ATOM      3  C   UNL     1       9.641  13.383  18.944  0.00  0.00    +0.000 A 
ATOM      4  C   UNL     1      10.240  14.381  18.156  0.00  0.00    +0.000 A 
ATOM      5  C   UNL     1      11.214  14.092  17.213  0.00  0.00    +0.000 A 
ATOM      6  C   UNL     1      11.612  12.776  17.029  0.00  0.00    +0.000 A 
ATOM      7  C   UNL     1      11.004  11.758  17.774  0.00  0.00    +0.000 A 
ATOM      8  C   UNL     1      10.003  12.042  18.725  0.00  0.00    +0.000 A 
BRANCH   3  10
ATOM      9  C   UNL     1       7.612  14.516  19.372  0.00  0.00    +0.000 C 
ATOM     10  O   UNL     1       8.695  13.719  19.881  0.00  0.00    +0.000 OA
ENDBRANCH   3  10
BRANCH   5  11
ATOM     11  O   UNL     1      11.726  15.184  16.552  0.00  0.00    +0.000 OA
BRANCH  11  12
ATOM     12  O   UNL     1      10.653  15.854  15.848  0.00  0.00    +0.000 OA
ATOM     13  H   UNL     1      11.056  15.771  14.965  0.00  0.00    +0.000 HD
ENDBRANCH  11  12
ENDBRANCH   5  11
ENDBRANCH   1   8
BRANCH   1  14
ATOM     14  C   UNL     1       8.638   9.858  18.558  0.00  0.00    +0.000 C 
ATOM     15  C   UNL     1       8.776   8.549  18.824  0.00  0.00    +0.000 C 
BRANCH  15  16
ATOM     16  C   UNL     1       7.934   7.476  18.268  0.00  0.00    +0.000 A 
ATOM     17  C   UNL     1       8.015   6.201  18.848  0.00  0.00    +0.000 A 
ATOM     18  C   UNL     1       7.202   5.154  18.402  0.00  0.00    +0.000 A 
ATOM     19  C   UNL     1       6.300   5.364  17.357  0.00  0.00    +0.000 A 
ATOM     20 CL   UNL     1       5.326   4.031  16.851  0.00  0.00    +0.000 Cl
ATOM     21  C   UNL     1       6.216   6.628  16.763  0.00  0.00    +0.000 A 
ATOM     22 CL   UNL     1       5.106   6.974  15.484  0.00  0.00    +0.000 Cl
ATOM     23  C   UNL     1       7.035   7.674  17.212  0.00  0.00    +0.000 A 
ENDBRANCH  15  16
ENDBRANCH   1  14
TORSDOF 6
ENDMDL
MODEL 9
REMARK VINA RESULT:      -6.9      1.558      2.553
REMARK  Name = 
REMARK  7 active torsions:
REMARK  status: ('A' for Active; 'I' for Inactive)
REMARK    1  A    between atoms: C_1  and  O_2
REMARK    2  A    between atoms: O_2  and  C_3
REMARK    3  A    between atoms: C_5  and  O_6
REMARK    4  A    between atoms: O_6  and  O_7
REMARK    5  A    between atoms: C_10  and  C_11
REMARK    6  A    between atoms: C_11  and  C_13
REMARK    7  A    between atoms: C_14  and  C_15
REMARK                            x       y       z     vdW  Elec       q    Type
REMARK                         _______ _______ _______ _____ _____    ______ ____
ROOT
ATOM      1  C   UNL     1       3.337   5.638  19.099  0.00  0.00    +0.000 C 
ATOM      2  O   UNL     1       3.502   4.984  20.121  0.00  0.00    +0.000 OA
ENDROOT
BRANCH   1   8
ATOM      3  C   UNL     1       4.033   4.178  17.076  0.00  0.00    +0.000 A 
ATOM      4  C   UNL     1       4.951   3.991  16.028  0.00  0.00    +0.000 A 
ATOM      5  C   UNL     1       5.925   4.929  15.723  0.00  0.00    +0.000 A 
ATOM      6  C   UNL     1       6.010   6.090  16.477  0.00  0.00    +0.000 A 
ATOM      7  C   UNL     1       5.132   6.283  17.551  0.00  0.00    +0.000 A 
ATOM      8  C   UNL     1       4.148   5.329  17.876  0.00  0.00    +0.000 A 
BRANCH   3  10
ATOM      9  C   UNL     1       3.555   2.055  17.997  0.00  0.00    +0.000 C 
ATOM     10  O   UNL     1       3.071   3.231  17.327  0.00  0.00    +0.000 OA
ENDBRANCH   3  10
BRANCH   5  11
ATOM     11  O   UNL     1       6.720   4.613  14.646  0.00  0.00    +0.000 OA
BRANCH  11  12
ATOM     12  O   UNL     1       7.808   5.565  14.567  0.00  0.00    +0.000 OA
ATOM     13  H   UNL     1       7.259   6.307  14.256  0.00  0.00    +0.000 HD
ENDBRANCH  11  12
ENDBRANCH   5  11
ENDBRANCH   1   8
BRANCH   1  14
ATOM     14  C   UNL     1       2.425   6.817  19.093  0.00  0.00    +0.000 C 
ATOM     15  C   UNL     1       1.902   7.237  20.256  0.00  0.00    +0.000 C 
BRANCH  15  16
ATOM     16  C   UNL     1       1.187   8.509  20.454  0.00  0.00    +0.000 A 
ATOM     17  C   UNL     1       1.093   9.393  19.368  0.00  0.00    +0.000 A 
ATOM     18  C   UNL     1       0.381  10.592  19.475  0.00  0.00    +0.000 A 
ATOM     19  C   UNL     1      -0.242  10.931  20.677  0.00  0.00    +0.000 A 
ATOM     20 CL   UNL     1      -1.105  12.426  20.746  0.00  0.00    +0.000 Cl
ATOM     21  C   UNL     1      -0.150  10.063  21.771  0.00  0.00    +0.000 A 
ATOM     22 CL   UNL     1      -0.916  10.399  23.283  0.00  0.00    +0.000 Cl
ATOM     23  C   UNL     1       0.569   8.864  21.660  0.00  0.00    +0.000 A 
ENDBRANCH  15  16
ENDBRANCH   1  14
TORSDOF 6
ENDMDL
