MODEL 1
REMARK VINA RESULT:      -9.0      0.000      0.000
REMARK  Name = 
REMARK  5 active torsions:
REMARK  status: ('A' for Active; 'I' for Inactive)
REMARK    1  A    between atoms: C_4  and  C_5
REMARK    2  A    between atoms: C_6  and  C_7
REMARK    3  A    between atoms: C_10  and  N_11
REMARK    4  A    between atoms: C_26  and  C_27
REMARK    5  A    between atoms: C_27  and  N_28
REMARK                            x       y       z     vdW  Elec       q    Type
REMARK                         _______ _______ _______ _____ _____    ______ ____
ROOT
ATOM      1  C   UNL     1       1.415   8.632  20.123  0.00  0.00    +0.000 A 
ATOM      2  C   UNL     1       1.061   9.641  19.226  0.00  0.00    +0.000 A 
ATOM      3  C   UNL     1       0.320  10.748  19.654  0.00  0.00    +0.000 A 
ATOM      4  C   UNL     1      -0.100  10.885  20.982  0.00  0.00    +0.000 A 
ATOM      5  C   UNL     1       0.294   9.887  21.881  0.00  0.00    +0.000 A 
ATOM      6  C   UNL     1       1.022   8.767  21.459  0.00  0.00    +0.000 A 
ENDROOT
BRANCH   4   7
ATOM      7  N   UNL     1      -0.948  11.893  21.378  0.00  0.00    +0.000 N 
ATOM      8  C   UNL     1      -1.415  11.985  22.768  0.00  0.00    +0.000 C 
ATOM      9  C   UNL     1      -1.361  13.456  23.216  0.00  0.00    +0.000 C 
ATOM     10  N   UNL     1      -2.165  14.289  22.313  0.00  0.00    +0.000 N 
ATOM     11  C   UNL     1      -3.277  14.965  22.735  0.00  0.00    +0.000 C 
ATOM     12  N   UNL     1      -4.262  15.278  21.976  0.00  0.00    +0.000 NA
ATOM     13  C   UNL     1      -5.427  15.965  22.523  0.00  0.00    +0.000 C 
ATOM     14  C   UNL     1      -5.526  15.834  24.027  0.00  0.00    +0.000 C 
ATOM     15  C   UNL     1      -4.173  16.170  24.592  0.00  0.00    +0.000 C 
ATOM     16  O   UNL     1      -3.204  15.270  24.058  0.00  0.00    +0.000 OA
ATOM     17  C   UNL     1      -1.801  14.176  20.891  0.00  0.00    +0.000 C 
ATOM     18  C   UNL     1      -1.721  12.704  20.419  0.00  0.00    +0.000 C 
ENDBRANCH   4   7
BRANCH   1  20
ATOM     19  C   UNL     1       2.836   7.439  18.467  0.00  0.00    +0.000 C 
ATOM     20  C   UNL     1       2.129   7.454  19.608  0.00  0.00    +0.000 C 
BRANCH  19  24
ATOM     21  F   UNL     1       5.954   5.485  15.347  0.00  0.00    +0.000 F 
ATOM     22  C   UNL     1       5.047   5.310  16.316  0.00  0.00    +0.000 A 
ATOM     23  C   UNL     1       4.457   6.421  16.908  0.00  0.00    +0.000 A 
ATOM     24  C   UNL     1       3.504   6.251  17.917  0.00  0.00    +0.000 A 
ATOM     25  C   UNL     1       3.155   4.948  18.305  0.00  0.00    +0.000 A 
ATOM     26  C   UNL     1       3.747   3.822  17.706  0.00  0.00    +0.000 A 
ATOM     27  C   UNL     1       4.703   4.019  16.702  0.00  0.00    +0.000 A 
BRANCH  26  28
ATOM     28  C   UNL     1       3.373   2.434  18.159  0.00  0.00    +0.000 C 
BRANCH  28  29
ATOM     29  N   UNL     1       2.875   2.448  19.522  0.00  0.00    +0.000 N 
ATOM     30  C   UNL     1       1.565   2.399  19.911  0.00  0.00    +0.000 A 
ATOM     31  C   UNL     1       1.602   2.458  21.285  0.00  0.00    +0.000 A 
ATOM     32  N   UNL     1       2.896   2.501  21.735  0.00  0.00    +0.000 NA
ATOM     33  C   UNL     1       3.640   2.486  20.652  0.00  0.00    +0.000 A 
ENDBRANCH  28  29
ENDBRANCH  26  28
ENDBRANCH  19  24
ENDBRANCH   1  20
TORSDOF 5
ENDMDL
MODEL 2
REMARK VINA RESULT:      -9.0      1.125      1.648
REMARK  Name = 
REMARK  5 active torsions:
REMARK  status: ('A' for Active; 'I' for Inactive)
REMARK    1  A    between atoms: C_4  and  C_5
REMARK    2  A    between atoms: C_6  and  C_7
REMARK    3  A    between atoms: C_10  and  N_11
REMARK    4  A    between atoms: C_26  and  C_27
REMARK    5  A    between atoms: C_27  and  N_28
REMARK                            x       y       z     vdW  Elec       q    Type
REMARK                         _______ _______ _______ _____ _____    ______ ____
ROOT
ATOM      1  C   UNL     1       1.049   8.869  20.467  0.00  0.00    +0.000 A 
ATOM      2  C   UNL     1       0.612   9.871  19.598  0.00  0.00    +0.000 A 
ATOM      3  C   UNL     1      -0.218  10.900  20.057  0.00  0.00    +0.000 A 
ATOM      4  C   UNL     1      -0.647  10.963  21.388  0.00  0.00    +0.000 A 
ATOM      5  C   UNL     1      -0.170   9.976  22.258  0.00  0.00    +0.000 A 
ATOM      6  C   UNL     1       0.648   8.933  21.805  0.00  0.00    +0.000 A 
ENDROOT
BRANCH   4   7
ATOM      7  N   UNL     1      -1.576  11.886  21.811  0.00  0.00    +0.000 N 
ATOM      8  C   UNL     1      -2.036  12.957  20.917  0.00  0.00    +0.000 C 
ATOM      9  C   UNL     1      -3.561  13.106  21.063  0.00  0.00    +0.000 C 
ATOM     10  N   UNL     1      -3.911  13.375  22.463  0.00  0.00    +0.000 N 
ATOM     11  C   UNL     1      -4.494  14.546  22.862  0.00  0.00    +0.000 C 
ATOM     12  N   UNL     1      -4.378  15.047  24.036  0.00  0.00    +0.000 NA
ATOM     13  C   UNL     1      -5.004  16.324  24.360  0.00  0.00    +0.000 C 
ATOM     14  C   UNL     1      -5.355  17.129  23.128  0.00  0.00    +0.000 C 
ATOM     15  C   UNL     1      -6.074  16.204  22.183  0.00  0.00    +0.000 C 
ATOM     16  O   UNL     1      -5.221  15.108  21.859  0.00  0.00    +0.000 OA
ATOM     17  C   UNL     1      -3.402  12.379  23.421  0.00  0.00    +0.000 C 
ATOM     18  C   UNL     1      -1.891  12.101  23.235  0.00  0.00    +0.000 C 
ENDBRANCH   4   7
BRANCH   1  20
ATOM     19  C   UNL     1       2.387   7.765  18.685  0.00  0.00    +0.000 C 
ATOM     20  C   UNL     1       1.858   7.770  19.919  0.00  0.00    +0.000 C 
BRANCH  19  24
ATOM     21  F   UNL     1       5.812   6.161  15.689  0.00  0.00    +0.000 F 
ATOM     22  C   UNL     1       4.846   5.882  16.574  0.00  0.00    +0.000 A 
ATOM     23  C   UNL     1       4.163   6.924  17.191  0.00  0.00    +0.000 A 
ATOM     24  C   UNL     1       3.149   6.646  18.111  0.00  0.00    +0.000 A 
ATOM     25  C   UNL     1       2.832   5.306  18.385  0.00  0.00    +0.000 A 
ATOM     26  C   UNL     1       3.518   4.250  17.760  0.00  0.00    +0.000 A 
ATOM     27  C   UNL     1       4.535   4.554  16.847  0.00  0.00    +0.000 A 
BRANCH  26  28
ATOM     28  C   UNL     1       3.178   2.819  18.091  0.00  0.00    +0.000 C 
BRANCH  28  29
ATOM     29  N   UNL     1       2.686   2.703  19.452  0.00  0.00    +0.000 N 
ATOM     30  C   UNL     1       3.440   2.713  20.594  0.00  0.00    +0.000 A 
ATOM     31  C   UNL     1       2.533   2.555  21.616  0.00  0.00    +0.000 A 
ATOM     32  N   UNL     1       1.254   2.490  21.127  0.00  0.00    +0.000 NA
ATOM     33  C   UNL     1       1.377   2.589  19.822  0.00  0.00    +0.000 A 
ENDBRANCH  28  29
ENDBRANCH  26  28
ENDBRANCH  19  24
ENDBRANCH   1  20
TORSDOF 5
ENDMDL
MODEL 3
REMARK VINA RESULT:      -8.8      2.130      3.109
REMARK  Name = 
REMARK  5 active torsions:
REMARK  status: ('A' for Active; 'I' for Inactive)
REMARK    1  A    between atoms: C_4  and  C_5
REMARK    2  A    between atoms: C_6  and  C_7
REMARK    3  A    between atoms: C_10  and  N_11
REMARK    4  A    between atoms: C_26  and  C_27
REMARK    5  A    between atoms: C_27  and  N_28
REMARK                            x       y       z     vdW  Elec       q    Type
REMARK                         _______ _______ _______ _____ _____    ______ ____
ROOT
ATOM      1  C   UNL     1       1.510   8.484  20.138  0.00  0.00    +0.000 A 
ATOM      2  C   UNL     1       1.113   9.462  19.225  0.00  0.00    +0.000 A 
ATOM      3  C   UNL     1       0.355  10.562  19.642  0.00  0.00    +0.000 A 
ATOM      4  C   UNL     1      -0.040  10.721  20.976  0.00  0.00    +0.000 A 
ATOM      5  C   UNL     1       0.397   9.755  21.889  0.00  0.00    +0.000 A 
ATOM      6  C   UNL     1       1.143   8.642  21.478  0.00  0.00    +0.000 A 
ENDROOT
BRANCH   4   7
ATOM      7  N   UNL     1      -0.903  11.719  21.366  0.00  0.00    +0.000 N 
ATOM      8  C   UNL     1      -1.360  11.819  22.758  0.00  0.00    +0.000 C 
ATOM      9  C   UNL     1      -1.330  13.298  23.187  0.00  0.00    +0.000 C 
ATOM     10  N   UNL     1      -2.157  14.103  22.281  0.00  0.00    +0.000 N 
ATOM     11  C   UNL     1      -3.278  14.764  22.703  0.00  0.00    +0.000 C 
ATOM     12  N   UNL     1      -4.275  15.049  21.949  0.00  0.00    +0.000 NA
ATOM     13  C   UNL     1      -5.447  15.721  22.497  0.00  0.00    +0.000 C 
ATOM     14  C   UNL     1      -5.532  15.608  24.003  0.00  0.00    +0.000 C 
ATOM     15  C   UNL     1      -4.181  15.976  24.552  0.00  0.00    +0.000 C 
ATOM     16  O   UNL     1      -3.199  15.087  24.022  0.00  0.00    +0.000 OA
ATOM     17  C   UNL     1      -1.803  13.978  20.857  0.00  0.00    +0.000 C 
ATOM     18  C   UNL     1      -1.700  12.502  20.403  0.00  0.00    +0.000 C 
ENDBRANCH   4   7
BRANCH   1  20
ATOM     19  C   UNL     1       2.119   6.821  18.391  0.00  0.00    +0.000 C 
ATOM     20  C   UNL     1       2.241   7.311  19.636  0.00  0.00    +0.000 C 
BRANCH  19  24
ATOM     21  F   UNL     1       2.075   2.081  17.497  0.00  0.00    +0.000 F 
ATOM     22  C   UNL     1       2.753   3.236  17.501  0.00  0.00    +0.000 A 
ATOM     23  C   UNL     1       2.106   4.405  17.886  0.00  0.00    +0.000 A 
ATOM     24  C   UNL     1       2.803   5.616  17.901  0.00  0.00    +0.000 A 
ATOM     25  C   UNL     1       4.158   5.621  17.532  0.00  0.00    +0.000 A 
ATOM     26  C   UNL     1       4.816   4.440  17.146  0.00  0.00    +0.000 A 
ATOM     27  C   UNL     1       4.094   3.241  17.133  0.00  0.00    +0.000 A 
BRANCH  26  28
ATOM     28  C   UNL     1       6.264   4.477  16.729  0.00  0.00    +0.000 C 
BRANCH  28  29
ATOM     29  N   UNL     1       6.982   5.523  17.435  0.00  0.00    +0.000 N 
ATOM     30  C   UNL     1       7.166   6.811  17.014  0.00  0.00    +0.000 A 
ATOM     31  C   UNL     1       7.918   7.401  18.003  0.00  0.00    +0.000 A 
ATOM     32  N   UNL     1       8.157   6.518  19.025  0.00  0.00    +0.000 NA
ATOM     33  C   UNL     1       7.576   5.399  18.658  0.00  0.00    +0.000 A 
ENDBRANCH  28  29
ENDBRANCH  26  28
ENDBRANCH  19  24
ENDBRANCH   1  20
TORSDOF 5
ENDMDL
MODEL 4
REMARK VINA RESULT:      -8.8      2.373      3.633
REMARK  Name = 
REMARK  5 active torsions:
REMARK  status: ('A' for Active; 'I' for Inactive)
REMARK    1  A    between atoms: C_4  and  C_5
REMARK    2  A    between atoms: C_6  and  C_7
REMARK    3  A    between atoms: C_10  and  N_11
REMARK    4  A    between atoms: C_26  and  C_27
REMARK    5  A    between atoms: C_27  and  N_28
REMARK                            x       y       z     vdW  Elec       q    Type
REMARK                         _______ _______ _______ _____ _____    ______ ____
ROOT
ATOM      1  C   UNL     1       0.849   8.934  20.979  0.00  0.00    +0.000 A 
ATOM      2  C   UNL     1       0.435   9.923  20.084  0.00  0.00    +0.000 A 
ATOM      3  C   UNL     1      -0.412  10.955  20.503  0.00  0.00    +0.000 A 
ATOM      4  C   UNL     1      -0.881  11.034  21.820  0.00  0.00    +0.000 A 
ATOM      5  C   UNL     1      -0.427  10.061  22.717  0.00  0.00    +0.000 A 
ATOM      6  C   UNL     1       0.408   9.015  22.303  0.00  0.00    +0.000 A 
ENDROOT
BRANCH   4   7
ATOM      7  N   UNL     1      -1.825  11.959  22.203  0.00  0.00    +0.000 N 
ATOM      8  C   UNL     1      -2.725  12.570  21.216  0.00  0.00    +0.000 C 
ATOM      9  C   UNL     1      -4.147  12.622  21.803  0.00  0.00    +0.000 C 
ATOM     10  N   UNL     1      -4.142  13.363  23.072  0.00  0.00    +0.000 N 
ATOM     11  C   UNL     1      -4.821  14.539  23.236  0.00  0.00    +0.000 C 
ATOM     12  N   UNL     1      -4.489  15.452  24.073  0.00  0.00    +0.000 NA
ATOM     13  C   UNL     1      -5.249  16.694  24.151  0.00  0.00    +0.000 C 
ATOM     14  C   UNL     1      -6.086  16.942  22.916  0.00  0.00    +0.000 C 
ATOM     15  C   UNL     1      -6.832  15.670  22.621  0.00  0.00    +0.000 C 
ATOM     16  O   UNL     1      -5.896  14.615  22.407  0.00  0.00    +0.000 OA
ATOM     17  C   UNL     1      -3.194  12.849  24.075  0.00  0.00    +0.000 C 
ATOM     18  C   UNL     1      -1.770  12.661  23.498  0.00  0.00    +0.000 C 
ENDBRANCH   4   7
BRANCH   1  20
ATOM     19  C   UNL     1       1.364   6.532  20.593  0.00  0.00    +0.000 C 
ATOM     20  C   UNL     1       1.679   7.831  20.471  0.00  0.00    +0.000 C 
BRANCH  19  24
ATOM     21  F   UNL     1       2.122   1.792  20.107  0.00  0.00    +0.000 F 
ATOM     22  C   UNL     1       2.572   3.043  19.947  0.00  0.00    +0.000 A 
ATOM     23  C   UNL     1       1.755   4.113  20.295  0.00  0.00    +0.000 A 
ATOM     24  C   UNL     1       2.215   5.423  20.139  0.00  0.00    +0.000 A 
ATOM     25  C   UNL     1       3.511   5.629  19.638  0.00  0.00    +0.000 A 
ATOM     26  C   UNL     1       4.341   4.550  19.287  0.00  0.00    +0.000 A 
ATOM     27  C   UNL     1       3.854   3.247  19.447  0.00  0.00    +0.000 A 
BRANCH  26  28
ATOM     28  C   UNL     1       5.717   4.799  18.726  0.00  0.00    +0.000 C 
BRANCH  28  29
ATOM     29  N   UNL     1       5.656   5.085  17.304  0.00  0.00    +0.000 N 
ATOM     30  C   UNL     1       5.612   4.167  16.291  0.00  0.00    +0.000 A 
ATOM     31  C   UNL     1       5.584   4.917  15.138  0.00  0.00    +0.000 A 
ATOM     32  N   UNL     1       5.570   6.256  15.428  0.00  0.00    +0.000 NA
ATOM     33  C   UNL     1       5.607   6.326  16.740  0.00  0.00    +0.000 A 
ENDBRANCH  28  29
ENDBRANCH  26  28
ENDBRANCH  19  24
ENDBRANCH   1  20
TORSDOF 5
ENDMDL
MODEL 5
REMARK VINA RESULT:      -8.7      0.942      1.618
REMARK  Name = 
REMARK  5 active torsions:
REMARK  status: ('A' for Active; 'I' for Inactive)
REMARK    1  A    between atoms: C_4  and  C_5
REMARK    2  A    between atoms: C_6  and  C_7
REMARK    3  A    between atoms: C_10  and  N_11
REMARK    4  A    between atoms: C_26  and  C_27
REMARK    5  A    between atoms: C_27  and  N_28
REMARK                            x       y       z     vdW  Elec       q    Type
REMARK                         _______ _______ _______ _____ _____    ______ ____
ROOT
ATOM      1  C   UNL     1       1.103   8.861  20.194  0.00  0.00    +0.000 A 
ATOM      2  C   UNL     1       0.495   8.734  21.444  0.00  0.00    +0.000 A 
ATOM      3  C   UNL     1      -0.335   9.746  21.939  0.00  0.00    +0.000 A 
ATOM      4  C   UNL     1      -0.581  10.918  21.213  0.00  0.00    +0.000 A 
ATOM      5  C   UNL     1       0.002  11.016  19.945  0.00  0.00    +0.000 A 
ATOM      6  C   UNL     1       0.847  10.016  19.448  0.00  0.00    +0.000 A 
ENDROOT
BRANCH   4   7
ATOM      7  N   UNL     1      -1.277  11.976  21.752  0.00  0.00    +0.000 N 
ATOM      8  C   UNL     1      -1.093  13.340  21.238  0.00  0.00    +0.000 C 
ATOM      9  C   UNL     1      -2.470  14.020  21.125  0.00  0.00    +0.000 C 
ATOM     10  N   UNL     1      -3.144  14.014  22.430  0.00  0.00    +0.000 N 
ATOM     11  C   UNL     1      -3.446  15.164  23.104  0.00  0.00    +0.000 C 
ATOM     12  N   UNL     1      -3.559  15.245  24.379  0.00  0.00    +0.000 NA
ATOM     13  C   UNL     1      -3.845  16.526  25.016  0.00  0.00    +0.000 C 
ATOM     14  C   UNL     1      -3.537  17.704  24.118  0.00  0.00    +0.000 C 
ATOM     15  C   UNL     1      -4.164  17.419  22.780  0.00  0.00    +0.000 C 
ATOM     16  O   UNL     1      -3.620  16.211  22.253  0.00  0.00    +0.000 OA
ATOM     17  C   UNL     1      -3.282  12.680  23.040  0.00  0.00    +0.000 C 
ATOM     18  C   UNL     1      -1.943  11.903  23.065  0.00  0.00    +0.000 C 
ENDBRANCH   4   7
BRANCH   1  20
ATOM     19  C   UNL     1       2.318   7.546  18.467  0.00  0.00    +0.000 C 
ATOM     20  C   UNL     1       2.025   7.804  19.752  0.00  0.00    +0.000 C 
BRANCH  19  24
ATOM     21  F   UNL     1       6.002   6.011  15.758  0.00  0.00    +0.000 F 
ATOM     22  C   UNL     1       5.019   5.720  16.619  0.00  0.00    +0.000 A 
ATOM     23  C   UNL     1       4.226   6.745  17.122  0.00  0.00    +0.000 A 
ATOM     24  C   UNL     1       3.193   6.454  18.016  0.00  0.00    +0.000 A 
ATOM     25  C   UNL     1       2.971   5.116  18.381  0.00  0.00    +0.000 A 
ATOM     26  C   UNL     1       3.768   4.077  17.871  0.00  0.00    +0.000 A 
ATOM     27  C   UNL     1       4.802   4.395  16.982  0.00  0.00    +0.000 A 
BRANCH  26  28
ATOM     28  C   UNL     1       3.526   2.652  18.299  0.00  0.00    +0.000 C 
BRANCH  28  29
ATOM     29  N   UNL     1       2.908   2.600  19.612  0.00  0.00    +0.000 N 
ATOM     30  C   UNL     1       1.567   2.552  19.878  0.00  0.00    +0.000 A 
ATOM     31  C   UNL     1       1.481   2.537  21.251  0.00  0.00    +0.000 A 
ATOM     32  N   UNL     1       2.730   2.534  21.817  0.00  0.00    +0.000 NA
ATOM     33  C   UNL     1       3.568   2.566  20.805  0.00  0.00    +0.000 A 
ENDBRANCH  28  29
ENDBRANCH  26  28
ENDBRANCH  19  24
ENDBRANCH   1  20
TORSDOF 5
ENDMDL
MODEL 6
REMARK VINA RESULT:      -8.7      2.473      3.518
REMARK  Name = 
REMARK  5 active torsions:
REMARK  status: ('A' for Active; 'I' for Inactive)
REMARK    1  A    between atoms: C_4  and  C_5
REMARK    2  A    between atoms: C_6  and  C_7
REMARK    3  A    between atoms: C_10  and  N_11
REMARK    4  A    between atoms: C_26  and  C_27
REMARK    5  A    between atoms: C_27  and  N_28
REMARK                            x       y       z     vdW  Elec       q    Type
REMARK                         _______ _______ _______ _____ _____    ______ ____
ROOT
ATOM      1  C   UNL     1       0.365   8.980  21.595  0.00  0.00    +0.000 A 
ATOM      2  C   UNL     1       0.149   9.865  20.537  0.00  0.00    +0.000 A 
ATOM      3  C   UNL     1      -0.542  11.064  20.741  0.00  0.00    +0.000 A 
ATOM      4  C   UNL     1      -1.048  11.420  21.997  0.00  0.00    +0.000 A 
ATOM      5  C   UNL     1      -0.791  10.544  23.058  0.00  0.00    +0.000 A 
ATOM      6  C   UNL     1      -0.113   9.334  22.861  0.00  0.00    +0.000 A 
ENDROOT
BRANCH   4   7
ATOM      7  N   UNL     1      -1.850  12.523  22.174  0.00  0.00    +0.000 N 
ATOM      8  C   UNL     1      -2.889  12.542  23.212  0.00  0.00    +0.000 C 
ATOM      9  C   UNL     1      -2.865  13.911  23.917  0.00  0.00    +0.000 C 
ATOM     10  N   UNL     1      -3.054  14.987  22.935  0.00  0.00    +0.000 N 
ATOM     11  C   UNL     1      -4.142  15.815  22.956  0.00  0.00    +0.000 C 
ATOM     12  N   UNL     1      -4.619  16.405  21.922  0.00  0.00    +0.000 NA
ATOM     13  C   UNL     1      -5.809  17.240  22.033  0.00  0.00    +0.000 C 
ATOM     14  C   UNL     1      -6.605  16.957  23.288  0.00  0.00    +0.000 C 
ATOM     15  C   UNL     1      -5.634  16.948  24.437  0.00  0.00    +0.000 C 
ATOM     16  O   UNL     1      -4.648  15.942  24.212  0.00  0.00    +0.000 OA
ATOM     17  C   UNL     1      -2.093  14.970  21.819  0.00  0.00    +0.000 C 
ATOM     18  C   UNL     1      -1.989  13.578  21.153  0.00  0.00    +0.000 C 
ENDBRANCH   4   7
BRANCH   1  20
ATOM     19  C   UNL     1       1.749   7.450  20.207  0.00  0.00    +0.000 C 
ATOM     20  C   UNL     1       1.032   7.700  21.314  0.00  0.00    +0.000 C 
BRANCH  19  24
ATOM     21  F   UNL     1       2.434   2.794  21.265  0.00  0.00    +0.000 F 
ATOM     22  C   UNL     1       2.715   3.839  20.476  0.00  0.00    +0.000 A 
ATOM     23  C   UNL     1       2.081   5.055  20.704  0.00  0.00    +0.000 A 
ATOM     24  C   UNL     1       2.370   6.155  19.892  0.00  0.00    +0.000 A 
ATOM     25  C   UNL     1       3.311   6.006  18.861  0.00  0.00    +0.000 A 
ATOM     26  C   UNL     1       3.956   4.778  18.631  0.00  0.00    +0.000 A 
ATOM     27  C   UNL     1       3.645   3.689  19.454  0.00  0.00    +0.000 A 
BRANCH  26  28
ATOM     28  C   UNL     1       4.943   4.638  17.500  0.00  0.00    +0.000 C 
BRANCH  28  29
ATOM     29  N   UNL     1       6.039   5.578  17.645  0.00  0.00    +0.000 N 
ATOM     30  C   UNL     1       6.963   5.603  18.654  0.00  0.00    +0.000 A 
ATOM     31  C   UNL     1       7.773   6.676  18.364  0.00  0.00    +0.000 A 
ATOM     32  N   UNL     1       7.388   7.274  17.191  0.00  0.00    +0.000 NA
ATOM     33  C   UNL     1       6.347   6.587  16.778  0.00  0.00    +0.000 A 
ENDBRANCH  28  29
ENDBRANCH  26  28
ENDBRANCH  19  24
ENDBRANCH   1  20
TORSDOF 5
ENDMDL
MODEL 7
REMARK VINA RESULT:      -8.7      0.868      1.050
REMARK  Name = 
REMARK  5 active torsions:
REMARK  status: ('A' for Active; 'I' for Inactive)
REMARK    1  A    between atoms: C_4  and  C_5
REMARK    2  A    between atoms: C_6  and  C_7
REMARK    3  A    between atoms: C_10  and  N_11
REMARK    4  A    between atoms: C_26  and  C_27
REMARK    5  A    between atoms: C_27  and  N_28
REMARK                            x       y       z     vdW  Elec       q    Type
REMARK                         _______ _______ _______ _____ _____    ______ ____
ROOT
ATOM      1  C   UNL     1       0.936   9.259  20.332  0.00  0.00    +0.000 A 
ATOM      2  C   UNL     1       0.689  10.322  19.461  0.00  0.00    +0.000 A 
ATOM      3  C   UNL     1      -0.098  11.406  19.865  0.00  0.00    +0.000 A 
ATOM      4  C   UNL     1      -0.671  11.466  21.141  0.00  0.00    +0.000 A 
ATOM      5  C   UNL     1      -0.383  10.415  22.018  0.00  0.00    +0.000 A 
ATOM      6  C   UNL     1       0.391   9.317  21.618  0.00  0.00    +0.000 A 
ENDROOT
BRANCH   4   7
ATOM      7  N   UNL     1      -1.560  12.455  21.494  0.00  0.00    +0.000 N 
ATOM      8  C   UNL     1      -2.222  12.440  22.806  0.00  0.00    +0.000 C 
ATOM      9  C   UNL     1      -2.223  13.869  23.379  0.00  0.00    +0.000 C 
ATOM     10  N   UNL     1      -2.884  14.788  22.443  0.00  0.00    +0.000 N 
ATOM     11  C   UNL     1      -4.041  15.447  22.757  0.00  0.00    +0.000 C 
ATOM     12  N   UNL     1      -4.904  15.839  21.894  0.00  0.00    +0.000 NA
ATOM     13  C   UNL     1      -6.131  16.500  22.324  0.00  0.00    +0.000 C 
ATOM     14  C   UNL     1      -6.447  16.249  23.782  0.00  0.00    +0.000 C 
ATOM     15  C   UNL     1      -5.187  16.512  24.561  0.00  0.00    +0.000 C 
ATOM     16  O   UNL     1      -4.157  15.641  24.098  0.00  0.00    +0.000 OA
ATOM     17  C   UNL     1      -2.319  14.784  21.083  0.00  0.00    +0.000 C 
ATOM     18  C   UNL     1      -2.182  13.355  20.506  0.00  0.00    +0.000 C 
ENDBRANCH   4   7
BRANCH   1  20
ATOM     19  C   UNL     1       2.267   8.048  18.615  0.00  0.00    +0.000 C 
ATOM     20  C   UNL     1       1.708   8.110  19.834  0.00  0.00    +0.000 C 
BRANCH  19  24
ATOM     21  F   UNL     1       5.838   6.219  15.936  0.00  0.00    +0.000 F 
ATOM     22  C   UNL     1       4.767   6.005  16.711  0.00  0.00    +0.000 A 
ATOM     23  C   UNL     1       4.112   7.089  17.284  0.00  0.00    +0.000 A 
ATOM     24  C   UNL     1       2.990   6.880  18.091  0.00  0.00    +0.000 A 
ATOM     25  C   UNL     1       2.540   5.566  18.295  0.00  0.00    +0.000 A 
ATOM     26  C   UNL     1       3.199   4.468  17.714  0.00  0.00    +0.000 A 
ATOM     27  C   UNL     1       4.324   4.703  16.916  0.00  0.00    +0.000 A 
BRANCH  26  28
ATOM     28  C   UNL     1       2.711   3.065  17.972  0.00  0.00    +0.000 C 
BRANCH  28  29
ATOM     29  N   UNL     1       2.421   2.865  19.380  0.00  0.00    +0.000 N 
ATOM     30  C   UNL     1       3.333   2.761  20.393  0.00  0.00    +0.000 A 
ATOM     31  C   UNL     1       2.581   2.560  21.527  0.00  0.00    +0.000 A 
ATOM     32  N   UNL     1       1.242   2.580  21.232  0.00  0.00    +0.000 NA
ATOM     33  C   UNL     1       1.176   2.772  19.934  0.00  0.00    +0.000 A 
ENDBRANCH  28  29
ENDBRANCH  26  28
ENDBRANCH  19  24
ENDBRANCH   1  20
TORSDOF 5
ENDMDL
MODEL 8
REMARK VINA RESULT:      -8.7      2.340      3.511
REMARK  Name = 
REMARK  5 active torsions:
REMARK  status: ('A' for Active; 'I' for Inactive)
REMARK    1  A    between atoms: C_4  and  C_5
REMARK    2  A    between atoms: C_6  and  C_7
REMARK    3  A    between atoms: C_10  and  N_11
REMARK    4  A    between atoms: C_26  and  C_27
REMARK    5  A    between atoms: C_27  and  N_28
REMARK                            x       y       z     vdW  Elec       q    Type
REMARK                         _______ _______ _______ _____ _____    ______ ____
ROOT
ATOM      1  C   UNL     1       0.573   8.668  21.310  0.00  0.00    +0.000 A 
ATOM      2  C   UNL     1       0.319   9.650  20.350  0.00  0.00    +0.000 A 
ATOM      3  C   UNL     1      -0.345  10.832  20.698  0.00  0.00    +0.000 A 
ATOM      4  C   UNL     1      -0.783  11.073  22.006  0.00  0.00    +0.000 A 
ATOM      5  C   UNL     1      -0.488  10.100  22.966  0.00  0.00    +0.000 A 
ATOM      6  C   UNL     1       0.161   8.906  22.625  0.00  0.00    +0.000 A 
ENDROOT
BRANCH   4   7
ATOM      7  N   UNL     1      -1.560  12.163  22.324  0.00  0.00    +0.000 N 
ATOM      8  C   UNL     1      -1.119  13.525  21.997  0.00  0.00    +0.000 C 
ATOM      9  C   UNL     1      -2.315  14.317  21.439  0.00  0.00    +0.000 C 
ATOM     10  N   UNL     1      -3.417  14.318  22.410  0.00  0.00    +0.000 N 
ATOM     11  C   UNL     1      -3.872  15.464  23.002  0.00  0.00    +0.000 C 
ATOM     12  N   UNL     1      -4.436  15.507  24.153  0.00  0.00    +0.000 NA
ATOM     13  C   UNL     1      -4.854  16.783  24.722  0.00  0.00    +0.000 C 
ATOM     14  C   UNL     1      -4.168  17.964  24.072  0.00  0.00    +0.000 C 
ATOM     15  C   UNL     1      -4.283  17.779  22.583  0.00  0.00    +0.000 C 
ATOM     16  O   UNL     1      -3.659  16.551  22.212  0.00  0.00    +0.000 OA
ATOM     17  C   UNL     1      -3.849  12.979  22.844  0.00  0.00    +0.000 C 
ATOM     18  C   UNL     1      -2.662  12.096  23.301  0.00  0.00    +0.000 C 
ENDBRANCH   4   7
BRANCH   1  20
ATOM     19  C   UNL     1       2.079   7.319  19.862  0.00  0.00    +0.000 C 
ATOM     20  C   UNL     1       1.206   7.413  20.878  0.00  0.00    +0.000 C 
BRANCH  19  24
ATOM     21  F   UNL     1       1.561   2.704  18.554  0.00  0.00    +0.000 F 
ATOM     22  C   UNL     1       2.375   3.744  18.775  0.00  0.00    +0.000 A 
ATOM     23  C   UNL     1       1.833   4.969  19.148  0.00  0.00    +0.000 A 
ATOM     24  C   UNL     1       2.672   6.060  19.388  0.00  0.00    +0.000 A 
ATOM     25  C   UNL     1       4.059   5.888  19.256  0.00  0.00    +0.000 A 
ATOM     26  C   UNL     1       4.611   4.650  18.882  0.00  0.00    +0.000 A 
ATOM     27  C   UNL     1       3.749   3.574  18.640  0.00  0.00    +0.000 A 
BRANCH  26  28
ATOM     28  C   UNL     1       6.102   4.499  18.721  0.00  0.00    +0.000 C 
BRANCH  28  29
ATOM     29  N   UNL     1       6.516   4.830  17.369  0.00  0.00    +0.000 N 
ATOM     30  C   UNL     1       6.279   4.094  16.242  0.00  0.00    +0.000 A 
ATOM     31  C   UNL     1       6.879   4.802  15.226  0.00  0.00    +0.000 A 
ATOM     32  N   UNL     1       7.435   5.961  15.703  0.00  0.00    +0.000 NA
ATOM     33  C   UNL     1       7.195   5.953  16.995  0.00  0.00    +0.000 A 
ENDBRANCH  28  29
ENDBRANCH  26  28
ENDBRANCH  19  24
ENDBRANCH   1  20
TORSDOF 5
ENDMDL
MODEL 9
REMARK VINA RESULT:      -8.6      2.417      3.653
REMARK  Name = 
REMARK  5 active torsions:
REMARK  status: ('A' for Active; 'I' for Inactive)
REMARK    1  A    between atoms: C_4  and  C_5
REMARK    2  A    between atoms: C_6  and  C_7
REMARK    3  A    between atoms: C_10  and  N_11
REMARK    4  A    between atoms: C_26  and  C_27
REMARK    5  A    between atoms: C_27  and  N_28
REMARK                            x       y       z     vdW  Elec       q    Type
REMARK                         _______ _______ _______ _____ _____    ______ ____
ROOT
ATOM      1  C   UNL     1       0.727   8.831  21.329  0.00  0.00    +0.000 A 
ATOM      2  C   UNL     1       0.342   9.017  22.658  0.00  0.00    +0.000 A 
ATOM      3  C   UNL     1      -0.425  10.127  23.029  0.00  0.00    +0.000 A 
ATOM      4  C   UNL     1      -0.825  11.092  22.096  0.00  0.00    +0.000 A 
ATOM      5  C   UNL     1      -0.466  10.874  20.761  0.00  0.00    +0.000 A 
ATOM      6  C   UNL     1       0.314   9.774  20.382  0.00  0.00    +0.000 A 
ENDROOT
BRANCH   4   7
ATOM      7  N   UNL     1      -1.452  12.256  22.476  0.00  0.00    +0.000 N 
ATOM      8  C   UNL     1      -2.912  12.393  22.378  0.00  0.00    +0.000 C 
ATOM      9  C   UNL     1      -3.434  13.084  23.651  0.00  0.00    +0.000 C 
ATOM     10  N   UNL     1      -2.773  14.384  23.826  0.00  0.00    +0.000 N 
ATOM     11  C   UNL     1      -3.459  15.567  23.784  0.00  0.00    +0.000 C 
ATOM     12  N   UNL     1      -2.942  16.689  23.439  0.00  0.00    +0.000 NA
ATOM     13  C   UNL     1      -3.762  17.893  23.385  0.00  0.00    +0.000 C 
ATOM     14  C   UNL     1      -5.242  17.588  23.319  0.00  0.00    +0.000 C 
ATOM     15  C   UNL     1      -5.536  16.576  24.393  0.00  0.00    +0.000 C 
ATOM     16  O   UNL     1      -4.755  15.405  24.162  0.00  0.00    +0.000 OA
ATOM     17  C   UNL     1      -1.302  14.323  23.846  0.00  0.00    +0.000 C 
ATOM     18  C   UNL     1      -0.729  13.529  22.647  0.00  0.00    +0.000 C 
ENDBRANCH   4   7
BRANCH   1  20
ATOM     19  C   UNL     1       1.178   6.583  20.365  0.00  0.00    +0.000 C 
ATOM     20  C   UNL     1       1.594   7.688  21.004  0.00  0.00    +0.000 C 
BRANCH  19  24
ATOM     21  F   UNL     1       3.019   2.349  21.764  0.00  0.00    +0.000 F 
ATOM     22  C   UNL     1       2.952   3.316  20.840  0.00  0.00    +0.000 A 
ATOM     23  C   UNL     1       2.099   4.395  21.042  0.00  0.00    +0.000 A 
ATOM     24  C   UNL     1       2.024   5.414  20.088  0.00  0.00    +0.000 A 
ATOM     25  C   UNL     1       2.830   5.326  18.941  0.00  0.00    +0.000 A 
ATOM     26  C   UNL     1       3.696   4.238  18.736  0.00  0.00    +0.000 A 
ATOM     27  C   UNL     1       3.747   3.227  19.703  0.00  0.00    +0.000 A 
BRANCH  26  28
ATOM     28  C   UNL     1       4.530   4.155  17.483  0.00  0.00    +0.000 C 
BRANCH  28  29
ATOM     29  N   UNL     1       5.562   5.175  17.476  0.00  0.00    +0.000 N 
ATOM     30  C   UNL     1       6.621   5.269  18.337  0.00  0.00    +0.000 A 
ATOM     31  C   UNL     1       7.296   6.401  17.943  0.00  0.00    +0.000 A 
ATOM     32  N   UNL     1       6.699   6.968  16.847  0.00  0.00    +0.000 NA
ATOM     33  C   UNL     1       5.662   6.205  16.585  0.00  0.00    +0.000 A 
ENDBRANCH  28  29
ENDBRANCH  26  28
ENDBRANCH  19  24
ENDBRANCH   1  20
TORSDOF 5
ENDMDL
