MODEL 1
REMARK VINA RESULT:      -6.6      0.000      0.000
REMARK  Name = 
REMARK  18 active torsions:
REMARK  status: ('A' for Active; 'I' for Inactive)
REMARK    1  A    between atoms: C_1  and  C_2
REMARK    2  A    between atoms: C_2  and  C_3
REMARK    3  A    between atoms: C_3  and  C_4
REMARK    4  A    between atoms: C_4  and  C_5
REMARK    5  A    between atoms: C_5  and  C_6
REMARK    6  A    between atoms: C_7  and  C_8
REMARK    7  A    between atoms: C_8  and  C_9
REMARK    8  A    between atoms: C_10  and  C_11
REMARK    9  A    between atoms: C_11  and  C_12
REMARK   10  A    between atoms: C_12  and  C_13
REMARK   11  A    between atoms: C_13  and  C_14
REMARK   12  A    between atoms: C_14  and  C_15
REMARK   13  A    between atoms: C_15  and  C_16
REMARK   14  A    between atoms: C_16  and  C_17
REMARK   15  A    between atoms: C_17  and  C_18
REMARK   16  A    between atoms: N_20  and  C_21
REMARK   17  A    between atoms: C_22  and  C_23
REMARK   18  A    between atoms: C_27  and  C_28
REMARK                            x       y       z     vdW  Elec       q    Type
REMARK                         _______ _______ _______ _____ _____    ______ ____
ROOT
ATOM      1  C   UNL     1       2.448   7.248  19.871  0.00  0.00    +0.000 C 
ENDROOT
BRANCH   1   2
ATOM      2  C   UNL     1       1.474   6.376  20.663  0.00  0.00    +0.000 C 
BRANCH   2   3
ATOM      3  C   UNL     1       1.930   4.922  20.779  0.00  0.00    +0.000 C 
BRANCH   3   4
ATOM      4  C   UNL     1       0.908   3.936  20.190  0.00  0.00    +0.000 C 
BRANCH   4   5
ATOM      5  C   UNL     1       1.268   3.544  18.758  0.00  0.00    +0.000 C 
BRANCH   5   7
ATOM      6  C   UNL     1       3.046   1.899  18.177  0.00  0.00    +0.000 C 
ATOM      7  C   UNL     1       1.790   2.146  18.595  0.00  0.00    +0.000 C 
BRANCH   6   8
ATOM      8  C   UNL     1       4.042   2.983  17.866  0.00  0.00    +0.000 C 
BRANCH   8  10
ATOM      9  C   UNL     1       5.521   4.610  19.098  0.00  0.00    +0.000 C 
ATOM     10  C   UNL     1       4.605   3.627  19.099  0.00  0.00    +0.000 C 
BRANCH   9  11
ATOM     11  C   UNL     1       6.130   5.169  17.844  0.00  0.00    +0.000 C 
BRANCH  11  12
ATOM     12  C   UNL     1       5.359   6.356  17.273  0.00  0.00    +0.000 C 
BRANCH  12  13
ATOM     13  C   UNL     1       5.349   6.286  15.744  0.00  0.00    +0.000 C 
BRANCH  13  15
ATOM     14  C   UNL     1       6.686   4.778  14.244  0.00  0.00    +0.000 C 
ATOM     15  C   UNL     1       5.547   4.858  15.248  0.00  0.00    +0.000 C 
ENDBRANCH  13  15
ENDBRANCH  12  13
ENDBRANCH  11  12
ENDBRANCH   9  11
ENDBRANCH   8  10
ENDBRANCH   6   8
ENDBRANCH   5   7
ENDBRANCH   4   5
ENDBRANCH   3   4
ENDBRANCH   2   3
ENDBRANCH   1   2
BRANCH   1  16
ATOM     16  C   UNL     1       1.954   7.357  18.432  0.00  0.00    +0.000 C 
BRANCH  16  17
ATOM     17  C   UNL     1       2.471   8.593  17.704  0.00  0.00    +0.000 C 
BRANCH  17  18
ATOM     18  C   UNL     1       1.628   9.803  18.078  0.00  0.00    +0.000 C 
ATOM     19  O   UNL     1       2.028  10.950  17.917  0.00  0.00    +0.000 OA
ATOM     20  N   UNL     1       0.402   9.452  18.623  0.00  0.00    +0.000 N 
ATOM     21  H   UNL     1       0.401   8.580  19.132  0.00  0.00    +0.000 HD
BRANCH  20  22
ATOM     22  C   UNL     1      -0.513  10.444  19.055  0.00  0.00    +0.000 A 
ATOM     23  C   UNL     1      -0.339  11.124  20.281  0.00  0.00    +0.000 A 
ATOM     24  C   UNL     1       0.876  10.978  21.161  0.00  0.00    +0.000 C 
ATOM     25  C   UNL     1      -1.333  12.016  20.713  0.00  0.00    +0.000 A 
ATOM     26  C   UNL     1      -2.455  12.268  19.928  0.00  0.00    +0.000 A 
ATOM     27  C   UNL     1      -2.588  11.649  18.689  0.00  0.00    +0.000 A 
ATOM     28  C   UNL     1      -1.620  10.742  18.231  0.00  0.00    +0.000 A 
ATOM     29  C   UNL     1      -1.843  10.061  16.908  0.00  0.00    +0.000 C 
ENDBRANCH  20  22
ENDBRANCH  17  18
ENDBRANCH  16  17
ENDBRANCH   1  16
TORSDOF 15
ENDMDL
MODEL 2
REMARK VINA RESULT:      -6.4      1.556      4.449
REMARK  Name = 
REMARK  18 active torsions:
REMARK  status: ('A' for Active; 'I' for Inactive)
REMARK    1  A    between atoms: C_1  and  C_2
REMARK    2  A    between atoms: C_2  and  C_3
REMARK    3  A    between atoms: C_3  and  C_4
REMARK    4  A    between atoms: C_4  and  C_5
REMARK    5  A    between atoms: C_5  and  C_6
REMARK    6  A    between atoms: C_7  and  C_8
REMARK    7  A    between atoms: C_8  and  C_9
REMARK    8  A    between atoms: C_10  and  C_11
REMARK    9  A    between atoms: C_11  and  C_12
REMARK   10  A    between atoms: C_12  and  C_13
REMARK   11  A    between atoms: C_13  and  C_14
REMARK   12  A    between atoms: C_14  and  C_15
REMARK   13  A    between atoms: C_15  and  C_16
REMARK   14  A    between atoms: C_16  and  C_17
REMARK   15  A    between atoms: C_17  and  C_18
REMARK   16  A    between atoms: N_20  and  C_21
REMARK   17  A    between atoms: C_22  and  C_23
REMARK   18  A    between atoms: C_27  and  C_28
REMARK                            x       y       z     vdW  Elec       q    Type
REMARK                         _______ _______ _______ _____ _____    ______ ____
ROOT
ATOM      1  C   UNL     1       1.925   9.256  17.934  0.00  0.00    +0.000 C 
ENDROOT
BRANCH   1   2
ATOM      2  C   UNL     1       1.830   7.753  18.193  0.00  0.00    +0.000 C 
BRANCH   2   3
ATOM      3  C   UNL     1       3.193   7.093  18.398  0.00  0.00    +0.000 C 
BRANCH   3   4
ATOM      4  C   UNL     1       4.216   7.510  17.328  0.00  0.00    +0.000 C 
BRANCH   4   5
ATOM      5  C   UNL     1       5.326   6.472  17.180  0.00  0.00    +0.000 C 
BRANCH   5   7
ATOM      6  C   UNL     1       4.618   4.198  16.449  0.00  0.00    +0.000 C 
ATOM      7  C   UNL     1       5.079   5.422  16.134  0.00  0.00    +0.000 C 
BRANCH   6   8
ATOM      8  C   UNL     1       4.284   3.776  17.855  0.00  0.00    +0.000 C 
BRANCH   8  10
ATOM      9  C   UNL     1       2.279   2.262  18.049  0.00  0.00    +0.000 C 
ATOM     10  C   UNL     1       3.604   2.440  17.915  0.00  0.00    +0.000 C 
BRANCH   9  11
ATOM     11  C   UNL     1       1.304   3.395  18.194  0.00  0.00    +0.000 C 
BRANCH  11  12
ATOM     12  C   UNL     1       0.695   3.496  19.590  0.00  0.00    +0.000 C 
BRANCH  12  13
ATOM     13  C   UNL     1       1.392   4.601  20.386  0.00  0.00    +0.000 C 
BRANCH  13  15
ATOM     14  C   UNL     1       1.992   2.578  21.750  0.00  0.00    +0.000 C 
ATOM     15  C   UNL     1       2.338   4.024  21.434  0.00  0.00    +0.000 C 
ENDBRANCH  13  15
ENDBRANCH  12  13
ENDBRANCH  11  12
ENDBRANCH   9  11
ENDBRANCH   8  10
ENDBRANCH   6   8
ENDBRANCH   5   7
ENDBRANCH   4   5
ENDBRANCH   3   4
ENDBRANCH   2   3
ENDBRANCH   1   2
BRANCH   1  16
ATOM     16  C   UNL     1       1.121   9.992  19.002  0.00  0.00    +0.000 C 
BRANCH  16  17
ATOM     17  C   UNL     1       1.123  11.506  18.827  0.00  0.00    +0.000 C 
BRANCH  17  18
ATOM     18  C   UNL     1      -0.281  11.990  18.495  0.00  0.00    +0.000 C 
ATOM     19  O   UNL     1      -0.493  13.101  18.023  0.00  0.00    +0.000 OA
ATOM     20  N   UNL     1      -1.256  11.053  18.805  0.00  0.00    +0.000 N 
ATOM     21  H   UNL     1      -1.030  10.452  19.585  0.00  0.00    +0.000 HD
BRANCH  20  22
ATOM     22  C   UNL     1      -2.628  11.332  18.589  0.00  0.00    +0.000 A 
ATOM     23  C   UNL     1      -3.300  10.877  17.433  0.00  0.00    +0.000 A 
ATOM     24  C   UNL     1      -2.689   9.955  16.410  0.00  0.00    +0.000 C 
ATOM     25  C   UNL     1      -4.629  11.276  17.215  0.00  0.00    +0.000 A 
ATOM     26  C   UNL     1      -5.297  12.068  18.145  0.00  0.00    +0.000 A 
ATOM     27  C   UNL     1      -4.654  12.454  19.317  0.00  0.00    +0.000 A 
ATOM     28  C   UNL     1      -3.322  12.085  19.562  0.00  0.00    +0.000 A 
ATOM     29  C   UNL     1      -2.659  12.576  20.820  0.00  0.00    +0.000 C 
ENDBRANCH  20  22
ENDBRANCH  17  18
ENDBRANCH  16  17
ENDBRANCH   1  16
TORSDOF 15
ENDMDL
MODEL 3
REMARK VINA RESULT:      -6.4      1.413      2.613
REMARK  Name = 
REMARK  18 active torsions:
REMARK  status: ('A' for Active; 'I' for Inactive)
REMARK    1  A    between atoms: C_1  and  C_2
REMARK    2  A    between atoms: C_2  and  C_3
REMARK    3  A    between atoms: C_3  and  C_4
REMARK    4  A    between atoms: C_4  and  C_5
REMARK    5  A    between atoms: C_5  and  C_6
REMARK    6  A    between atoms: C_7  and  C_8
REMARK    7  A    between atoms: C_8  and  C_9
REMARK    8  A    between atoms: C_10  and  C_11
REMARK    9  A    between atoms: C_11  and  C_12
REMARK   10  A    between atoms: C_12  and  C_13
REMARK   11  A    between atoms: C_13  and  C_14
REMARK   12  A    between atoms: C_14  and  C_15
REMARK   13  A    between atoms: C_15  and  C_16
REMARK   14  A    between atoms: C_16  and  C_17
REMARK   15  A    between atoms: C_17  and  C_18
REMARK   16  A    between atoms: N_20  and  C_21
REMARK   17  A    between atoms: C_22  and  C_23
REMARK   18  A    between atoms: C_27  and  C_28
REMARK                            x       y       z     vdW  Elec       q    Type
REMARK                         _______ _______ _______ _____ _____    ______ ____
ROOT
ATOM      1  C   UNL     1       2.447   7.138  19.007  0.00  0.00    +0.000 C 
ENDROOT
BRANCH   1   2
ATOM      2  C   UNL     1       1.983   5.937  18.185  0.00  0.00    +0.000 C 
BRANCH   2   3
ATOM      3  C   UNL     1       1.403   4.812  19.042  0.00  0.00    +0.000 C 
BRANCH   3   4
ATOM      4  C   UNL     1       1.370   5.169  20.537  0.00  0.00    +0.000 C 
BRANCH   4   5
ATOM      5  C   UNL     1       2.521   4.511  21.296  0.00  0.00    +0.000 C 
BRANCH   5   7
ATOM      6  C   UNL     1       3.109   2.133  20.845  0.00  0.00    +0.000 C 
ATOM      7  C   UNL     1       2.372   3.034  21.519  0.00  0.00    +0.000 C 
BRANCH   6   8
ATOM      8  C   UNL     1       4.160   2.513  19.836  0.00  0.00    +0.000 C 
BRANCH   8  10
ATOM      9  C   UNL     1       4.083   3.012  17.367  0.00  0.00    +0.000 C 
ATOM     10  C   UNL     1       3.727   2.260  18.421  0.00  0.00    +0.000 C 
BRANCH   9  11
ATOM     11  C   UNL     1       4.943   4.238  17.480  0.00  0.00    +0.000 C 
BRANCH  11  12
ATOM     12  C   UNL     1       5.046   5.029  16.178  0.00  0.00    +0.000 C 
BRANCH  12  13
ATOM     13  C   UNL     1       5.598   6.428  16.458  0.00  0.00    +0.000 C 
BRANCH  13  15
ATOM     14  C   UNL     1       7.576   7.501  17.575  0.00  0.00    +0.000 C 
ATOM     15  C   UNL     1       6.494   6.440  17.693  0.00  0.00    +0.000 C 
ENDBRANCH  13  15
ENDBRANCH  12  13
ENDBRANCH  11  12
ENDBRANCH   9  11
ENDBRANCH   8  10
ENDBRANCH   6   8
ENDBRANCH   5   7
ENDBRANCH   4   5
ENDBRANCH   3   4
ENDBRANCH   2   3
ENDBRANCH   1   2
BRANCH   1  16
ATOM     16  C   UNL     1       2.754   8.295  18.060  0.00  0.00    +0.000 C 
BRANCH  16  17
ATOM     17  C   UNL     1       1.514   9.072  17.631  0.00  0.00    +0.000 C 
BRANCH  17  18
ATOM     18  C   UNL     1       1.111  10.048  18.727  0.00  0.00    +0.000 C 
ATOM     19  O   UNL     1       1.747  11.070  18.956  0.00  0.00    +0.000 OA
ATOM     20  N   UNL     1      -0.016   9.633  19.422  0.00  0.00    +0.000 N 
ATOM     21  H   UNL     1      -0.130   8.632  19.482  0.00  0.00    +0.000 HD
BRANCH  20  22
ATOM     22  C   UNL     1      -0.530  10.400  20.498  0.00  0.00    +0.000 A 
ATOM     23  C   UNL     1      -1.299  11.564  20.272  0.00  0.00    +0.000 A 
ATOM     24  C   UNL     1      -1.762  12.017  18.912  0.00  0.00    +0.000 C 
ATOM     25  C   UNL     1      -1.688  12.347  21.370  0.00  0.00    +0.000 A 
ATOM     26  C   UNL     1      -1.367  11.963  22.669  0.00  0.00    +0.000 A 
ATOM     27  C   UNL     1      -0.670  10.779  22.891  0.00  0.00    +0.000 A 
ATOM     28  C   UNL     1      -0.254   9.978  21.817  0.00  0.00    +0.000 A 
ATOM     29  C   UNL     1       0.543   8.737  22.112  0.00  0.00    +0.000 C 
ENDBRANCH  20  22
ENDBRANCH  17  18
ENDBRANCH  16  17
ENDBRANCH   1  16
TORSDOF 15
ENDMDL
MODEL 4
REMARK VINA RESULT:      -6.2      1.123      1.890
REMARK  Name = 
REMARK  18 active torsions:
REMARK  status: ('A' for Active; 'I' for Inactive)
REMARK    1  A    between atoms: C_1  and  C_2
REMARK    2  A    between atoms: C_2  and  C_3
REMARK    3  A    between atoms: C_3  and  C_4
REMARK    4  A    between atoms: C_4  and  C_5
REMARK    5  A    between atoms: C_5  and  C_6
REMARK    6  A    between atoms: C_7  and  C_8
REMARK    7  A    between atoms: C_8  and  C_9
REMARK    8  A    between atoms: C_10  and  C_11
REMARK    9  A    between atoms: C_11  and  C_12
REMARK   10  A    between atoms: C_12  and  C_13
REMARK   11  A    between atoms: C_13  and  C_14
REMARK   12  A    between atoms: C_14  and  C_15
REMARK   13  A    between atoms: C_15  and  C_16
REMARK   14  A    between atoms: C_16  and  C_17
REMARK   15  A    between atoms: C_17  and  C_18
REMARK   16  A    between atoms: N_20  and  C_21
REMARK   17  A    between atoms: C_22  and  C_23
REMARK   18  A    between atoms: C_27  and  C_28
REMARK                            x       y       z     vdW  Elec       q    Type
REMARK                         _______ _______ _______ _____ _____    ______ ____
ROOT
ATOM      1  C   UNL     1       2.165   6.100  19.054  0.00  0.00    +0.000 C 
ENDROOT
BRANCH   1   2
ATOM      2  C   UNL     1       3.022   5.369  20.087  0.00  0.00    +0.000 C 
BRANCH   2   3
ATOM      3  C   UNL     1       2.198   4.529  21.063  0.00  0.00    +0.000 C 
BRANCH   3   4
ATOM      4  C   UNL     1       2.594   3.043  21.039  0.00  0.00    +0.000 C 
BRANCH   4   5
ATOM      5  C   UNL     1       3.659   2.764  19.979  0.00  0.00    +0.000 C 
BRANCH   5   7
ATOM      6  C   UNL     1       3.098   2.100  17.645  0.00  0.00    +0.000 C 
ATOM      7  C   UNL     1       3.268   1.758  18.936  0.00  0.00    +0.000 C 
BRANCH   6   8
ATOM      8  C   UNL     1       3.309   3.497  17.125  0.00  0.00    +0.000 C 
BRANCH   8  10
ATOM      9  C   UNL     1       5.218   4.774  16.087  0.00  0.00    +0.000 C 
ATOM     10  C   UNL     1       4.552   3.626  16.293  0.00  0.00    +0.000 C 
BRANCH   9  11
ATOM     11  C   UNL     1       4.773   6.097  16.643  0.00  0.00    +0.000 C 
BRANCH  11  12
ATOM     12  C   UNL     1       5.919   7.086  16.844  0.00  0.00    +0.000 C 
BRANCH  12  13
ATOM     13  C   UNL     1       7.117   6.376  17.476  0.00  0.00    +0.000 C 
BRANCH  13  15
ATOM     14  C   UNL     1       8.052   5.555  19.658  0.00  0.00    +0.000 C 
ATOM     15  C   UNL     1       6.787   5.852  18.870  0.00  0.00    +0.000 C 
ENDBRANCH  13  15
ENDBRANCH  12  13
ENDBRANCH  11  12
ENDBRANCH   9  11
ENDBRANCH   8  10
ENDBRANCH   6   8
ENDBRANCH   5   7
ENDBRANCH   4   5
ENDBRANCH   3   4
ENDBRANCH   2   3
ENDBRANCH   1   2
BRANCH   1  16
ATOM     16  C   UNL     1       2.445   7.597  19.152  0.00  0.00    +0.000 C 
BRANCH  16  17
ATOM     17  C   UNL     1       2.161   8.352  17.859  0.00  0.00    +0.000 C 
BRANCH  17  18
ATOM     18  C   UNL     1       1.380   9.623  18.164  0.00  0.00    +0.000 C 
ATOM     19  O   UNL     1       1.846  10.738  17.961  0.00  0.00    +0.000 OA
ATOM     20  N   UNL     1       0.127   9.364  18.700  0.00  0.00    +0.000 N 
ATOM     21  H   UNL     1       0.069   8.516  19.245  0.00  0.00    +0.000 HD
BRANCH  20  22
ATOM     22  C   UNL     1      -0.739  10.423  19.071  0.00  0.00    +0.000 A 
ATOM     23  C   UNL     1      -0.604  11.084  20.312  0.00  0.00    +0.000 A 
ATOM     24  C   UNL     1       0.526  10.842  21.278  0.00  0.00    +0.000 C 
ATOM     25  C   UNL     1      -1.557  12.049  20.676  0.00  0.00    +0.000 A 
ATOM     26  C   UNL     1      -2.593  12.390  19.812  0.00  0.00    +0.000 A 
ATOM     27  C   UNL     1      -2.681  11.786  18.561  0.00  0.00    +0.000 A 
ATOM     28  C   UNL     1      -1.755  10.808  18.169  0.00  0.00    +0.000 A 
ATOM     29  C   UNL     1      -1.929  10.150  16.827  0.00  0.00    +0.000 C 
ENDBRANCH  20  22
ENDBRANCH  17  18
ENDBRANCH  16  17
ENDBRANCH   1  16
TORSDOF 15
ENDMDL
MODEL 5
REMARK VINA RESULT:      -6.1      1.336      4.183
REMARK  Name = 
REMARK  18 active torsions:
REMARK  status: ('A' for Active; 'I' for Inactive)
REMARK    1  A    between atoms: C_1  and  C_2
REMARK    2  A    between atoms: C_2  and  C_3
REMARK    3  A    between atoms: C_3  and  C_4
REMARK    4  A    between atoms: C_4  and  C_5
REMARK    5  A    between atoms: C_5  and  C_6
REMARK    6  A    between atoms: C_7  and  C_8
REMARK    7  A    between atoms: C_8  and  C_9
REMARK    8  A    between atoms: C_10  and  C_11
REMARK    9  A    between atoms: C_11  and  C_12
REMARK   10  A    between atoms: C_12  and  C_13
REMARK   11  A    between atoms: C_13  and  C_14
REMARK   12  A    between atoms: C_14  and  C_15
REMARK   13  A    between atoms: C_15  and  C_16
REMARK   14  A    between atoms: C_16  and  C_17
REMARK   15  A    between atoms: C_17  and  C_18
REMARK   16  A    between atoms: N_20  and  C_21
REMARK   17  A    between atoms: C_22  and  C_23
REMARK   18  A    between atoms: C_27  and  C_28
REMARK                            x       y       z     vdW  Elec       q    Type
REMARK                         _______ _______ _______ _____ _____    ______ ____
ROOT
ATOM      1  C   UNL     1       3.745   7.760  17.895  0.00  0.00    +0.000 C 
ENDROOT
BRANCH   1   2
ATOM      2  C   UNL     1       3.659   6.839  16.678  0.00  0.00    +0.000 C 
BRANCH   2   3
ATOM      3  C   UNL     1       4.892   6.919  15.778  0.00  0.00    +0.000 C 
BRANCH   3   4
ATOM      4  C   UNL     1       5.510   5.537  15.504  0.00  0.00    +0.000 C 
BRANCH   4   5
ATOM      5  C   UNL     1       6.978   5.486  15.925  0.00  0.00    +0.000 C 
BRANCH   5   7
ATOM      6  C   UNL     1       7.111   6.070  18.343  0.00  0.00    +0.000 C 
ATOM      7  C   UNL     1       7.345   6.399  17.059  0.00  0.00    +0.000 C 
BRANCH   6   8
ATOM      8  C   UNL     1       6.494   4.763  18.762  0.00  0.00    +0.000 C 
BRANCH   8  10
ATOM      9  C   UNL     1       4.071   4.348  19.315  0.00  0.00    +0.000 C 
ATOM     10  C   UNL     1       5.246   4.944  19.576  0.00  0.00    +0.000 C 
BRANCH   9  11
ATOM     11  C   UNL     1       3.848   3.443  18.137  0.00  0.00    +0.000 C 
BRANCH  11  12
ATOM     12  C   UNL     1       2.373   3.243  17.797  0.00  0.00    +0.000 C 
BRANCH  12  13
ATOM     13  C   UNL     1       1.730   2.283  18.800  0.00  0.00    +0.000 C 
BRANCH  13  15
ATOM     14  C   UNL     1       1.271   2.814  21.213  0.00  0.00    +0.000 C 
ATOM     15  C   UNL     1       0.818   3.019  19.776  0.00  0.00    +0.000 C 
ENDBRANCH  13  15
ENDBRANCH  12  13
ENDBRANCH  11  12
ENDBRANCH   9  11
ENDBRANCH   8  10
ENDBRANCH   6   8
ENDBRANCH   5   7
ENDBRANCH   4   5
ENDBRANCH   3   4
ENDBRANCH   2   3
ENDBRANCH   1   2
BRANCH   1  16
ATOM     16  C   UNL     1       2.341   7.966  18.456  0.00  0.00    +0.000 C 
BRANCH  16  17
ATOM     17  C   UNL     1       1.564   9.076  17.757  0.00  0.00    +0.000 C 
BRANCH  17  18
ATOM     18  C   UNL     1       1.128  10.121  18.773  0.00  0.00    +0.000 C 
ATOM     19  O   UNL     1       1.762  11.153  18.960  0.00  0.00    +0.000 OA
ATOM     20  N   UNL     1      -0.027   9.757  19.451  0.00  0.00    +0.000 N 
ATOM     21  H   UNL     1      -0.150   8.762  19.570  0.00  0.00    +0.000 HD
BRANCH  20  22
ATOM     22  C   UNL     1      -0.575  10.593  20.456  0.00  0.00    +0.000 A 
ATOM     23  C   UNL     1      -0.274  10.398  21.822  0.00  0.00    +0.000 A 
ATOM     24  C   UNL     1       0.741   9.407  22.329  0.00  0.00    +0.000 C 
ATOM     25  C   UNL     1      -0.931  11.183  22.783  0.00  0.00    +0.000 A 
ATOM     26  C   UNL     1      -1.830  12.174  22.400  0.00  0.00    +0.000 A 
ATOM     27  C   UNL     1      -2.071  12.410  21.050  0.00  0.00    +0.000 A 
ATOM     28  C   UNL     1      -1.442  11.637  20.063  0.00  0.00    +0.000 A 
ATOM     29  C   UNL     1      -1.779  11.900  18.620  0.00  0.00    +0.000 C 
ENDBRANCH  20  22
ENDBRANCH  17  18
ENDBRANCH  16  17
ENDBRANCH   1  16
TORSDOF 15
ENDMDL
MODEL 6
REMARK VINA RESULT:      -6.1      1.702      2.705
REMARK  Name = 
REMARK  18 active torsions:
REMARK  status: ('A' for Active; 'I' for Inactive)
REMARK    1  A    between atoms: C_1  and  C_2
REMARK    2  A    between atoms: C_2  and  C_3
REMARK    3  A    between atoms: C_3  and  C_4
REMARK    4  A    between atoms: C_4  and  C_5
REMARK    5  A    between atoms: C_5  and  C_6
REMARK    6  A    between atoms: C_7  and  C_8
REMARK    7  A    between atoms: C_8  and  C_9
REMARK    8  A    between atoms: C_10  and  C_11
REMARK    9  A    between atoms: C_11  and  C_12
REMARK   10  A    between atoms: C_12  and  C_13
REMARK   11  A    between atoms: C_13  and  C_14
REMARK   12  A    between atoms: C_14  and  C_15
REMARK   13  A    between atoms: C_15  and  C_16
REMARK   14  A    between atoms: C_16  and  C_17
REMARK   15  A    between atoms: C_17  and  C_18
REMARK   16  A    between atoms: N_20  and  C_21
REMARK   17  A    between atoms: C_22  and  C_23
REMARK   18  A    between atoms: C_27  and  C_28
REMARK                            x       y       z     vdW  Elec       q    Type
REMARK                         _______ _______ _______ _____ _____    ______ ____
ROOT
ATOM      1  C   UNL     1       3.069   7.648  18.115  0.00  0.00    +0.000 C 
ENDROOT
BRANCH   1   2
ATOM      2  C   UNL     1       2.469   7.016  19.372  0.00  0.00    +0.000 C 
BRANCH   2   3
ATOM      3  C   UNL     1       3.187   5.737  19.800  0.00  0.00    +0.000 C 
BRANCH   3   4
ATOM      4  C   UNL     1       2.348   4.888  20.770  0.00  0.00    +0.000 C 
BRANCH   4   5
ATOM      5  C   UNL     1       1.027   4.455  20.136  0.00  0.00    +0.000 C 
BRANCH   5   7
ATOM      6  C   UNL     1       1.112   2.132  19.239  0.00  0.00    +0.000 C 
ATOM      7  C   UNL     1       0.740   2.983  20.213  0.00  0.00    +0.000 C 
BRANCH   6   8
ATOM      8  C   UNL     1       1.866   2.562  18.009  0.00  0.00    +0.000 C 
BRANCH   8  10
ATOM      9  C   UNL     1       4.316   2.942  17.557  0.00  0.00    +0.000 C 
ATOM     10  C   UNL     1       3.321   2.195  18.061  0.00  0.00    +0.000 C 
BRANCH   9  11
ATOM     11  C   UNL     1       4.090   4.239  16.834  0.00  0.00    +0.000 C 
BRANCH  11  12
ATOM     12  C   UNL     1       5.318   4.730  16.072  0.00  0.00    +0.000 C 
BRANCH  12  13
ATOM     13  C   UNL     1       5.728   6.115  16.576  0.00  0.00    +0.000 C 
BRANCH  13  15
ATOM     14  C   UNL     1       7.595   4.649  17.397  0.00  0.00    +0.000 C 
ATOM     15  C   UNL     1       7.040   6.064  17.352  0.00  0.00    +0.000 C 
ENDBRANCH  13  15
ENDBRANCH  12  13
ENDBRANCH  11  12
ENDBRANCH   9  11
ENDBRANCH   8  10
ENDBRANCH   6   8
ENDBRANCH   5   7
ENDBRANCH   4   5
ENDBRANCH   3   4
ENDBRANCH   2   3
ENDBRANCH   1   2
BRANCH   1  16
ATOM     16  C   UNL     1       2.332   8.951  17.819  0.00  0.00    +0.000 C 
BRANCH  16  17
ATOM     17  C   UNL     1       0.828   8.864  18.059  0.00  0.00    +0.000 C 
BRANCH  17  18
ATOM     18  C   UNL     1       0.315  10.187  18.608  0.00  0.00    +0.000 C 
ATOM     19  O   UNL     1      -0.722  10.701  18.205  0.00  0.00    +0.000 OA
ATOM     20  N   UNL     1       1.154  10.726  19.572  0.00  0.00    +0.000 N 
ATOM     21  H   UNL     1       2.131  10.499  19.456  0.00  0.00    +0.000 HD
BRANCH  20  22
ATOM     22  C   UNL     1       0.855  11.969  20.184  0.00  0.00    +0.000 A 
ATOM     23  C   UNL     1       1.365  13.183  19.673  0.00  0.00    +0.000 A 
ATOM     24  C   UNL     1       2.135  13.298  18.383  0.00  0.00    +0.000 C 
ATOM     25  C   UNL     1       1.130  14.373  20.382  0.00  0.00    +0.000 A 
ATOM     26  C   UNL     1       0.366  14.371  21.545  0.00  0.00    +0.000 A 
ATOM     27  C   UNL     1      -0.194  13.183  22.006  0.00  0.00    +0.000 A 
ATOM     28  C   UNL     1       0.030  11.974  21.330  0.00  0.00    +0.000 A 
ATOM     29  C   UNL     1      -0.554  10.711  21.903  0.00  0.00    +0.000 C 
ENDBRANCH  20  22
ENDBRANCH  17  18
ENDBRANCH  16  17
ENDBRANCH   1  16
TORSDOF 15
ENDMDL
MODEL 7
REMARK VINA RESULT:      -6.1      1.914      3.074
REMARK  Name = 
REMARK  18 active torsions:
REMARK  status: ('A' for Active; 'I' for Inactive)
REMARK    1  A    between atoms: C_1  and  C_2
REMARK    2  A    between atoms: C_2  and  C_3
REMARK    3  A    between atoms: C_3  and  C_4
REMARK    4  A    between atoms: C_4  and  C_5
REMARK    5  A    between atoms: C_5  and  C_6
REMARK    6  A    between atoms: C_7  and  C_8
REMARK    7  A    between atoms: C_8  and  C_9
REMARK    8  A    between atoms: C_10  and  C_11
REMARK    9  A    between atoms: C_11  and  C_12
REMARK   10  A    between atoms: C_12  and  C_13
REMARK   11  A    between atoms: C_13  and  C_14
REMARK   12  A    between atoms: C_14  and  C_15
REMARK   13  A    between atoms: C_15  and  C_16
REMARK   14  A    between atoms: C_16  and  C_17
REMARK   15  A    between atoms: C_17  and  C_18
REMARK   16  A    between atoms: N_20  and  C_21
REMARK   17  A    between atoms: C_22  and  C_23
REMARK   18  A    between atoms: C_27  and  C_28
REMARK                            x       y       z     vdW  Elec       q    Type
REMARK                         _______ _______ _______ _____ _____    ______ ____
ROOT
ATOM      1  C   UNL     1       1.856   7.881  19.410  0.00  0.00    +0.000 C 
ENDROOT
BRANCH   1   2
ATOM      2  C   UNL     1       2.548   6.583  19.826  0.00  0.00    +0.000 C 
BRANCH   2   3
ATOM      3  C   UNL     1       1.602   5.590  20.503  0.00  0.00    +0.000 C 
BRANCH   3   4
ATOM      4  C   UNL     1       2.355   4.482  21.257  0.00  0.00    +0.000 C 
BRANCH   4   5
ATOM      5  C   UNL     1       1.764   3.104  20.964  0.00  0.00    +0.000 C 
BRANCH   5   7
ATOM      6  C   UNL     1       0.739   2.786  18.716  0.00  0.00    +0.000 C 
ATOM      7  C   UNL     1       0.599   3.101  20.017  0.00  0.00    +0.000 C 
BRANCH   6   8
ATOM      8  C   UNL     1       2.052   2.384  18.099  0.00  0.00    +0.000 C 
BRANCH   8  10
ATOM      9  C   UNL     1       3.824   4.055  17.453  0.00  0.00    +0.000 C 
ATOM     10  C   UNL     1       2.641   3.459  17.233  0.00  0.00    +0.000 C 
BRANCH   9  11
ATOM     11  C   UNL     1       4.701   3.740  18.631  0.00  0.00    +0.000 C 
BRANCH  11  12
ATOM     12  C   UNL     1       5.647   4.878  19.005  0.00  0.00    +0.000 C 
BRANCH  12  13
ATOM     13  C   UNL     1       5.987   5.704  17.764  0.00  0.00    +0.000 C 
BRANCH  13  15
ATOM     14  C   UNL     1       7.018   4.769  15.672  0.00  0.00    +0.000 C 
ATOM     15  C   UNL     1       7.273   5.218  17.102  0.00  0.00    +0.000 C 
ENDBRANCH  13  15
ENDBRANCH  12  13
ENDBRANCH  11  12
ENDBRANCH   9  11
ENDBRANCH   8  10
ENDBRANCH   6   8
ENDBRANCH   5   7
ENDBRANCH   4   5
ENDBRANCH   3   4
ENDBRANCH   2   3
ENDBRANCH   1   2
BRANCH   1  16
ATOM     16  C   UNL     1       1.322   8.577  20.659  0.00  0.00    +0.000 C 
BRANCH  16  17
ATOM     17  C   UNL     1      -0.033   9.243  20.449  0.00  0.00    +0.000 C 
BRANCH  17  18
ATOM     18  C   UNL     1       0.024  10.690  20.920  0.00  0.00    +0.000 C 
ATOM     19  O   UNL     1       0.996  11.144  21.512  0.00  0.00    +0.000 OA
ATOM     20  N   UNL     1      -1.133  11.394  20.621  0.00  0.00    +0.000 N 
ATOM     21  H   UNL     1      -1.974  10.835  20.601  0.00  0.00    +0.000 HD
BRANCH  20  22
ATOM     22  C   UNL     1      -1.277  12.752  21.002  0.00  0.00    +0.000 A 
ATOM     23  C   UNL     1      -0.821  13.802  20.174  0.00  0.00    +0.000 A 
ATOM     24  C   UNL     1      -0.283  13.604  18.781  0.00  0.00    +0.000 C 
ATOM     25  C   UNL     1      -0.887  15.121  20.649  0.00  0.00    +0.000 A 
ATOM     26  C   UNL     1      -1.438  15.403  21.896  0.00  0.00    +0.000 A 
ATOM     27  C   UNL     1      -1.950  14.373  22.678  0.00  0.00    +0.000 A 
ATOM     28  C   UNL     1      -1.889  13.041  22.241  0.00  0.00    +0.000 A 
ATOM     29  C   UNL     1      -2.410  11.961  23.150  0.00  0.00    +0.000 C 
ENDBRANCH  20  22
ENDBRANCH  17  18
ENDBRANCH  16  17
ENDBRANCH   1  16
TORSDOF 15
ENDMDL
MODEL 8
REMARK VINA RESULT:      -6.1      6.790     10.171
REMARK  Name = 
REMARK  18 active torsions:
REMARK  status: ('A' for Active; 'I' for Inactive)
REMARK    1  A    between atoms: C_1  and  C_2
REMARK    2  A    between atoms: C_2  and  C_3
REMARK    3  A    between atoms: C_3  and  C_4
REMARK    4  A    between atoms: C_4  and  C_5
REMARK    5  A    between atoms: C_5  and  C_6
REMARK    6  A    between atoms: C_7  and  C_8
REMARK    7  A    between atoms: C_8  and  C_9
REMARK    8  A    between atoms: C_10  and  C_11
REMARK    9  A    between atoms: C_11  and  C_12
REMARK   10  A    between atoms: C_12  and  C_13
REMARK   11  A    between atoms: C_13  and  C_14
REMARK   12  A    between atoms: C_14  and  C_15
REMARK   13  A    between atoms: C_15  and  C_16
REMARK   14  A    between atoms: C_16  and  C_17
REMARK   15  A    between atoms: C_17  and  C_18
REMARK   16  A    between atoms: N_20  and  C_21
REMARK   17  A    between atoms: C_22  and  C_23
REMARK   18  A    between atoms: C_27  and  C_28
REMARK                            x       y       z     vdW  Elec       q    Type
REMARK                         _______ _______ _______ _____ _____    ______ ____
ROOT
ATOM      1  C   UNL     1       7.439   7.733  17.508  0.00  0.00    +0.000 C 
ENDROOT
BRANCH   1   2
ATOM      2  C   UNL     1       8.642   8.335  18.233  0.00  0.00    +0.000 C 
BRANCH   2   3
ATOM      3  C   UNL     1       8.553   9.854  18.382  0.00  0.00    +0.000 C 
BRANCH   3   4
ATOM      4  C   UNL     1       9.280  10.365  19.637  0.00  0.00    +0.000 C 
BRANCH   4   5
ATOM      5  C   UNL     1      10.340  11.408  19.285  0.00  0.00    +0.000 C 
BRANCH   5   7
ATOM      6  C   UNL     1      10.191  12.761  17.198  0.00  0.00    +0.000 C 
ATOM      7  C   UNL     1      10.556  11.621  17.814  0.00  0.00    +0.000 C 
BRANCH   6   8
ATOM      8  C   UNL     1       9.567  13.926  17.917  0.00  0.00    +0.000 C 
BRANCH   8  10
ATOM      9  C   UNL     1      11.352  15.524  18.700  0.00  0.00    +0.000 C 
ATOM     10  C   UNL     1      10.393  15.176  17.826  0.00  0.00    +0.000 C 
BRANCH   9  11
ATOM     11  C   UNL     1      11.697  14.710  19.914  0.00  0.00    +0.000 C 
BRANCH  11  12
ATOM     12  C   UNL     1      10.748  14.941  21.088  0.00  0.00    +0.000 C 
BRANCH  12  13
ATOM     13  C   UNL     1      10.957  16.344  21.661  0.00  0.00    +0.000 C 
BRANCH  13  15
ATOM     14  C   UNL     1      10.990  17.108  24.054  0.00  0.00    +0.000 C 
ATOM     15  C   UNL     1      10.131  16.561  22.925  0.00  0.00    +0.000 C 
ENDBRANCH  13  15
ENDBRANCH  12  13
ENDBRANCH  11  12
ENDBRANCH   9  11
ENDBRANCH   8  10
ENDBRANCH   6   8
ENDBRANCH   5   7
ENDBRANCH   4   5
ENDBRANCH   3   4
ENDBRANCH   2   3
ENDBRANCH   1   2
BRANCH   1  16
ATOM     16  C   UNL     1       7.188   6.330  18.053  0.00  0.00    +0.000 C 
BRANCH  16  17
ATOM     17  C   UNL     1       6.071   5.588  17.327  0.00  0.00    +0.000 C 
BRANCH  17  18
ATOM     18  C   UNL     1       5.197   4.855  18.334  0.00  0.00    +0.000 C 
ATOM     19  O   UNL     1       5.666   4.295  19.318  0.00  0.00    +0.000 OA
ATOM     20  N   UNL     1       3.853   4.883  17.994  0.00  0.00    +0.000 N 
ATOM     21  H   UNL     1       3.669   4.919  17.002  0.00  0.00    +0.000 HD
BRANCH  20  22
ATOM     22  C   UNL     1       2.885   4.232  18.800  0.00  0.00    +0.000 A 
ATOM     23  C   UNL     1       2.643   2.845  18.686  0.00  0.00    +0.000 A 
ATOM     24  C   UNL     1       3.462   1.914  17.829  0.00  0.00    +0.000 C 
ATOM     25  C   UNL     1       1.597   2.272  19.427  0.00  0.00    +0.000 A 
ATOM     26  C   UNL     1       0.836   3.044  20.300  0.00  0.00    +0.000 A 
ATOM     27  C   UNL     1       1.123   4.396  20.462  0.00  0.00    +0.000 A 
ATOM     28  C   UNL     1       2.153   5.005  19.728  0.00  0.00    +0.000 A 
ATOM     29  C   UNL     1       2.384   6.481  19.903  0.00  0.00    +0.000 C 
ENDBRANCH  20  22
ENDBRANCH  17  18
ENDBRANCH  16  17
ENDBRANCH   1  16
TORSDOF 15
ENDMDL
MODEL 9
REMARK VINA RESULT:      -6.1      1.732      2.709
REMARK  Name = 
REMARK  18 active torsions:
REMARK  status: ('A' for Active; 'I' for Inactive)
REMARK    1  A    between atoms: C_1  and  C_2
REMARK    2  A    between atoms: C_2  and  C_3
REMARK    3  A    between atoms: C_3  and  C_4
REMARK    4  A    between atoms: C_4  and  C_5
REMARK    5  A    between atoms: C_5  and  C_6
REMARK    6  A    between atoms: C_7  and  C_8
REMARK    7  A    between atoms: C_8  and  C_9
REMARK    8  A    between atoms: C_10  and  C_11
REMARK    9  A    between atoms: C_11  and  C_12
REMARK   10  A    between atoms: C_12  and  C_13
REMARK   11  A    between atoms: C_13  and  C_14
REMARK   12  A    between atoms: C_14  and  C_15
REMARK   13  A    between atoms: C_15  and  C_16
REMARK   14  A    between atoms: C_16  and  C_17
REMARK   15  A    between atoms: C_17  and  C_18
REMARK   16  A    between atoms: N_20  and  C_21
REMARK   17  A    between atoms: C_22  and  C_23
REMARK   18  A    between atoms: C_27  and  C_28
REMARK                            x       y       z     vdW  Elec       q    Type
REMARK                         _______ _______ _______ _____ _____    ______ ____
ROOT
ATOM      1  C   UNL     1       1.778   5.403  20.361  0.00  0.00    +0.000 C 
ENDROOT
BRANCH   1   2
ATOM      2  C   UNL     1       0.745   4.280  20.278  0.00  0.00    +0.000 C 
BRANCH   2   3
ATOM      3  C   UNL     1       1.286   2.932  20.753  0.00  0.00    +0.000 C 
BRANCH   3   4
ATOM      4  C   UNL     1       2.735   3.025  21.258  0.00  0.00    +0.000 C 
BRANCH   4   5
ATOM      5  C   UNL     1       3.706   2.322  20.311  0.00  0.00    +0.000 C 
BRANCH   5   7
ATOM      6  C   UNL     1       3.405   2.275  17.839  0.00  0.00    +0.000 C 
ATOM      7  C   UNL     1       3.087   1.787  19.052  0.00  0.00    +0.000 C 
BRANCH   6   8
ATOM      8  C   UNL     1       4.417   3.370  17.627  0.00  0.00    +0.000 C 
BRANCH   8  10
ATOM      9  C   UNL     1       5.158   4.563  15.534  0.00  0.00    +0.000 C 
ATOM     10  C   UNL     1       4.186   4.137  16.357  0.00  0.00    +0.000 C 
BRANCH   9  11
ATOM     11  C   UNL     1       6.621   4.352  15.806  0.00  0.00    +0.000 C 
BRANCH  11  12
ATOM     12  C   UNL     1       7.290   5.546  16.481  0.00  0.00    +0.000 C 
BRANCH  12  13
ATOM     13  C   UNL     1       7.527   5.244  17.962  0.00  0.00    +0.000 C 
BRANCH  13  15
ATOM     14  C   UNL     1       7.811   7.739  17.866  0.00  0.00    +0.000 C 
ATOM     15  C   UNL     1       7.949   6.494  18.728  0.00  0.00    +0.000 C 
ENDBRANCH  13  15
ENDBRANCH  12  13
ENDBRANCH  11  12
ENDBRANCH   9  11
ENDBRANCH   8  10
ENDBRANCH   6   8
ENDBRANCH   5   7
ENDBRANCH   4   5
ENDBRANCH   3   4
ENDBRANCH   2   3
ENDBRANCH   1   2
BRANCH   1  16
ATOM     16  C   UNL     1       2.248   5.745  18.950  0.00  0.00    +0.000 C 
BRANCH  16  17
ATOM     17  C   UNL     1       2.945   7.098  18.854  0.00  0.00    +0.000 C 
BRANCH  17  18
ATOM     18  C   UNL     1       1.909   8.204  18.721  0.00  0.00    +0.000 C 
ATOM     19  O   UNL     1       1.233   8.346  17.708  0.00  0.00    +0.000 OA
ATOM     20  N   UNL     1       1.846   9.014  19.845  0.00  0.00    +0.000 N 
ATOM     21  H   UNL     1       2.717   9.108  20.346  0.00  0.00    +0.000 HD
BRANCH  20  22
ATOM     22  C   UNL     1       0.955  10.116  19.899  0.00  0.00    +0.000 A 
ATOM     23  C   UNL     1       1.178  11.282  19.134  0.00  0.00    +0.000 A 
ATOM     24  C   UNL     1       2.269  11.419  18.103  0.00  0.00    +0.000 C 
ATOM     25  C   UNL     1       0.328  12.385  19.310  0.00  0.00    +0.000 A 
ATOM     26  C   UNL     1      -0.751  12.321  20.188  0.00  0.00    +0.000 A 
ATOM     27  C   UNL     1      -1.008  11.146  20.887  0.00  0.00    +0.000 A 
ATOM     28  C   UNL     1      -0.172  10.028  20.746  0.00  0.00    +0.000 A 
ATOM     29  C   UNL     1      -0.466   8.802  21.567  0.00  0.00    +0.000 C 
ENDBRANCH  20  22
ENDBRANCH  17  18
ENDBRANCH  16  17
ENDBRANCH   1  16
TORSDOF 15
ENDMDL
