MODEL 1
REMARK VINA RESULT:      -9.4      0.000      0.000
REMARK  Name = 
REMARK  5 active torsions:
REMARK  status: ('A' for Active; 'I' for Inactive)
REMARK    1  A    between atoms: C_2  and  C_26
REMARK    2  A    between atoms: N_3  and  C_4
REMARK    3  A    between atoms: C_7  and  C_8
REMARK    4  A    between atoms: C_16  and  N_17
REMARK    5  A    between atoms: N_17  and  C_18
REMARK                            x       y       z     vdW  Elec       q    Type
REMARK                         _______ _______ _______ _____ _____    ______ ____
ROOT
ATOM      1  C   UNL     1       3.562   6.584  18.090  0.00  0.00    +0.000 A 
ATOM      2  N   UNL     1       4.022   6.863  16.819  0.00  0.00    +0.000 NA
ATOM      3  C   UNL     1       5.064   6.092  16.650  0.00  0.00    +0.000 A 
ATOM      4  C   UNL     1       5.960   5.983  15.549  0.00  0.00    +0.000 A 
ATOM      5  C   UNL     1       7.059   5.215  15.658  0.00  0.00    +0.000 A 
ATOM      6  C   UNL     1       7.358   4.500  16.892  0.00  0.00    +0.000 A 
ATOM      7  C   UNL     1       6.482   4.555  17.911  0.00  0.00    +0.000 A 
ATOM      8  N   UNL     1       5.321   5.324  17.784  0.00  0.00    +0.000 N 
ATOM      9  C   UNL     1       4.247   5.513  18.662  0.00  0.00    +0.000 A 
ENDROOT
BRANCH   1  13
ATOM     10  C   UNL     1       0.762   9.317  19.807  0.00  0.00    +0.000 A 
ATOM     11  C   UNL     1       1.202   9.452  18.484  0.00  0.00    +0.000 A 
ATOM     12  C   UNL     1       2.079   8.526  17.923  0.00  0.00    +0.000 A 
ATOM     13  C   UNL     1       2.542   7.441  18.668  0.00  0.00    +0.000 A 
ATOM     14  C   UNL     1       2.128   7.311  19.999  0.00  0.00    +0.000 A 
ATOM     15  C   UNL     1       1.239   8.235  20.561  0.00  0.00    +0.000 A 
BRANCH  10  18
ATOM     16  O   UNL     1       1.469  11.691  21.325  0.00  0.00    +0.000 OA
ATOM     17  C   UNL     1       0.302  11.317  21.212  0.00  0.00    +0.000 C 
ATOM     18  N   UNL     1      -0.092  10.240  20.431  0.00  0.00    +0.000 N 
ATOM     19  H   UNL     1      -1.084  10.137  20.283  0.00  0.00    +0.000 HD
BRANCH  17  20
ATOM     20  C   UNL     1      -0.767  12.041  21.893  0.00  0.00    +0.000 A 
ATOM     21  C   UNL     1      -1.538  11.542  22.929  0.00  0.00    +0.000 A 
ATOM     22  C   UNL     1      -2.526  12.459  23.367  0.00  0.00    +0.000 A 
ATOM     23  C   UNL     1      -2.486  13.635  22.650  0.00  0.00    +0.000 A 
ATOM     24  S   UNL     1      -1.251  13.622  21.464  0.00  0.00    +0.000 S 
ENDBRANCH  17  20
ENDBRANCH  10  18
ENDBRANCH   1  13
BRANCH   9  25
ATOM     25  N   UNL     1       4.116   4.746  19.806  0.00  0.00    +0.000 N 
ATOM     26  H   UNL     1       3.642   5.241  20.562  0.00  0.00    +0.000 HD
BRANCH  25  27
ATOM     27  C   UNL     1       3.644   3.344  19.724  0.00  0.00    +0.000 C 
ATOM     28  C   UNL     1       2.965   2.857  21.008  0.00  0.00    +0.000 C 
ATOM     29  C   UNL     1       1.587   3.464  21.255  0.00  0.00    +0.000 C 
ATOM     30  C   UNL     1       0.650   3.345  20.058  0.00  0.00    +0.000 C 
ATOM     31  C   UNL     1       1.291   3.719  18.727  0.00  0.00    +0.000 C 
ATOM     32  C   UNL     1       2.694   3.150  18.529  0.00  0.00    +0.000 C 
ENDBRANCH  25  27
ENDBRANCH   9  25
TORSDOF 5
ENDMDL
MODEL 2
REMARK VINA RESULT:      -9.1      0.727      1.216
REMARK  Name = 
REMARK  5 active torsions:
REMARK  status: ('A' for Active; 'I' for Inactive)
REMARK    1  A    between atoms: C_2  and  C_26
REMARK    2  A    between atoms: N_3  and  C_4
REMARK    3  A    between atoms: C_7  and  C_8
REMARK    4  A    between atoms: C_16  and  N_17
REMARK    5  A    between atoms: N_17  and  C_18
REMARK                            x       y       z     vdW  Elec       q    Type
REMARK                         _______ _______ _______ _____ _____    ______ ____
ROOT
ATOM      1  C   UNL     1       3.686   6.698  17.868  0.00  0.00    +0.000 A 
ATOM      2  N   UNL     1       4.098   6.911  16.567  0.00  0.00    +0.000 NA
ATOM      3  C   UNL     1       5.067   6.057  16.367  0.00  0.00    +0.000 A 
ATOM      4  C   UNL     1       5.893   5.852  15.225  0.00  0.00    +0.000 A 
ATOM      5  C   UNL     1       6.934   5.004  15.299  0.00  0.00    +0.000 A 
ATOM      6  C   UNL     1       7.242   4.297  16.535  0.00  0.00    +0.000 A 
ATOM      7  C   UNL     1       6.428   4.444  17.596  0.00  0.00    +0.000 A 
ATOM      8  N   UNL     1       5.324   5.298  17.506  0.00  0.00    +0.000 N 
ATOM      9  C   UNL     1       4.316   5.591  18.433  0.00  0.00    +0.000 A 
ENDROOT
BRANCH   1  13
ATOM     10  C   UNL     1       0.777   9.284  19.630  0.00  0.00    +0.000 A 
ATOM     11  C   UNL     1       1.315   8.199  20.332  0.00  0.00    +0.000 A 
ATOM     12  C   UNL     1       2.297   7.392  19.762  0.00  0.00    +0.000 A 
ATOM     13  C   UNL     1       2.768   7.646  18.473  0.00  0.00    +0.000 A 
ATOM     14  C   UNL     1       2.219   8.714  17.753  0.00  0.00    +0.000 A 
ATOM     15  C   UNL     1       1.239   9.531  18.329  0.00  0.00    +0.000 A 
BRANCH  10  18
ATOM     16  O   UNL     1       1.035  11.622  21.335  0.00  0.00    +0.000 OA
ATOM     17  C   UNL     1      -0.064  11.167  21.020  0.00  0.00    +0.000 C 
ATOM     18  N   UNL     1      -0.239  10.105  20.144  0.00  0.00    +0.000 N 
ATOM     19  H   UNL     1      -1.183   9.936  19.833  0.00  0.00    +0.000 HD
BRANCH  17  20
ATOM     20  C   UNL     1      -1.284  11.772  21.547  0.00  0.00    +0.000 A 
ATOM     21  C   UNL     1      -2.162  12.562  20.826  0.00  0.00    +0.000 A 
ATOM     22  C   UNL     1      -3.240  13.040  21.611  0.00  0.00    +0.000 A 
ATOM     23  C   UNL     1      -3.153  12.607  22.916  0.00  0.00    +0.000 A 
ATOM     24  S   UNL     1      -1.779  11.618  23.175  0.00  0.00    +0.000 S 
ENDBRANCH  17  20
ENDBRANCH  10  18
ENDBRANCH   1  13
BRANCH   9  25
ATOM     25  N   UNL     1       4.187   4.863  19.603  0.00  0.00    +0.000 N 
ATOM     26  H   UNL     1       3.730   5.390  20.347  0.00  0.00    +0.000 HD
BRANCH  25  27
ATOM     27  C   UNL     1       3.694   3.467  19.572  0.00  0.00    +0.000 C 
ATOM     28  C   UNL     1       3.050   3.022  20.889  0.00  0.00    +0.000 C 
ATOM     29  C   UNL     1       1.689   3.655  21.164  0.00  0.00    +0.000 C 
ATOM     30  C   UNL     1       0.712   3.520  20.000  0.00  0.00    +0.000 C 
ATOM     31  C   UNL     1       1.315   3.850  18.640  0.00  0.00    +0.000 C 
ATOM     32  C   UNL     1       2.704   3.256  18.413  0.00  0.00    +0.000 C 
ENDBRANCH  25  27
ENDBRANCH   9  25
TORSDOF 5
ENDMDL
MODEL 3
REMARK VINA RESULT:      -8.9      0.915      1.472
REMARK  Name = 
REMARK  5 active torsions:
REMARK  status: ('A' for Active; 'I' for Inactive)
REMARK    1  A    between atoms: C_2  and  C_26
REMARK    2  A    between atoms: N_3  and  C_4
REMARK    3  A    between atoms: C_7  and  C_8
REMARK    4  A    between atoms: C_16  and  N_17
REMARK    5  A    between atoms: N_17  and  C_18
REMARK                            x       y       z     vdW  Elec       q    Type
REMARK                         _______ _______ _______ _____ _____    ______ ____
ROOT
ATOM      1  C   UNL     1       3.090   6.960  18.599  0.00  0.00    +0.000 A 
ATOM      2  N   UNL     1       3.645   7.328  17.389  0.00  0.00    +0.000 NA
ATOM      3  C   UNL     1       4.646   6.509  17.203  0.00  0.00    +0.000 A 
ATOM      4  C   UNL     1       5.601   6.445  16.148  0.00  0.00    +0.000 A 
ATOM      5  C   UNL     1       6.641   5.599  16.242  0.00  0.00    +0.000 A 
ATOM      6  C   UNL     1       6.819   4.750  17.413  0.00  0.00    +0.000 A 
ATOM      7  C   UNL     1       5.885   4.766  18.382  0.00  0.00    +0.000 A 
ATOM      8  N   UNL     1       4.784   5.620  18.267  0.00  0.00    +0.000 N 
ATOM      9  C   UNL     1       3.671   5.796  19.098  0.00  0.00    +0.000 A 
ENDROOT
BRANCH   1  13
ATOM     10  C   UNL     1       0.356   9.712  20.388  0.00  0.00    +0.000 A 
ATOM     11  C   UNL     1       0.782   9.859  19.062  0.00  0.00    +0.000 A 
ATOM     12  C   UNL     1       1.637   8.928  18.477  0.00  0.00    +0.000 A 
ATOM     13  C   UNL     1       2.092   7.825  19.201  0.00  0.00    +0.000 A 
ATOM     14  C   UNL     1       1.691   7.682  20.535  0.00  0.00    +0.000 A 
ATOM     15  C   UNL     1       0.824   8.612  21.120  0.00  0.00    +0.000 A 
BRANCH  10  18
ATOM     16  O   UNL     1       1.084  12.244  21.613  0.00  0.00    +0.000 OA
ATOM     17  C   UNL     1      -0.063  11.800  21.674  0.00  0.00    +0.000 C 
ATOM     18  N   UNL     1      -0.476  10.639  21.035  0.00  0.00    +0.000 N 
ATOM     19  H   UNL     1      -1.470  10.471  21.018  0.00  0.00    +0.000 HD
BRANCH  17  20
ATOM     20  C   UNL     1      -1.088  12.523  22.420  0.00  0.00    +0.000 A 
ATOM     21  C   UNL     1      -2.247  11.966  22.932  0.00  0.00    +0.000 A 
ATOM     22  C   UNL     1      -3.074  12.919  23.578  0.00  0.00    +0.000 A 
ATOM     23  C   UNL     1      -2.526  14.182  23.536  0.00  0.00    +0.000 A 
ATOM     24  S   UNL     1      -1.016  14.201  22.729  0.00  0.00    +0.000 S 
ENDBRANCH  17  20
ENDBRANCH  10  18
ENDBRANCH   1  13
BRANCH   9  25
ATOM     25  N   UNL     1       3.422   4.933  20.151  0.00  0.00    +0.000 N 
ATOM     26  H   UNL     1       3.448   5.399  21.058  0.00  0.00    +0.000 HD
BRANCH  25  27
ATOM     27  C   UNL     1       2.295   3.973  20.088  0.00  0.00    +0.000 C 
ATOM     28  C   UNL     1       1.488   4.070  18.789  0.00  0.00    +0.000 C 
ATOM     29  C   UNL     1       2.214   3.529  17.561  0.00  0.00    +0.000 C 
ATOM     30  C   UNL     1       2.773   2.124  17.758  0.00  0.00    +0.000 C 
ATOM     31  C   UNL     1       3.505   1.925  19.080  0.00  0.00    +0.000 C 
ATOM     32  C   UNL     1       2.789   2.529  20.286  0.00  0.00    +0.000 C 
ENDBRANCH  25  27
ENDBRANCH   9  25
TORSDOF 5
ENDMDL
MODEL 4
REMARK VINA RESULT:      -8.8      0.928      1.727
REMARK  Name = 
REMARK  5 active torsions:
REMARK  status: ('A' for Active; 'I' for Inactive)
REMARK    1  A    between atoms: C_2  and  C_26
REMARK    2  A    between atoms: N_3  and  C_4
REMARK    3  A    between atoms: C_7  and  C_8
REMARK    4  A    between atoms: C_16  and  N_17
REMARK    5  A    between atoms: N_17  and  C_18
REMARK                            x       y       z     vdW  Elec       q    Type
REMARK                         _______ _______ _______ _____ _____    ______ ____
ROOT
ATOM      1  C   UNL     1       3.197   7.046  18.363  0.00  0.00    +0.000 A 
ATOM      2  N   UNL     1       3.732   7.302  17.116  0.00  0.00    +0.000 NA
ATOM      3  C   UNL     1       4.678   6.415  16.955  0.00  0.00    +0.000 A 
ATOM      4  C   UNL     1       5.593   6.228  15.880  0.00  0.00    +0.000 A 
ATOM      5  C   UNL     1       6.586   5.329  15.999  0.00  0.00    +0.000 A 
ATOM      6  C   UNL     1       6.753   4.549  17.218  0.00  0.00    +0.000 A 
ATOM      7  C   UNL     1       5.855   4.682  18.210  0.00  0.00    +0.000 A 
ATOM      8  N   UNL     1       4.800   5.590  18.071  0.00  0.00    +0.000 N 
ATOM      9  C   UNL     1       3.727   5.884  18.921  0.00  0.00    +0.000 A 
ENDROOT
BRANCH   1  13
ATOM     10  C   UNL     1       0.266   9.658  20.047  0.00  0.00    +0.000 A 
ATOM     11  C   UNL     1       0.853   8.633  20.799  0.00  0.00    +0.000 A 
ATOM     12  C   UNL     1       1.841   7.818  20.250  0.00  0.00    +0.000 A 
ATOM     13  C   UNL     1       2.270   8.005  18.935  0.00  0.00    +0.000 A 
ATOM     14  C   UNL     1       1.672   9.011  18.168  0.00  0.00    +0.000 A 
ATOM     15  C   UNL     1       0.685   9.837  18.721  0.00  0.00    +0.000 A 
BRANCH  10  18
ATOM     16  O   UNL     1       0.490  11.957  21.810  0.00  0.00    +0.000 OA
ATOM     17  C   UNL     1      -0.603  11.524  21.444  0.00  0.00    +0.000 C 
ATOM     18  N   UNL     1      -0.758  10.483  20.539  0.00  0.00    +0.000 N 
ATOM     19  H   UNL     1      -1.691  10.333  20.190  0.00  0.00    +0.000 HD
BRANCH  17  20
ATOM     20  C   UNL     1      -1.834  12.135  21.937  0.00  0.00    +0.000 A 
ATOM     21  C   UNL     1      -2.365  11.954  23.202  0.00  0.00    +0.000 A 
ATOM     22  C   UNL     1      -3.591  12.643  23.385  0.00  0.00    +0.000 A 
ATOM     23  C   UNL     1      -3.966  13.327  22.250  0.00  0.00    +0.000 A 
ATOM     24  S   UNL     1      -2.830  13.141  20.982  0.00  0.00    +0.000 S 
ENDBRANCH  17  20
ENDBRANCH  10  18
ENDBRANCH   1  13
BRANCH   9  25
ATOM     25  N   UNL     1       3.464   5.107  20.035  0.00  0.00    +0.000 N 
ATOM     26  H   UNL     1       3.489   5.641  20.904  0.00  0.00    +0.000 HD
BRANCH  25  27
ATOM     27  C   UNL     1       2.330   4.154  20.039  0.00  0.00    +0.000 C 
ATOM     28  C   UNL     1       1.533   4.155  18.730  0.00  0.00    +0.000 C 
ATOM     29  C   UNL     1       2.263   3.514  17.554  0.00  0.00    +0.000 C 
ATOM     30  C   UNL     1       2.809   2.124  17.864  0.00  0.00    +0.000 C 
ATOM     31  C   UNL     1       3.530   2.024  19.204  0.00  0.00    +0.000 C 
ATOM     32  C   UNL     1       2.810   2.726  20.353  0.00  0.00    +0.000 C 
ENDBRANCH  25  27
ENDBRANCH   9  25
TORSDOF 5
ENDMDL
MODEL 5
REMARK VINA RESULT:      -8.7      1.252      2.150
REMARK  Name = 
REMARK  5 active torsions:
REMARK  status: ('A' for Active; 'I' for Inactive)
REMARK    1  A    between atoms: C_2  and  C_26
REMARK    2  A    between atoms: N_3  and  C_4
REMARK    3  A    between atoms: C_7  and  C_8
REMARK    4  A    between atoms: C_16  and  N_17
REMARK    5  A    between atoms: N_17  and  C_18
REMARK                            x       y       z     vdW  Elec       q    Type
REMARK                         _______ _______ _______ _____ _____    ______ ____
ROOT
ATOM      1  C   UNL     1       2.595   7.466  19.003  0.00  0.00    +0.000 A 
ATOM      2  N   UNL     1       3.098   7.823  17.767  0.00  0.00    +0.000 NA
ATOM      3  C   UNL     1       3.959   6.889  17.460  0.00  0.00    +0.000 A 
ATOM      4  C   UNL     1       4.810   6.757  16.326  0.00  0.00    +0.000 A 
ATOM      5  C   UNL     1       5.728   5.776  16.293  0.00  0.00    +0.000 A 
ATOM      6  C   UNL     1       5.880   4.849  17.407  0.00  0.00    +0.000 A 
ATOM      7  C   UNL     1       5.038   4.935  18.452  0.00  0.00    +0.000 A 
ATOM      8  N   UNL     1       4.058   5.933  18.469  0.00  0.00    +0.000 N 
ATOM      9  C   UNL     1       3.049   6.210  19.399  0.00  0.00    +0.000 A 
ENDROOT
BRANCH   1  13
ATOM     10  C   UNL     1      -0.019  10.069  21.158  0.00  0.00    +0.000 A 
ATOM     11  C   UNL     1       0.673   9.032  21.796  0.00  0.00    +0.000 A 
ATOM     12  C   UNL     1       1.558   8.220  21.089  0.00  0.00    +0.000 A 
ATOM     13  C   UNL     1       1.775   8.422  19.726  0.00  0.00    +0.000 A 
ATOM     14  C   UNL     1       1.070   9.441  19.073  0.00  0.00    +0.000 A 
ATOM     15  C   UNL     1       0.188  10.263  19.785  0.00  0.00    +0.000 A 
BRANCH  10  18
ATOM     16  O   UNL     1       0.315  12.814  22.050  0.00  0.00    +0.000 OA
ATOM     17  C   UNL     1      -0.709  12.174  22.290  0.00  0.00    +0.000 C 
ATOM     18  N   UNL     1      -0.947  10.892  21.815  0.00  0.00    +0.000 N 
ATOM     19  H   UNL     1      -1.885  10.541  21.934  0.00  0.00    +0.000 HD
BRANCH  17  20
ATOM     20  C   UNL     1      -1.776  12.773  23.086  0.00  0.00    +0.000 A 
ATOM     21  C   UNL     1      -2.998  12.183  23.358  0.00  0.00    +0.000 A 
ATOM     22  C   UNL     1      -3.850  13.017  24.125  0.00  0.00    +0.000 A 
ATOM     23  C   UNL     1      -3.255  14.226  24.415  0.00  0.00    +0.000 A 
ATOM     24  S   UNL     1      -1.674  14.336  23.767  0.00  0.00    +0.000 S 
ENDBRANCH  17  20
ENDBRANCH  10  18
ENDBRANCH   1  13
BRANCH   9  25
ATOM     25  N   UNL     1       2.768   5.331  20.431  0.00  0.00    +0.000 N 
ATOM     26  H   UNL     1       2.937   5.736  21.352  0.00  0.00    +0.000 HD
BRANCH  25  27
ATOM     27  C   UNL     1       1.514   4.542  20.429  0.00  0.00    +0.000 C 
ATOM     28  C   UNL     1       1.072   4.111  19.026  0.00  0.00    +0.000 C 
ATOM     29  C   UNL     1       1.937   3.018  18.407  0.00  0.00    +0.000 C 
ATOM     30  C   UNL     1       2.133   1.810  19.317  0.00  0.00    +0.000 C 
ATOM     31  C   UNL     1       2.477   2.168  20.758  0.00  0.00    +0.000 C 
ATOM     32  C   UNL     1       1.639   3.305  21.337  0.00  0.00    +0.000 C 
ENDBRANCH  25  27
ENDBRANCH   9  25
TORSDOF 5
ENDMDL
MODEL 6
REMARK VINA RESULT:      -8.5      2.302      4.399
REMARK  Name = 
REMARK  5 active torsions:
REMARK  status: ('A' for Active; 'I' for Inactive)
REMARK    1  A    between atoms: C_2  and  C_26
REMARK    2  A    between atoms: N_3  and  C_4
REMARK    3  A    between atoms: C_7  and  C_8
REMARK    4  A    between atoms: C_16  and  N_17
REMARK    5  A    between atoms: N_17  and  C_18
REMARK                            x       y       z     vdW  Elec       q    Type
REMARK                         _______ _______ _______ _____ _____    ______ ____
ROOT
ATOM      1  C   UNL     1       2.444   5.950  19.226  0.00  0.00    +0.000 A 
ATOM      2  N   UNL     1       1.381   5.089  19.407  0.00  0.00    +0.000 NA
ATOM      3  C   UNL     1       1.866   3.892  19.207  0.00  0.00    +0.000 A 
ATOM      4  C   UNL     1       1.220   2.622  19.217  0.00  0.00    +0.000 A 
ATOM      5  C   UNL     1       1.900   1.526  18.837  0.00  0.00    +0.000 A 
ATOM      6  C   UNL     1       3.288   1.615  18.400  0.00  0.00    +0.000 A 
ATOM      7  C   UNL     1       3.916   2.803  18.447  0.00  0.00    +0.000 A 
ATOM      8  N   UNL     1       3.219   3.937  18.878  0.00  0.00    +0.000 N 
ATOM      9  C   UNL     1       3.643   5.259  19.055  0.00  0.00    +0.000 A 
ENDROOT
BRANCH   1  13
ATOM     10  C   UNL     1       1.395  10.088  19.053  0.00  0.00    +0.000 A 
ATOM     11  C   UNL     1       1.327   9.364  20.249  0.00  0.00    +0.000 A 
ATOM     12  C   UNL     1       1.717   8.027  20.300  0.00  0.00    +0.000 A 
ATOM     13  C   UNL     1       2.184   7.377  19.158  0.00  0.00    +0.000 A 
ATOM     14  C   UNL     1       2.233   8.085  17.951  0.00  0.00    +0.000 A 
ATOM     15  C   UNL     1       1.851   9.431  17.901  0.00  0.00    +0.000 A 
BRANCH  10  18
ATOM     16  O   UNL     1       2.937  12.385  18.166  0.00  0.00    +0.000 OA
ATOM     17  C   UNL     1       1.784  12.500  18.582  0.00  0.00    +0.000 C 
ATOM     18  N   UNL     1       0.982  11.425  18.938  0.00  0.00    +0.000 N 
ATOM     19  H   UNL     1       0.008  11.631  19.099  0.00  0.00    +0.000 HD
BRANCH  17  20
ATOM     20  C   UNL     1       1.173  13.821  18.690  0.00  0.00    +0.000 A 
ATOM     21  C   UNL     1       1.845  15.025  18.573  0.00  0.00    +0.000 A 
ATOM     22  C   UNL     1       0.998  16.146  18.762  0.00  0.00    +0.000 A 
ATOM     23  C   UNL     1      -0.300  15.766  19.024  0.00  0.00    +0.000 A 
ATOM     24  S   UNL     1      -0.483  14.063  19.028  0.00  0.00    +0.000 S 
ENDBRANCH  17  20
ENDBRANCH  10  18
ENDBRANCH   1  13
BRANCH   9  25
ATOM     25  N   UNL     1       4.983   5.596  18.982  0.00  0.00    +0.000 N 
ATOM     26  H   UNL     1       5.600   4.814  19.201  0.00  0.00    +0.000 HD
BRANCH  25  27
ATOM     27  C   UNL     1       5.505   6.366  17.829  0.00  0.00    +0.000 C 
ATOM     28  C   UNL     1       7.023   6.251  17.661  0.00  0.00    +0.000 C 
ATOM     29  C   UNL     1       7.494   4.890  17.157  0.00  0.00    +0.000 C 
ATOM     30  C   UNL     1       6.764   4.422  15.902  0.00  0.00    +0.000 C 
ATOM     31  C   UNL     1       5.252   4.602  15.959  0.00  0.00    +0.000 C 
ATOM     32  C   UNL     1       4.804   5.948  16.523  0.00  0.00    +0.000 C 
ENDBRANCH  25  27
ENDBRANCH   9  25
TORSDOF 5
ENDMDL
MODEL 7
REMARK VINA RESULT:      -8.5      1.293      1.954
REMARK  Name = 
REMARK  5 active torsions:
REMARK  status: ('A' for Active; 'I' for Inactive)
REMARK    1  A    between atoms: C_2  and  C_26
REMARK    2  A    between atoms: N_3  and  C_4
REMARK    3  A    between atoms: C_7  and  C_8
REMARK    4  A    between atoms: C_16  and  N_17
REMARK    5  A    between atoms: N_17  and  C_18
REMARK                            x       y       z     vdW  Elec       q    Type
REMARK                         _______ _______ _______ _____ _____    ______ ____
ROOT
ATOM      1  C   UNL     1       2.638   7.406  18.886  0.00  0.00    +0.000 A 
ATOM      2  N   UNL     1       3.172   7.733  17.655  0.00  0.00    +0.000 NA
ATOM      3  C   UNL     1       4.086   6.829  17.423  0.00  0.00    +0.000 A 
ATOM      4  C   UNL     1       4.987   6.689  16.328  0.00  0.00    +0.000 A 
ATOM      5  C   UNL     1       5.950   5.752  16.374  0.00  0.00    +0.000 A 
ATOM      6  C   UNL     1       6.100   4.882  17.533  0.00  0.00    +0.000 A 
ATOM      7  C   UNL     1       5.214   4.973  18.541  0.00  0.00    +0.000 A 
ATOM      8  N   UNL     1       4.189   5.923  18.476  0.00  0.00    +0.000 N 
ATOM      9  C   UNL     1       3.133   6.191  19.355  0.00  0.00    +0.000 A 
ENDROOT
BRANCH   1  13
ATOM     10  C   UNL     1       0.232  10.384  20.783  0.00  0.00    +0.000 A 
ATOM     11  C   UNL     1       0.546  10.454  19.420  0.00  0.00    +0.000 A 
ATOM     12  C   UNL     1       1.292   9.451  18.805  0.00  0.00    +0.000 A 
ATOM     13  C   UNL     1       1.747   8.352  19.534  0.00  0.00    +0.000 A 
ATOM     14  C   UNL     1       1.459   8.284  20.903  0.00  0.00    +0.000 A 
ATOM     15  C   UNL     1       0.700   9.286  21.520  0.00  0.00    +0.000 A 
BRANCH  10  18
ATOM     16  O   UNL     1      -0.799  10.342  23.499  0.00  0.00    +0.000 OA
ATOM     17  C   UNL     1      -1.024  11.280  22.734  0.00  0.00    +0.000 C 
ATOM     18  N   UNL     1      -0.486  11.383  21.459  0.00  0.00    +0.000 N 
ATOM     19  H   UNL     1      -0.604  12.271  20.997  0.00  0.00    +0.000 HD
BRANCH  17  20
ATOM     20  C   UNL     1      -1.871  12.388  23.165  0.00  0.00    +0.000 A 
ATOM     21  C   UNL     1      -3.219  12.295  23.467  0.00  0.00    +0.000 A 
ATOM     22  C   UNL     1      -3.789  13.543  23.819  0.00  0.00    +0.000 A 
ATOM     23  C   UNL     1      -2.861  14.560  23.773  0.00  0.00    +0.000 A 
ATOM     24  S   UNL     1      -1.311  13.994  23.315  0.00  0.00    +0.000 S 
ENDBRANCH  17  20
ENDBRANCH  10  18
ENDBRANCH   1  13
BRANCH   9  25
ATOM     25  N   UNL     1       2.852   5.345  20.414  0.00  0.00    +0.000 N 
ATOM     26  H   UNL     1       3.039   5.772  21.321  0.00  0.00    +0.000 HD
BRANCH  25  27
ATOM     27  C   UNL     1       1.586   4.575  20.449  0.00  0.00    +0.000 C 
ATOM     28  C   UNL     1       1.113   4.125  19.063  0.00  0.00    +0.000 C 
ATOM     29  C   UNL     1       1.951   3.007  18.449  0.00  0.00    +0.000 C 
ATOM     30  C   UNL     1       2.144   1.814  19.380  0.00  0.00    +0.000 C 
ATOM     31  C   UNL     1       2.519   2.193  20.807  0.00  0.00    +0.000 C 
ATOM     32  C   UNL     1       1.709   3.355  21.378  0.00  0.00    +0.000 C 
ENDBRANCH  25  27
ENDBRANCH   9  25
TORSDOF 5
ENDMDL
MODEL 8
REMARK VINA RESULT:      -8.5      1.047      1.591
REMARK  Name = 
REMARK  5 active torsions:
REMARK  status: ('A' for Active; 'I' for Inactive)
REMARK    1  A    between atoms: C_2  and  C_26
REMARK    2  A    between atoms: N_3  and  C_4
REMARK    3  A    between atoms: C_7  and  C_8
REMARK    4  A    between atoms: C_16  and  N_17
REMARK    5  A    between atoms: N_17  and  C_18
REMARK                            x       y       z     vdW  Elec       q    Type
REMARK                         _______ _______ _______ _____ _____    ______ ____
ROOT
ATOM      1  C   UNL     1       3.043   7.285  18.350  0.00  0.00    +0.000 A 
ATOM      2  N   UNL     1       3.814   7.626  17.257  0.00  0.00    +0.000 NA
ATOM      3  C   UNL     1       4.707   6.677  17.152  0.00  0.00    +0.000 A 
ATOM      4  C   UNL     1       5.786   6.526  16.236  0.00  0.00    +0.000 A 
ATOM      5  C   UNL     1       6.674   5.531  16.411  0.00  0.00    +0.000 A 
ATOM      6  C   UNL     1       6.559   4.608  17.533  0.00  0.00    +0.000 A 
ATOM      7  C   UNL     1       5.507   4.714  18.364  0.00  0.00    +0.000 A 
ATOM      8  N   UNL     1       4.563   5.726  18.160  0.00  0.00    +0.000 N 
ATOM      9  C   UNL     1       3.378   6.024  18.842  0.00  0.00    +0.000 A 
ENDROOT
BRANCH   1  13
ATOM     10  C   UNL     1       0.483  10.334  19.898  0.00  0.00    +0.000 A 
ATOM     11  C   UNL     1       0.981  10.389  18.591  0.00  0.00    +0.000 A 
ATOM     12  C   UNL     1       1.777   9.364  18.084  0.00  0.00    +0.000 A 
ATOM     13  C   UNL     1       2.098   8.257  18.870  0.00  0.00    +0.000 A 
ATOM     14  C   UNL     1       1.625   8.204  20.186  0.00  0.00    +0.000 A 
ATOM     15  C   UNL     1       0.817   9.229  20.693  0.00  0.00    +0.000 A 
BRANCH  10  18
ATOM     16  O   UNL     1       1.378  12.677  21.365  0.00  0.00    +0.000 OA
ATOM     17  C   UNL     1       0.183  12.415  21.228  0.00  0.00    +0.000 C 
ATOM     18  N   UNL     1      -0.293  11.356  20.468  0.00  0.00    +0.000 N 
ATOM     19  H   UNL     1      -1.286  11.345  20.294  0.00  0.00    +0.000 HD
BRANCH  17  20
ATOM     20  C   UNL     1      -0.827  13.261  21.855  0.00  0.00    +0.000 A 
ATOM     21  C   UNL     1      -1.370  13.062  23.113  0.00  0.00    +0.000 A 
ATOM     22  C   UNL     1      -2.358  14.023  23.442  0.00  0.00    +0.000 A 
ATOM     23  C   UNL     1      -2.548  14.930  22.422  0.00  0.00    +0.000 A 
ATOM     24  S   UNL     1      -1.524  14.617  21.085  0.00  0.00    +0.000 S 
ENDBRANCH  17  20
ENDBRANCH  10  18
ENDBRANCH   1  13
BRANCH   9  25
ATOM     25  N   UNL     1       2.860   5.157  19.788  0.00  0.00    +0.000 N 
ATOM     26  H   UNL     1       2.983   5.494  20.743  0.00  0.00    +0.000 HD
BRANCH  25  27
ATOM     27  C   UNL     1       1.514   4.564  19.612  0.00  0.00    +0.000 C 
ATOM     28  C   UNL     1       1.319   3.898  18.245  0.00  0.00    +0.000 C 
ATOM     29  C   UNL     1       2.082   2.588  18.075  0.00  0.00    +0.000 C 
ATOM     30  C   UNL     1       1.845   1.597  19.209  0.00  0.00    +0.000 C 
ATOM     31  C   UNL     1       1.924   2.213  20.601  0.00  0.00    +0.000 C 
ATOM     32  C   UNL     1       1.204   3.554  20.731  0.00  0.00    +0.000 C 
ENDBRANCH  25  27
ENDBRANCH   9  25
TORSDOF 5
ENDMDL
MODEL 9
REMARK VINA RESULT:      -8.4      2.495      4.566
REMARK  Name = 
REMARK  5 active torsions:
REMARK  status: ('A' for Active; 'I' for Inactive)
REMARK    1  A    between atoms: C_2  and  C_26
REMARK    2  A    between atoms: N_3  and  C_4
REMARK    3  A    between atoms: C_7  and  C_8
REMARK    4  A    between atoms: C_16  and  N_17
REMARK    5  A    between atoms: N_17  and  C_18
REMARK                            x       y       z     vdW  Elec       q    Type
REMARK                         _______ _______ _______ _____ _____    ______ ____
ROOT
ATOM      1  C   UNL     1       2.229   6.683  19.583  0.00  0.00    +0.000 A 
ATOM      2  N   UNL     1       1.951   6.088  20.798  0.00  0.00    +0.000 NA
ATOM      3  C   UNL     1       2.279   4.831  20.652  0.00  0.00    +0.000 A 
ATOM      4  C   UNL     1       2.169   3.739  21.560  0.00  0.00    +0.000 A 
ATOM      5  C   UNL     1       2.439   2.492  21.136  0.00  0.00    +0.000 A 
ATOM      6  C   UNL     1       2.830   2.233  19.757  0.00  0.00    +0.000 A 
ATOM      7  C   UNL     1       2.992   3.270  18.915  0.00  0.00    +0.000 A 
ATOM      8  N   UNL     1       2.748   4.571  19.366  0.00  0.00    +0.000 N 
ATOM      9  C   UNL     1       2.879   5.805  18.717  0.00  0.00    +0.000 A 
ENDROOT
BRANCH   1  13
ATOM     10  C   UNL     1       1.138  10.757  18.900  0.00  0.00    +0.000 A 
ATOM     11  C   UNL     1       1.778   9.994  17.916  0.00  0.00    +0.000 A 
ATOM     12  C   UNL     1       2.086   8.653  18.136  0.00  0.00    +0.000 A 
ATOM     13  C   UNL     1       1.764   8.038  19.346  0.00  0.00    +0.000 A 
ATOM     14  C   UNL     1       1.146   8.798  20.346  0.00  0.00    +0.000 A 
ATOM     15  C   UNL     1       0.827  10.143  20.122  0.00  0.00    +0.000 A 
BRANCH  10  18
ATOM     16  O   UNL     1       2.971  12.976  18.505  0.00  0.00    +0.000 OA
ATOM     17  C   UNL     1       1.759  13.151  18.636  0.00  0.00    +0.000 C 
ATOM     18  N   UNL     1       0.837  12.119  18.743  0.00  0.00    +0.000 N 
ATOM     19  H   UNL     1      -0.134  12.381  18.673  0.00  0.00    +0.000 HD
BRANCH  17  20
ATOM     20  C   UNL     1       1.212  14.504  18.647  0.00  0.00    +0.000 A 
ATOM     21  C   UNL     1      -0.134  14.823  18.665  0.00  0.00    +0.000 A 
ATOM     22  C   UNL     1      -0.367  16.220  18.633  0.00  0.00    +0.000 A 
ATOM     23  C   UNL     1       0.811  16.933  18.586  0.00  0.00    +0.000 A 
ATOM     24  S   UNL     1       2.183  15.908  18.592  0.00  0.00    +0.000 S 
ENDBRANCH  17  20
ENDBRANCH  10  18
ENDBRANCH   1  13
BRANCH   9  25
ATOM     25  N   UNL     1       3.494   5.900  17.482  0.00  0.00    +0.000 N 
ATOM     26  H   UNL     1       2.861   6.224  16.750  0.00  0.00    +0.000 HD
BRANCH  25  27
ATOM     27  C   UNL     1       4.821   6.544  17.348  0.00  0.00    +0.000 C 
ATOM     28  C   UNL     1       5.916   5.851  18.166  0.00  0.00    +0.000 C 
ATOM     29  C   UNL     1       6.349   4.497  17.610  0.00  0.00    +0.000 C 
ATOM     30  C   UNL     1       6.711   4.538  16.129  0.00  0.00    +0.000 C 
ATOM     31  C   UNL     1       5.714   5.302  15.265  0.00  0.00    +0.000 C 
ATOM     32  C   UNL     1       5.249   6.625  15.871  0.00  0.00    +0.000 C 
ENDBRANCH  25  27
ENDBRANCH   9  25
TORSDOF 5
ENDMDL
