MODEL 1
REMARK VINA RESULT:      -8.0      0.000      0.000
REMARK  Name = 
REMARK  4 active torsions:
REMARK  status: ('A' for Active; 'I' for Inactive)
REMARK    1  A    between atoms: N_2  and  C_4
REMARK    2  A    between atoms: C_5  and  N_6
REMARK    3  A    between atoms: N_6  and  C_7
REMARK    4  A    between atoms: C_10  and  C_11
REMARK                            x       y       z     vdW  Elec       q    Type
REMARK                         _______ _______ _______ _____ _____    ______ ____
ROOT
ATOM      1  N   UNL     1       2.551   7.039  20.394  0.00  0.00    +0.000 N 
ATOM      2  H   UNL     1       3.503   7.338  20.617  0.00  0.00    +0.000 HD
ENDROOT
BRANCH   1   4
ATOM      3  C   UNL     1       3.427   4.959  19.393  0.00  0.00    +0.000 A 
ATOM      4  C   UNL     1       2.418   5.663  20.096  0.00  0.00    +0.000 A 
ATOM      5  C   UNL     1       1.208   4.988  20.438  0.00  0.00    +0.000 A 
ATOM      6  C   UNL     1       0.932   3.638  20.128  0.00  0.00    +0.000 A 
ATOM      7  C   UNL     1       1.960   2.961  19.447  0.00  0.00    +0.000 A 
ATOM      8  N   UNL     1       2.002   1.690  19.035  0.00  0.00    +0.000 NA
ATOM      9  O   UNL     1       3.237   1.528  18.433  0.00  0.00    +0.000 OA
ATOM     10  N   UNL     1       3.982   2.693  18.472  0.00  0.00    +0.000 NA
ATOM     11  C   UNL     1       3.211   3.607  19.079  0.00  0.00    +0.000 A 
BRANCH   3  13
ATOM     12  O   UNL     1       4.607   6.236  17.925  0.00  0.00    +0.000 OA
ATOM     13  N   UNL     1       4.649   5.575  18.974  0.00  0.00    +0.000 N 
ATOM     14  O   UNL     1       5.669   5.355  19.641  0.00  0.00    +0.000 OA
ENDBRANCH   3  13
ENDBRANCH   1   4
BRANCH   1  15
ATOM     15  C   UNL     1       1.645   8.115  20.266  0.00  0.00    +0.000 A 
ATOM     16  C   UNL     1       0.896   8.449  21.410  0.00  0.00    +0.000 A 
ATOM     17  C   UNL     1      -0.016   9.510  21.408  0.00  0.00    +0.000 A 
ATOM     18  C   UNL     1      -0.213  10.270  20.250  0.00  0.00    +0.000 A 
ATOM     19  C   UNL     1       0.490   9.919  19.091  0.00  0.00    +0.000 A 
ATOM     20  C   UNL     1       1.412   8.863  19.094  0.00  0.00    +0.000 A 
ATOM     21 CL   UNL     1       2.325   8.657  17.638  0.00  0.00    +0.000 Cl
BRANCH  18  22
ATOM     22  C   UNL     1      -1.118  11.478  20.240  0.00  0.00    +0.000 C 
ATOM     23  F   UNL     1      -0.471  12.641  19.955  0.00  0.00    +0.000 F 
ATOM     24  F   UNL     1      -2.110  11.365  19.312  0.00  0.00    +0.000 F 
ATOM     25  F   UNL     1      -1.742  11.674  21.433  0.00  0.00    +0.000 F 
ENDBRANCH  18  22
ENDBRANCH   1  15
TORSDOF 4
ENDMDL
MODEL 2
REMARK VINA RESULT:      -8.0      0.078      1.001
REMARK  Name = 
REMARK  4 active torsions:
REMARK  status: ('A' for Active; 'I' for Inactive)
REMARK    1  A    between atoms: N_2  and  C_4
REMARK    2  A    between atoms: C_5  and  N_6
REMARK    3  A    between atoms: N_6  and  C_7
REMARK    4  A    between atoms: C_10  and  C_11
REMARK                            x       y       z     vdW  Elec       q    Type
REMARK                         _______ _______ _______ _____ _____    ______ ____
ROOT
ATOM      1  N   UNL     1       2.561   7.019  20.393  0.00  0.00    +0.000 N 
ATOM      2  H   UNL     1       3.518   7.315  20.600  0.00  0.00    +0.000 HD
ENDROOT
BRANCH   1   4
ATOM      3  C   UNL     1       3.422   4.949  19.359  0.00  0.00    +0.000 A 
ATOM      4  C   UNL     1       2.422   5.647  20.080  0.00  0.00    +0.000 A 
ATOM      5  C   UNL     1       1.213   4.971  20.427  0.00  0.00    +0.000 A 
ATOM      6  C   UNL     1       0.930   3.626  20.104  0.00  0.00    +0.000 A 
ATOM      7  C   UNL     1       1.950   2.954  19.405  0.00  0.00    +0.000 A 
ATOM      8  N   UNL     1       1.984   1.688  18.977  0.00  0.00    +0.000 NA
ATOM      9  O   UNL     1       3.213   1.529  18.361  0.00  0.00    +0.000 OA
ATOM     10  N   UNL     1       3.961   2.692  18.406  0.00  0.00    +0.000 NA
ATOM     11  C   UNL     1       3.199   3.601  19.031  0.00  0.00    +0.000 A 
BRANCH   3  13
ATOM     12  O   UNL     1       5.640   5.368  19.645  0.00  0.00    +0.000 OA
ATOM     13  N   UNL     1       4.641   5.566  18.935  0.00  0.00    +0.000 N 
ATOM     14  O   UNL     1       4.606   6.299  17.939  0.00  0.00    +0.000 OA
ENDBRANCH   3  13
ENDBRANCH   1   4
BRANCH   1  15
ATOM     15  C   UNL     1       1.654   8.097  20.298  0.00  0.00    +0.000 A 
ATOM     16  C   UNL     1       0.935   8.422  21.463  0.00  0.00    +0.000 A 
ATOM     17  C   UNL     1       0.025   9.484  21.493  0.00  0.00    +0.000 A 
ATOM     18  C   UNL     1      -0.202  10.253  20.347  0.00  0.00    +0.000 A 
ATOM     19  C   UNL     1       0.471   9.911  19.167  0.00  0.00    +0.000 A 
ATOM     20  C   UNL     1       1.392   8.854  19.138  0.00  0.00    +0.000 A 
ATOM     21 CL   UNL     1       2.266   8.659  17.657  0.00  0.00    +0.000 Cl
BRANCH  18  22
ATOM     22  C   UNL     1      -1.105  11.462  20.370  0.00  0.00    +0.000 C 
ATOM     23  F   UNL     1      -1.716  11.664  21.569  0.00  0.00    +0.000 F 
ATOM     24  F   UNL     1      -0.426  12.612  20.098  0.00  0.00    +0.000 F 
ATOM     25  F   UNL     1      -2.101  11.388  19.446  0.00  0.00    +0.000 F 
ENDBRANCH  18  22
ENDBRANCH   1  15
TORSDOF 4
ENDMDL
MODEL 3
REMARK VINA RESULT:      -7.8      1.333      1.846
REMARK  Name = 
REMARK  4 active torsions:
REMARK  status: ('A' for Active; 'I' for Inactive)
REMARK    1  A    between atoms: N_2  and  C_4
REMARK    2  A    between atoms: C_5  and  N_6
REMARK    3  A    between atoms: N_6  and  C_7
REMARK    4  A    between atoms: C_10  and  C_11
REMARK                            x       y       z     vdW  Elec       q    Type
REMARK                         _______ _______ _______ _____ _____    ______ ____
ROOT
ATOM      1  N   UNL     1       2.585   7.200  20.070  0.00  0.00    +0.000 N 
ATOM      2  H   UNL     1       3.503   7.510  20.397  0.00  0.00    +0.000 HD
ENDROOT
BRANCH   1   4
ATOM      3  C   UNL     1       3.385   5.083  19.083  0.00  0.00    +0.000 A 
ATOM      4  C   UNL     1       2.464   5.804  19.884  0.00  0.00    +0.000 A 
ATOM      5  C   UNL     1       1.347   5.118  20.448  0.00  0.00    +0.000 A 
ATOM      6  C   UNL     1       1.082   3.742  20.271  0.00  0.00    +0.000 A 
ATOM      7  C   UNL     1       2.023   3.051  19.487  0.00  0.00    +0.000 A 
ATOM      8  N   UNL     1       2.053   1.756  19.154  0.00  0.00    +0.000 NA
ATOM      9  O   UNL     1       3.191   1.590  18.384  0.00  0.00    +0.000 OA
ATOM     10  N   UNL     1       3.886   2.776  18.236  0.00  0.00    +0.000 NA
ATOM     11  C   UNL     1       3.178   3.707  18.892  0.00  0.00    +0.000 A 
BRANCH   3  13
ATOM     12  O   UNL     1       5.617   5.509  18.961  0.00  0.00    +0.000 OA
ATOM     13  N   UNL     1       4.505   5.704  18.445  0.00  0.00    +0.000 N 
ATOM     14  O   UNL     1       4.287   6.438  17.473  0.00  0.00    +0.000 OA
ENDBRANCH   3  13
ENDBRANCH   1   4
BRANCH   1  15
ATOM     15  C   UNL     1       1.731   8.268  19.717  0.00  0.00    +0.000 A 
ATOM     16  C   UNL     1       1.581   8.529  18.342  0.00  0.00    +0.000 A 
ATOM     17  C   UNL     1       0.744   9.548  17.874  0.00  0.00    +0.000 A 
ATOM     18  C   UNL     1       0.034  10.349  18.774  0.00  0.00    +0.000 A 
ATOM     19  C   UNL     1       0.212  10.132  20.147  0.00  0.00    +0.000 A 
ATOM     20  C   UNL     1       1.041   9.104  20.617  0.00  0.00    +0.000 A 
ATOM     21 CL   UNL     1       1.029   8.852  22.330  0.00  0.00    +0.000 Cl
BRANCH  18  22
ATOM     22  C   UNL     1      -0.947  11.394  18.303  0.00  0.00    +0.000 C 
ATOM     23  F   UNL     1      -0.373  12.596  18.025  0.00  0.00    +0.000 F 
ATOM     24  F   UNL     1      -1.588  11.014  17.162  0.00  0.00    +0.000 F 
ATOM     25  F   UNL     1      -1.924  11.644  19.216  0.00  0.00    +0.000 F 
ENDBRANCH  18  22
ENDBRANCH   1  15
TORSDOF 4
ENDMDL
MODEL 4
REMARK VINA RESULT:      -7.8      1.323      1.868
REMARK  Name = 
REMARK  4 active torsions:
REMARK  status: ('A' for Active; 'I' for Inactive)
REMARK    1  A    between atoms: N_2  and  C_4
REMARK    2  A    between atoms: C_5  and  N_6
REMARK    3  A    between atoms: N_6  and  C_7
REMARK    4  A    between atoms: C_10  and  C_11
REMARK                            x       y       z     vdW  Elec       q    Type
REMARK                         _______ _______ _______ _____ _____    ______ ____
ROOT
ATOM      1  N   UNL     1       2.534   7.252  20.142  0.00  0.00    +0.000 N 
ATOM      2  H   UNL     1       3.449   7.564  20.476  0.00  0.00    +0.000 HD
ENDROOT
BRANCH   1   4
ATOM      3  C   UNL     1       3.345   5.145  19.144  0.00  0.00    +0.000 A 
ATOM      4  C   UNL     1       2.420   5.857  19.947  0.00  0.00    +0.000 A 
ATOM      5  C   UNL     1       1.304   5.162  20.504  0.00  0.00    +0.000 A 
ATOM      6  C   UNL     1       1.046   3.787  20.318  0.00  0.00    +0.000 A 
ATOM      7  C   UNL     1       1.992   3.104  19.532  0.00  0.00    +0.000 A 
ATOM      8  N   UNL     1       2.029   1.812  19.191  0.00  0.00    +0.000 NA
ATOM      9  O   UNL     1       3.169   1.655  18.423  0.00  0.00    +0.000 OA
ATOM     10  N   UNL     1       3.859   2.846  18.284  0.00  0.00    +0.000 NA
ATOM     11  C   UNL     1       3.146   3.769  18.944  0.00  0.00    +0.000 A 
BRANCH   3  13
ATOM     12  O   UNL     1       4.228   6.427  17.484  0.00  0.00    +0.000 OA
ATOM     13  N   UNL     1       4.465   5.775  18.513  0.00  0.00    +0.000 N 
ATOM     14  O   UNL     1       5.589   5.577  18.992  0.00  0.00    +0.000 OA
ENDBRANCH   3  13
ENDBRANCH   1   4
BRANCH   1  15
ATOM     15  C   UNL     1       1.677   8.319  19.792  0.00  0.00    +0.000 A 
ATOM     16  C   UNL     1       1.579   8.626  18.422  0.00  0.00    +0.000 A 
ATOM     17  C   UNL     1       0.744   9.648  17.956  0.00  0.00    +0.000 A 
ATOM     18  C   UNL     1      -0.015  10.405  18.854  0.00  0.00    +0.000 A 
ATOM     19  C   UNL     1       0.110  10.142  20.224  0.00  0.00    +0.000 A 
ATOM     20  C   UNL     1       0.936   9.111  20.692  0.00  0.00    +0.000 A 
ATOM     21 CL   UNL     1       0.858   8.798  22.393  0.00  0.00    +0.000 Cl
BRANCH  18  22
ATOM     22  C   UNL     1      -0.994  11.451  18.378  0.00  0.00    +0.000 C 
ATOM     23  F   UNL     1      -1.673  11.092  17.255  0.00  0.00    +0.000 F 
ATOM     24  F   UNL     1      -1.943  11.726  19.317  0.00  0.00    +0.000 F 
ATOM     25  F   UNL     1      -0.393  12.638  18.094  0.00  0.00    +0.000 F 
ENDBRANCH  18  22
ENDBRANCH   1  15
TORSDOF 4
ENDMDL
MODEL 5
REMARK VINA RESULT:      -7.8      4.818      7.322
REMARK  Name = 
REMARK  4 active torsions:
REMARK  status: ('A' for Active; 'I' for Inactive)
REMARK    1  A    between atoms: N_2  and  C_4
REMARK    2  A    between atoms: C_5  and  N_6
REMARK    3  A    between atoms: N_6  and  C_7
REMARK    4  A    between atoms: C_10  and  C_11
REMARK                            x       y       z     vdW  Elec       q    Type
REMARK                         _______ _______ _______ _____ _____    ______ ____
ROOT
ATOM      1  N   UNL     1       2.182   7.920  20.419  0.00  0.00    +0.000 N 
ATOM      2  H   UNL     1       3.144   8.223  20.589  0.00  0.00    +0.000 HD
ENDROOT
BRANCH   1   4
ATOM      3  C   UNL     1       0.562   9.734  19.994  0.00  0.00    +0.000 A 
ATOM      4  C   UNL     1       1.190   8.819  20.875  0.00  0.00    +0.000 A 
ATOM      5  C   UNL     1       0.870   8.860  22.265  0.00  0.00    +0.000 A 
ATOM      6  C   UNL     1      -0.048   9.762  22.847  0.00  0.00    +0.000 A 
ATOM      7  C   UNL     1      -0.668  10.646  21.944  0.00  0.00    +0.000 A 
ATOM      8  N   UNL     1      -1.580  11.593  22.186  0.00  0.00    +0.000 NA
ATOM      9  O   UNL     1      -1.866  12.164  20.958  0.00  0.00    +0.000 OA
ATOM     10  N   UNL     1      -1.143  11.573  19.938  0.00  0.00    +0.000 NA
ATOM     11  C   UNL     1      -0.376  10.639  20.518  0.00  0.00    +0.000 A 
BRANCH   3  13
ATOM     12  O   UNL     1       1.995  10.181  18.283  0.00  0.00    +0.000 OA
ATOM     13  N   UNL     1       0.860   9.788  18.595  0.00  0.00    +0.000 N 
ATOM     14  O   UNL     1      -0.044   9.505  17.798  0.00  0.00    +0.000 OA
ENDBRANCH   3  13
ENDBRANCH   1   4
BRANCH   1  15
ATOM     15  C   UNL     1       2.093   6.597  19.934  0.00  0.00    +0.000 A 
ATOM     16  C   UNL     1       1.395   5.675  20.737  0.00  0.00    +0.000 A 
ATOM     17  C   UNL     1       1.225   4.342  20.347  0.00  0.00    +0.000 A 
ATOM     18  C   UNL     1       1.760   3.885  19.139  0.00  0.00    +0.000 A 
ATOM     19  C   UNL     1       2.500   4.779  18.353  0.00  0.00    +0.000 A 
ATOM     20  C   UNL     1       2.661   6.118  18.736  0.00  0.00    +0.000 A 
ATOM     21 CL   UNL     1       3.453   7.140  17.584  0.00  0.00    +0.000 Cl
BRANCH  18  22
ATOM     22  C   UNL     1       1.517   2.480  18.644  0.00  0.00    +0.000 C 
ATOM     23  F   UNL     1       1.990   1.518  19.482  0.00  0.00    +0.000 F 
ATOM     24  F   UNL     1       0.189   2.218  18.486  0.00  0.00    +0.000 F 
ATOM     25  F   UNL     1       2.092   2.244  17.434  0.00  0.00    +0.000 F 
ENDBRANCH  18  22
ENDBRANCH   1  15
TORSDOF 4
ENDMDL
MODEL 6
REMARK VINA RESULT:      -7.8      4.769      7.274
REMARK  Name = 
REMARK  4 active torsions:
REMARK  status: ('A' for Active; 'I' for Inactive)
REMARK    1  A    between atoms: N_2  and  C_4
REMARK    2  A    between atoms: C_5  and  N_6
REMARK    3  A    between atoms: N_6  and  C_7
REMARK    4  A    between atoms: C_10  and  C_11
REMARK                            x       y       z     vdW  Elec       q    Type
REMARK                         _______ _______ _______ _____ _____    ______ ____
ROOT
ATOM      1  N   UNL     1       2.216   7.914  20.495  0.00  0.00    +0.000 N 
ATOM      2  H   UNL     1       3.162   8.166  20.792  0.00  0.00    +0.000 HD
ENDROOT
BRANCH   1   4
ATOM      3  C   UNL     1       0.723   9.780  19.877  0.00  0.00    +0.000 A 
ATOM      4  C   UNL     1       1.220   8.859  20.832  0.00  0.00    +0.000 A 
ATOM      5  C   UNL     1       0.762   8.941  22.181  0.00  0.00    +0.000 A 
ATOM      6  C   UNL     1      -0.174   9.888  22.651  0.00  0.00    +0.000 A 
ATOM      7  C   UNL     1      -0.663  10.776  21.675  0.00  0.00    +0.000 A 
ATOM      8  N   UNL     1      -1.556  11.762  21.806  0.00  0.00    +0.000 NA
ATOM      9  O   UNL     1      -1.693  12.319  20.547  0.00  0.00    +0.000 OA
ATOM     10  N   UNL     1      -0.893  11.681  19.617  0.00  0.00    +0.000 NA
ATOM     11  C   UNL     1      -0.227  10.730  20.287  0.00  0.00    +0.000 A 
BRANCH   3  13
ATOM     12  O   UNL     1       0.561   9.046  17.729  0.00  0.00    +0.000 OA
ATOM     13  N   UNL     1       1.163   9.794  18.515  0.00  0.00    +0.000 N 
ATOM     14  O   UNL     1       2.145  10.492  18.229  0.00  0.00    +0.000 OA
ENDBRANCH   3  13
ENDBRANCH   1   4
BRANCH   1  15
ATOM     15  C   UNL     1       2.125   6.601  19.984  0.00  0.00    +0.000 A 
ATOM     16  C   UNL     1       1.421   5.666  20.765  0.00  0.00    +0.000 A 
ATOM     17  C   UNL     1       1.248   4.341  20.348  0.00  0.00    +0.000 A 
ATOM     18  C   UNL     1       1.787   3.907  19.132  0.00  0.00    +0.000 A 
ATOM     19  C   UNL     1       2.532   4.814  18.367  0.00  0.00    +0.000 A 
ATOM     20  C   UNL     1       2.696   6.145  18.778  0.00  0.00    +0.000 A 
ATOM     21 CL   UNL     1       3.496   7.187  17.650  0.00  0.00    +0.000 Cl
BRANCH  18  22
ATOM     22  C   UNL     1       1.541   2.513  18.609  0.00  0.00    +0.000 C 
ATOM     23  F   UNL     1       0.222   2.210  18.466  0.00  0.00    +0.000 F 
ATOM     24  F   UNL     1       2.104   2.321  17.383  0.00  0.00    +0.000 F 
ATOM     25  F   UNL     1       2.064   1.552  19.417  0.00  0.00    +0.000 F 
ENDBRANCH  18  22
ENDBRANCH   1  15
TORSDOF 4
ENDMDL
MODEL 7
REMARK VINA RESULT:      -7.7      5.047      7.534
REMARK  Name = 
REMARK  4 active torsions:
REMARK  status: ('A' for Active; 'I' for Inactive)
REMARK    1  A    between atoms: N_2  and  C_4
REMARK    2  A    between atoms: C_5  and  N_6
REMARK    3  A    between atoms: N_6  and  C_7
REMARK    4  A    between atoms: C_10  and  C_11
REMARK                            x       y       z     vdW  Elec       q    Type
REMARK                         _______ _______ _______ _____ _____    ______ ____
ROOT
ATOM      1  N   UNL     1       2.040   7.824  20.420  0.00  0.00    +0.000 N 
ATOM      2  H   UNL     1       2.626   7.944  21.249  0.00  0.00    +0.000 HD
ENDROOT
BRANCH   1   4
ATOM      3  C   UNL     1       0.599   9.713  21.091  0.00  0.00    +0.000 A 
ATOM      4  C   UNL     1       1.247   8.947  20.090  0.00  0.00    +0.000 A 
ATOM      5  C   UNL     1       1.027   9.268  18.717  0.00  0.00    +0.000 A 
ATOM      6  C   UNL     1       0.197  10.318  18.266  0.00  0.00    +0.000 A 
ATOM      7  C   UNL     1      -0.416  11.072  19.283  0.00  0.00    +0.000 A 
ATOM      8  N   UNL     1      -1.235  12.123  19.174  0.00  0.00    +0.000 NA
ATOM      9  O   UNL     1      -1.543  12.497  20.470  0.00  0.00    +0.000 OA
ATOM     10  N   UNL     1      -0.914  11.689  21.399  0.00  0.00    +0.000 NA
ATOM     11  C   UNL     1      -0.221  10.783  20.696  0.00  0.00    +0.000 A 
BRANCH   3  13
ATOM     12  O   UNL     1       1.872   9.514  22.966  0.00  0.00    +0.000 OA
ATOM     13  N   UNL     1       0.731   9.428  22.487  0.00  0.00    +0.000 N 
ATOM     14  O   UNL     1      -0.277   9.057  23.103  0.00  0.00    +0.000 OA
ENDBRANCH   3  13
ENDBRANCH   1   4
BRANCH   1  15
ATOM     15  C   UNL     1       2.044   6.503  19.922  0.00  0.00    +0.000 A 
ATOM     16  C   UNL     1       1.316   5.549  20.657  0.00  0.00    +0.000 A 
ATOM     17  C   UNL     1       1.230   4.213  20.248  0.00  0.00    +0.000 A 
ATOM     18  C   UNL     1       1.884   3.787  19.087  0.00  0.00    +0.000 A 
ATOM     19  C   UNL     1       2.652   4.715  18.372  0.00  0.00    +0.000 A 
ATOM     20  C   UNL     1       2.729   6.056  18.774  0.00  0.00    +0.000 A 
ATOM     21 CL   UNL     1       3.577   7.116  17.699  0.00  0.00    +0.000 Cl
BRANCH  18  22
ATOM     22  C   UNL     1       1.737   2.378  18.567  0.00  0.00    +0.000 C 
ATOM     23  F   UNL     1       2.384   1.448  19.321  0.00  0.00    +0.000 F 
ATOM     24  F   UNL     1       0.433   1.983  18.524  0.00  0.00    +0.000 F 
ATOM     25  F   UNL     1       2.213   2.236  17.300  0.00  0.00    +0.000 F 
ENDBRANCH  18  22
ENDBRANCH   1  15
TORSDOF 4
ENDMDL
MODEL 8
REMARK VINA RESULT:      -7.7      1.131      1.495
REMARK  Name = 
REMARK  4 active torsions:
REMARK  status: ('A' for Active; 'I' for Inactive)
REMARK    1  A    between atoms: N_2  and  C_4
REMARK    2  A    between atoms: C_5  and  N_6
REMARK    3  A    between atoms: N_6  and  C_7
REMARK    4  A    between atoms: C_10  and  C_11
REMARK                            x       y       z     vdW  Elec       q    Type
REMARK                         _______ _______ _______ _____ _____    ______ ____
ROOT
ATOM      1  N   UNL     1       2.420   7.424  20.289  0.00  0.00    +0.000 N 
ATOM      2  H   UNL     1       3.361   7.793  20.132  0.00  0.00    +0.000 HD
ENDROOT
BRANCH   1   4
ATOM      3  C   UNL     1       2.969   5.520  18.817  0.00  0.00    +0.000 A 
ATOM      4  C   UNL     1       2.239   6.079  19.895  0.00  0.00    +0.000 A 
ATOM      5  C   UNL     1       1.242   5.289  20.544  0.00  0.00    +0.000 A 
ATOM      6  C   UNL     1       0.922   3.960  20.191  0.00  0.00    +0.000 A 
ATOM      7  C   UNL     1       1.676   3.427  19.130  0.00  0.00    +0.000 A 
ATOM      8  N   UNL     1       1.616   2.209  18.583  0.00  0.00    +0.000 NA
ATOM      9  O   UNL     1       2.575   2.194  17.586  0.00  0.00    +0.000 OA
ATOM     10  N   UNL     1       3.249   3.399  17.507  0.00  0.00    +0.000 NA
ATOM     11  C   UNL     1       2.704   4.193  18.439  0.00  0.00    +0.000 A 
BRANCH   3  13
ATOM     12  O   UNL     1       3.535   7.180  17.369  0.00  0.00    +0.000 OA
ATOM     13  N   UNL     1       3.953   6.258  18.086  0.00  0.00    +0.000 N 
ATOM     14  O   UNL     1       5.132   5.890  18.164  0.00  0.00    +0.000 OA
ENDBRANCH   3  13
ENDBRANCH   1   4
BRANCH   1  15
ATOM     15  C   UNL     1       1.497   8.413  20.693  0.00  0.00    +0.000 A 
ATOM     16  C   UNL     1       1.223   8.495  22.071  0.00  0.00    +0.000 A 
ATOM     17  C   UNL     1       0.341   9.450  22.590  0.00  0.00    +0.000 A 
ATOM     18  C   UNL     1      -0.305  10.352  21.739  0.00  0.00    +0.000 A 
ATOM     19  C   UNL     1      -0.079  10.250  20.360  0.00  0.00    +0.000 A 
ATOM     20  C   UNL     1       0.813   9.302  19.840  0.00  0.00    +0.000 A 
ATOM     21 CL   UNL     1       1.116   9.408  18.138  0.00  0.00    +0.000 Cl
BRANCH  18  22
ATOM     22  C   UNL     1      -1.188  11.453  22.273  0.00  0.00    +0.000 C 
ATOM     23  F   UNL     1      -2.093  11.914  21.368  0.00  0.00    +0.000 F 
ATOM     24  F   UNL     1      -1.913  11.047  23.353  0.00  0.00    +0.000 F 
ATOM     25  F   UNL     1      -0.479  12.539  22.685  0.00  0.00    +0.000 F 
ENDBRANCH  18  22
ENDBRANCH   1  15
TORSDOF 4
ENDMDL
MODEL 9
REMARK VINA RESULT:      -7.6      5.045      7.513
REMARK  Name = 
REMARK  4 active torsions:
REMARK  status: ('A' for Active; 'I' for Inactive)
REMARK    1  A    between atoms: N_2  and  C_4
REMARK    2  A    between atoms: C_5  and  N_6
REMARK    3  A    between atoms: N_6  and  C_7
REMARK    4  A    between atoms: C_10  and  C_11
REMARK                            x       y       z     vdW  Elec       q    Type
REMARK                         _______ _______ _______ _____ _____    ______ ____
ROOT
ATOM      1  N   UNL     1       2.037   7.984  20.440  0.00  0.00    +0.000 N 
ATOM      2  H   UNL     1       2.734   8.131  21.174  0.00  0.00    +0.000 HD
ENDROOT
BRANCH   1   4
ATOM      3  C   UNL     1       0.579   9.782  21.299  0.00  0.00    +0.000 A 
ATOM      4  C   UNL     1       1.171   9.079  20.220  0.00  0.00    +0.000 A 
ATOM      5  C   UNL     1       0.820   9.435  18.883  0.00  0.00    +0.000 A 
ATOM      6  C   UNL     1      -0.089  10.461  18.542  0.00  0.00    +0.000 A 
ATOM      7  C   UNL     1      -0.644  11.152  19.634  0.00  0.00    +0.000 A 
ATOM      8  N   UNL     1      -1.513  12.168  19.633  0.00  0.00    +0.000 NA
ATOM      9  O   UNL     1      -1.725  12.485  20.963  0.00  0.00    +0.000 OA
ATOM     10  N   UNL     1      -0.984  11.677  21.806  0.00  0.00    +0.000 NA
ATOM     11  C   UNL     1      -0.316  10.826  21.014  0.00  0.00    +0.000 A 
BRANCH   3  13
ATOM     12  O   UNL     1      -0.146   9.261  23.392  0.00  0.00    +0.000 OA
ATOM     13  N   UNL     1       0.843   9.458  22.668  0.00  0.00    +0.000 N 
ATOM     14  O   UNL     1       2.020   9.461  23.050  0.00  0.00    +0.000 OA
ENDBRANCH   3  13
ENDBRANCH   1   4
BRANCH   1  15
ATOM     15  C   UNL     1       2.006   6.656  19.961  0.00  0.00    +0.000 A 
ATOM     16  C   UNL     1       1.355   5.707  20.771  0.00  0.00    +0.000 A 
ATOM     17  C   UNL     1       1.244   4.366  20.387  0.00  0.00    +0.000 A 
ATOM     18  C   UNL     1       1.793   3.929  19.177  0.00  0.00    +0.000 A 
ATOM     19  C   UNL     1       2.486   4.853  18.384  0.00  0.00    +0.000 A 
ATOM     20  C   UNL     1       2.588   6.199  18.761  0.00  0.00    +0.000 A 
ATOM     21 CL   UNL     1       3.326   7.251  17.601  0.00  0.00    +0.000 Cl
BRANCH  18  22
ATOM     22  C   UNL     1       1.611   2.512  18.690  0.00  0.00    +0.000 C 
ATOM     23  F   UNL     1       0.312   2.177  18.461  0.00  0.00    +0.000 F 
ATOM     24  F   UNL     1       2.267   2.287  17.517  0.00  0.00    +0.000 F 
ATOM     25  F   UNL     1       2.090   1.591  19.570  0.00  0.00    +0.000 F 
ENDBRANCH  18  22
ENDBRANCH   1  15
TORSDOF 4
ENDMDL
