MODEL 1
REMARK VINA RESULT:      -7.1      0.000      0.000
REMARK  Name = 
REMARK  2 active torsions:
REMARK  status: ('A' for Active; 'I' for Inactive)
REMARK    1  A    between atoms: C_2  and  C_3
REMARK    2  A    between atoms: C_4  and  N_5
REMARK                            x       y       z     vdW  Elec       q    Type
REMARK                         _______ _______ _______ _____ _____    ______ ____
ROOT
ATOM      1  C   UNL     1       3.425   6.557  18.549  0.00  0.00    +0.000 C 
ATOM      2  C   UNL     1       2.847   6.677  19.786  0.00  0.00    +0.000 C 
ATOM      3  O   UNL     1       3.235   5.823  20.807  0.00  0.00    +0.000 OA
ATOM      4  C   UNL     1       2.944   4.531  20.480  0.00  0.00    +0.000 A 
ATOM      5  N   UNL     1       2.358   3.844  21.491  0.00  0.00    +0.000 N 
ATOM      6  C   UNL     1       1.622   2.726  21.276  0.00  0.00    +0.000 A 
ATOM      7  O   UNL     1       0.983   2.124  22.158  0.00  0.00    +0.000 OA
ATOM      8  N   UNL     1       1.505   2.403  19.947  0.00  0.00    +0.000 N 
ATOM      9  C   UNL     1       1.977   3.184  18.884  0.00  0.00    +0.000 A 
ATOM     10  O   UNL     1       1.426   3.176  17.787  0.00  0.00    +0.000 OA
ATOM     11  C   UNL     1       3.038   4.153  19.170  0.00  0.00    +0.000 A 
ATOM     12  C   UNL     1       3.897   5.155  18.251  0.00  0.00    +0.000 C 
ATOM     13  C   UNL     1       5.263   4.675  18.957  0.00  0.00    +0.000 C 
ATOM     14  O   UNL     1       5.725   4.976  20.046  0.00  0.00    +0.000 OA
ATOM     15  N   UNL     1       5.855   3.738  18.116  0.00  0.00    +0.000 N 
ATOM     16  C   UNL     1       5.517   4.063  16.811  0.00  0.00    +0.000 A 
ATOM     17  C   UNL     1       6.476   3.957  15.807  0.00  0.00    +0.000 A 
ATOM     18  C   UNL     1       6.532   4.971  14.865  0.00  0.00    +0.000 A 
ATOM     19  C   UNL     1       5.585   5.995  14.901  0.00  0.00    +0.000 A 
ATOM     20  C   UNL     1       4.520   5.964  15.821  0.00  0.00    +0.000 A 
ATOM     21  C   UNL     1       4.457   4.978  16.817  0.00  0.00    +0.000 A 
ATOM     22  H   UNL     1       2.391   4.223  22.437  0.00  0.00    +0.000 HD
ATOM     23  H   UNL     1       0.724   1.789  19.752  0.00  0.00    +0.000 HD
ATOM     24  H   UNL     1       6.764   3.365  18.360  0.00  0.00    +0.000 HD
ENDROOT
BRANCH   2  25
ATOM     25  N   UNL     1       1.590   7.249  20.004  0.00  0.00    +0.000 N 
ATOM     26  H   UNL     1       0.907   7.039  19.263  0.00  0.00    +0.000 HD
ATOM     27  H   UNL     1       1.199   6.901  20.879  0.00  0.00    +0.000 HD
ENDBRANCH   2  25
BRANCH   1  29
ATOM     28  N   UNL     1       2.567   8.803  17.152  0.00  0.00    +0.000 NA
ATOM     29  C   UNL     1       2.956   7.784  17.785  0.00  0.00    +0.000 C 
ENDBRANCH   1  29
TORSDOF 2
ENDMDL
MODEL 2
REMARK VINA RESULT:      -7.0      5.831      8.757
REMARK  Name = 
REMARK  2 active torsions:
REMARK  status: ('A' for Active; 'I' for Inactive)
REMARK    1  A    between atoms: C_2  and  C_3
REMARK    2  A    between atoms: C_4  and  N_5
REMARK                            x       y       z     vdW  Elec       q    Type
REMARK                         _______ _______ _______ _____ _____    ______ ____
ROOT
ATOM      1  C   UNL     1      -0.374  10.732  21.236  0.00  0.00    +0.000 C 
ATOM      2  C   UNL     1      -1.227  11.776  21.480  0.00  0.00    +0.000 C 
ATOM      3  O   UNL     1      -1.830  12.429  20.416  0.00  0.00    +0.000 OA
ATOM      4  C   UNL     1      -0.886  13.012  19.622  0.00  0.00    +0.000 A 
ATOM      5  N   UNL     1      -1.195  14.284  19.270  0.00  0.00    +0.000 N 
ATOM      6  C   UNL     1      -0.256  15.172  18.861  0.00  0.00    +0.000 A 
ATOM      7  O   UNL     1      -0.479  16.374  18.627  0.00  0.00    +0.000 OA
ATOM      8  N   UNL     1       1.018  14.661  18.885  0.00  0.00    +0.000 N 
ATOM      9  C   UNL     1       1.370  13.401  19.386  0.00  0.00    +0.000 A 
ATOM     10  O   UNL     1       2.475  13.193  19.880  0.00  0.00    +0.000 OA
ATOM     11  C   UNL     1       0.320  12.384  19.474  0.00  0.00    +0.000 A 
ATOM     12  C   UNL     1       0.315  10.833  19.897  0.00  0.00    +0.000 C 
ATOM     13  C   UNL     1      -0.554  10.453  18.595  0.00  0.00    +0.000 C 
ATOM     14  O   UNL     1      -1.749  10.594  18.387  0.00  0.00    +0.000 OA
ATOM     15  N   UNL     1       0.330   9.967  17.636  0.00  0.00    +0.000 N 
ATOM     16  C   UNL     1       1.380   9.349  18.299  0.00  0.00    +0.000 A 
ATOM     17  C   UNL     1       1.897   8.155  17.802  0.00  0.00    +0.000 A 
ATOM     18  C   UNL     1       2.201   7.159  18.716  0.00  0.00    +0.000 A 
ATOM     19  C   UNL     1       2.068   7.416  20.081  0.00  0.00    +0.000 A 
ATOM     20  C   UNL     1       1.719   8.699  20.546  0.00  0.00    +0.000 A 
ATOM     21  C   UNL     1       1.361   9.717  19.650  0.00  0.00    +0.000 A 
ATOM     22  H   UNL     1      -2.149  14.620  19.400  0.00  0.00    +0.000 HD
ATOM     23  H   UNL     1       1.735  15.375  18.896  0.00  0.00    +0.000 HD
ATOM     24  H   UNL     1      -0.039   9.613  16.763  0.00  0.00    +0.000 HD
ENDROOT
BRANCH   2  25
ATOM     25  N   UNL     1      -1.196  12.549  22.644  0.00  0.00    +0.000 N 
ATOM     26  H   UNL     1      -1.302  11.999  23.508  0.00  0.00    +0.000 HD
ATOM     27  H   UNL     1      -0.305  13.040  22.710  0.00  0.00    +0.000 HD
ENDBRANCH   2  25
BRANCH   1  29
ATOM     28  N   UNL     1       0.096   9.609  23.736  0.00  0.00    +0.000 NA
ATOM     29  C   UNL     1      -0.117  10.119  22.602  0.00  0.00    +0.000 C 
ENDBRANCH   1  29
TORSDOF 2
ENDMDL
MODEL 3
REMARK VINA RESULT:      -6.7      1.977      5.382
REMARK  Name = 
REMARK  2 active torsions:
REMARK  status: ('A' for Active; 'I' for Inactive)
REMARK    1  A    between atoms: C_2  and  C_3
REMARK    2  A    between atoms: C_4  and  N_5
REMARK                            x       y       z     vdW  Elec       q    Type
REMARK                         _______ _______ _______ _____ _____    ______ ____
ROOT
ATOM      1  C   UNL     1       2.856   6.101  18.695  0.00  0.00    +0.000 C 
ATOM      2  C   UNL     1       3.225   6.821  17.589  0.00  0.00    +0.000 C 
ATOM      3  O   UNL     1       3.580   6.153  16.427  0.00  0.00    +0.000 OA
ATOM      4  C   UNL     1       4.681   5.377  16.644  0.00  0.00    +0.000 A 
ATOM      5  N   UNL     1       5.613   5.489  15.667  0.00  0.00    +0.000 N 
ATOM      6  C   UNL     1       6.914   5.162  15.865  0.00  0.00    +0.000 A 
ATOM      7  O   UNL     1       7.820   5.344  15.032  0.00  0.00    +0.000 OA
ATOM      8  N   UNL     1       7.180   4.755  17.149  0.00  0.00    +0.000 N 
ATOM      9  C   UNL     1       6.261   4.777  18.206  0.00  0.00    +0.000 A 
ATOM     10  O   UNL     1       6.623   4.935  19.369  0.00  0.00    +0.000 OA
ATOM     11  C   UNL     1       4.835   4.792  17.870  0.00  0.00    +0.000 A 
ATOM     12  C   UNL     1       3.491   4.734  18.750  0.00  0.00    +0.000 C 
ATOM     13  C   UNL     1       2.876   3.600  17.784  0.00  0.00    +0.000 C 
ATOM     14  O   UNL     1       2.371   3.709  16.678  0.00  0.00    +0.000 OA
ATOM     15  N   UNL     1       3.080   2.372  18.405  0.00  0.00    +0.000 N 
ATOM     16  C   UNL     1       3.051   2.579  19.777  0.00  0.00    +0.000 A 
ATOM     17  C   UNL     1       2.408   1.655  20.596  0.00  0.00    +0.000 A 
ATOM     18  C   UNL     1       1.626   2.148  21.628  0.00  0.00    +0.000 A 
ATOM     19  C   UNL     1       1.587   3.523  21.863  0.00  0.00    +0.000 A 
ATOM     20  C   UNL     1       2.399   4.406  21.126  0.00  0.00    +0.000 A 
ATOM     21  C   UNL     1       3.167   3.949  20.046  0.00  0.00    +0.000 A 
ATOM     22  H   UNL     1       5.356   5.917  14.777  0.00  0.00    +0.000 HD
ATOM     23  H   UNL     1       8.159   4.818  17.393  0.00  0.00    +0.000 HD
ATOM     24  H   UNL     1       2.702   1.537  17.979  0.00  0.00    +0.000 HD
ENDROOT
BRANCH   2  25
ATOM     25  N   UNL     1       3.729   8.123  17.642  0.00  0.00    +0.000 N 
ATOM     26  H   UNL     1       4.016   8.493  16.725  0.00  0.00    +0.000 HD
ATOM     27  H   UNL     1       3.017   8.755  18.009  0.00  0.00    +0.000 HD
ENDBRANCH   2  25
BRANCH   1  29
ATOM     28  N   UNL     1       1.850   7.998  20.463  0.00  0.00    +0.000 NA
ATOM     29  C   UNL     1       2.306   7.138  19.661  0.00  0.00    +0.000 C 
ENDBRANCH   1  29
TORSDOF 2
ENDMDL
MODEL 4
REMARK VINA RESULT:      -6.5      9.434     10.889
REMARK  Name = 
REMARK  2 active torsions:
REMARK  status: ('A' for Active; 'I' for Inactive)
REMARK    1  A    between atoms: C_2  and  C_3
REMARK    2  A    between atoms: C_4  and  N_5
REMARK                            x       y       z     vdW  Elec       q    Type
REMARK                         _______ _______ _______ _____ _____    ______ ____
ROOT
ATOM      1  C   UNL     1       9.754  13.813  20.690  0.00  0.00    +0.000 C 
ATOM      2  C   UNL     1       9.408  12.641  21.311  0.00  0.00    +0.000 C 
ATOM      3  O   UNL     1      10.000  11.454  20.908  0.00  0.00    +0.000 OA
ATOM      4  C   UNL     1       9.693  11.189  19.606  0.00  0.00    +0.000 A 
ATOM      5  N   UNL     1       9.321   9.903  19.396  0.00  0.00    +0.000 N 
ATOM      6  C   UNL     1       8.591   9.525  18.318  0.00  0.00    +0.000 A 
ATOM      7  O   UNL     1       8.141   8.379  18.138  0.00  0.00    +0.000 OA
ATOM      8  N   UNL     1       8.243  10.577  17.506  0.00  0.00    +0.000 N 
ATOM      9  C   UNL     1       8.491  11.927  17.786  0.00  0.00    +0.000 A 
ATOM     10  O   UNL     1       7.750  12.815  17.375  0.00  0.00    +0.000 OA
ATOM     11  C   UNL     1       9.557  12.239  18.741  0.00  0.00    +0.000 A 
ATOM     12  C   UNL     1      10.205  13.615  19.264  0.00  0.00    +0.000 C 
ATOM     13  C   UNL     1      11.690  13.034  19.037  0.00  0.00    +0.000 C 
ATOM     14  O   UNL     1      12.333  12.253  19.720  0.00  0.00    +0.000 OA
ATOM     15  N   UNL     1      12.147  13.530  17.821  0.00  0.00    +0.000 N 
ATOM     16  C   UNL     1      11.567  14.775  17.624  0.00  0.00    +0.000 A 
ATOM     17  C   UNL     1      12.330  15.810  17.090  0.00  0.00    +0.000 A 
ATOM     18  C   UNL     1      12.184  17.069  17.651  0.00  0.00    +0.000 A 
ATOM     19  C   UNL     1      11.230  17.269  18.649  0.00  0.00    +0.000 A 
ATOM     20  C   UNL     1      10.351  16.236  19.029  0.00  0.00    +0.000 A 
ATOM     21  C   UNL     1      10.499  14.939  18.515  0.00  0.00    +0.000 A 
ATOM     22  H   UNL     1       9.514   9.203  20.113  0.00  0.00    +0.000 HD
ATOM     23  H   UNL     1       7.459  10.372  16.901  0.00  0.00    +0.000 HD
ATOM     24  H   UNL     1      13.095  13.326  17.532  0.00  0.00    +0.000 HD
ENDROOT
BRANCH   2  25
ATOM     25  N   UNL     1       8.195  12.444  21.978  0.00  0.00    +0.000 N 
ATOM     26  H   UNL     1       7.717  13.320  22.231  0.00  0.00    +0.000 HD
ATOM     27  H   UNL     1       7.557  11.914  21.386  0.00  0.00    +0.000 HD
ENDBRANCH   2  25
BRANCH   1  29
ATOM     28  N   UNL     1       8.591  15.802  22.247  0.00  0.00    +0.000 NA
ATOM     29  C   UNL     1       9.118  14.900  21.541  0.00  0.00    +0.000 C 
ENDBRANCH   1  29
TORSDOF 2
ENDMDL
MODEL 5
REMARK VINA RESULT:      -6.3      8.350     10.940
REMARK  Name = 
REMARK  2 active torsions:
REMARK  status: ('A' for Active; 'I' for Inactive)
REMARK    1  A    between atoms: C_2  and  C_3
REMARK    2  A    between atoms: C_4  and  N_5
REMARK                            x       y       z     vdW  Elec       q    Type
REMARK                         _______ _______ _______ _____ _____    ______ ____
ROOT
ATOM      1  C   UNL     1      -2.626  11.802  19.026  0.00  0.00    +0.000 C 
ATOM      2  C   UNL     1      -1.757  11.401  18.046  0.00  0.00    +0.000 C 
ATOM      3  O   UNL     1      -0.451  11.081  18.380  0.00  0.00    +0.000 OA
ATOM      4  C   UNL     1       0.186  12.171  18.898  0.00  0.00    +0.000 A 
ATOM      5  N   UNL     1       1.428  12.357  18.386  0.00  0.00    +0.000 N 
ATOM      6  C   UNL     1       2.056  13.557  18.425  0.00  0.00    +0.000 A 
ATOM      7  O   UNL     1       3.148  13.799  17.880  0.00  0.00    +0.000 OA
ATOM      8  N   UNL     1       1.292  14.549  18.989  0.00  0.00    +0.000 N 
ATOM      9  C   UNL     1      -0.045  14.408  19.385  0.00  0.00    +0.000 A 
ATOM     10  O   UNL     1      -0.823  15.357  19.366  0.00  0.00    +0.000 OA
ATOM     11  C   UNL     1      -0.539  13.055  19.648  0.00  0.00    +0.000 A 
ATOM     12  C   UNL     1      -1.937  12.473  20.188  0.00  0.00    +0.000 C 
ATOM     13  C   UNL     1      -1.167  11.520  21.235  0.00  0.00    +0.000 C 
ATOM     14  O   UNL     1      -0.586  10.463  21.044  0.00  0.00    +0.000 OA
ATOM     15  N   UNL     1      -1.198  12.155  22.472  0.00  0.00    +0.000 N 
ATOM     16  C   UNL     1      -2.365  12.901  22.539  0.00  0.00    +0.000 A 
ATOM     17  C   UNL     1      -3.092  12.933  23.726  0.00  0.00    +0.000 A 
ATOM     18  C   UNL     1      -4.472  12.848  23.635  0.00  0.00    +0.000 A 
ATOM     19  C   UNL     1      -5.077  12.826  22.378  0.00  0.00    +0.000 A 
ATOM     20  C   UNL     1      -4.315  12.983  21.205  0.00  0.00    +0.000 A 
ATOM     21  C   UNL     1      -2.914  13.027  21.256  0.00  0.00    +0.000 A 
ATOM     22  H   UNL     1       1.875  11.597  17.873  0.00  0.00    +0.000 HD
ATOM     23  H   UNL     1       1.600  15.480  18.742  0.00  0.00    +0.000 HD
ATOM     24  H   UNL     1      -0.818  11.677  23.279  0.00  0.00    +0.000 HD
ENDROOT
BRANCH   2  25
ATOM     25  N   UNL     1      -1.908  11.723  16.694  0.00  0.00    +0.000 N 
ATOM     26  H   UNL     1      -1.259  12.452  16.368  0.00  0.00    +0.000 HD
ATOM     27  H   UNL     1      -1.742  10.897  16.121  0.00  0.00    +0.000 HD
ENDBRANCH   2  25
BRANCH   1  29
ATOM     28  N   UNL     1      -5.117  11.830  17.788  0.00  0.00    +0.000 NA
ATOM     29  C   UNL     1      -3.987  11.817  18.350  0.00  0.00    +0.000 C 
ENDBRANCH   1  29
TORSDOF 2
ENDMDL
MODEL 6
REMARK VINA RESULT:      -6.2      7.983     11.048
REMARK  Name = 
REMARK  2 active torsions:
REMARK  status: ('A' for Active; 'I' for Inactive)
REMARK    1  A    between atoms: C_2  and  C_3
REMARK    2  A    between atoms: C_4  and  N_5
REMARK                            x       y       z     vdW  Elec       q    Type
REMARK                         _______ _______ _______ _____ _____    ______ ____
ROOT
ATOM      1  C   UNL     1      -0.767  11.845  21.043  0.00  0.00    +0.000 C 
ATOM      2  C   UNL     1      -0.280  11.067  20.026  0.00  0.00    +0.000 C 
ATOM      3  O   UNL     1      -0.146  11.608  18.756  0.00  0.00    +0.000 OA
ATOM      4  C   UNL     1      -1.364  11.982  18.270  0.00  0.00    +0.000 A 
ATOM      5  N   UNL     1      -1.570  11.595  16.988  0.00  0.00    +0.000 N 
ATOM      6  C   UNL     1      -2.811  11.481  16.455  0.00  0.00    +0.000 A 
ATOM      7  O   UNL     1      -3.051  11.032  15.319  0.00  0.00    +0.000 OA
ATOM      8  N   UNL     1      -3.813  11.754  17.354  0.00  0.00    +0.000 N 
ATOM      9  C   UNL     1      -3.622  12.009  18.718  0.00  0.00    +0.000 A 
ATOM     10  O   UNL     1      -4.477  11.721  19.551  0.00  0.00    +0.000 OA
ATOM     11  C   UNL     1      -2.297  12.462  19.148  0.00  0.00    +0.000 A 
ATOM     12  C   UNL     1      -1.695  12.934  20.562  0.00  0.00    +0.000 C 
ATOM     13  C   UNL     1      -1.018  14.224  19.874  0.00  0.00    +0.000 C 
ATOM     14  O   UNL     1      -0.002  14.305  19.201  0.00  0.00    +0.000 OA
ATOM     15  N   UNL     1      -1.858  15.307  20.113  0.00  0.00    +0.000 N 
ATOM     16  C   UNL     1      -2.493  15.094  21.327  0.00  0.00    +0.000 A 
ATOM     17  C   UNL     1      -2.668  16.160  22.206  0.00  0.00    +0.000 A 
ATOM     18  C   UNL     1      -2.441  15.925  23.552  0.00  0.00    +0.000 A 
ATOM     19  C   UNL     1      -2.140  14.633  23.982  0.00  0.00    +0.000 A 
ATOM     20  C   UNL     1      -2.155  13.549  23.083  0.00  0.00    +0.000 A 
ATOM     21  C   UNL     1      -2.337  13.755  21.708  0.00  0.00    +0.000 A 
ATOM     22  H   UNL     1      -0.776  11.290  16.425  0.00  0.00    +0.000 HD
ATOM     23  H   UNL     1      -4.710  11.374  17.081  0.00  0.00    +0.000 HD
ATOM     24  H   UNL     1      -1.568  16.229  19.811  0.00  0.00    +0.000 HD
ENDROOT
BRANCH   2  25
ATOM     25  N   UNL     1      -0.341   9.671  20.018  0.00  0.00    +0.000 N 
ATOM     26  H   UNL     1      -0.672   9.277  19.127  0.00  0.00    +0.000 HD
ATOM     27  H   UNL     1       0.587   9.283  20.190  0.00  0.00    +0.000 HD
ENDBRANCH   2  25
BRANCH   1  29
ATOM     28  N   UNL     1      -0.344  10.340  23.343  0.00  0.00    +0.000 NA
ATOM     29  C   UNL     1      -0.536  11.023  22.300  0.00  0.00    +0.000 C 
ENDBRANCH   1  29
TORSDOF 2
ENDMDL
MODEL 7
REMARK VINA RESULT:      -6.0     11.036     13.671
REMARK  Name = 
REMARK  2 active torsions:
REMARK  status: ('A' for Active; 'I' for Inactive)
REMARK    1  A    between atoms: C_2  and  C_3
REMARK    2  A    between atoms: C_4  and  N_5
REMARK                            x       y       z     vdW  Elec       q    Type
REMARK                         _______ _______ _______ _____ _____    ______ ____
ROOT
ATOM      1  C   UNL     1      -7.112  13.959  19.161  0.00  0.00    +0.000 C 
ATOM      2  C   UNL     1      -6.902  13.458  17.903  0.00  0.00    +0.000 C 
ATOM      3  O   UNL     1      -6.692  12.098  17.736  0.00  0.00    +0.000 OA
ATOM      4  C   UNL     1      -5.561  11.708  18.391  0.00  0.00    +0.000 A 
ATOM      5  N   UNL     1      -4.767  10.899  17.650  0.00  0.00    +0.000 N 
ATOM      6  C   UNL     1      -3.447  10.739  17.914  0.00  0.00    +0.000 A 
ATOM      7  O   UNL     1      -2.660  10.089  17.201  0.00  0.00    +0.000 OA
ATOM      8  N   UNL     1      -3.009  11.506  18.965  0.00  0.00    +0.000 N 
ATOM      9  C   UNL     1      -3.781  12.457  19.644  0.00  0.00    +0.000 A 
ATOM     10  O   UNL     1      -3.272  13.448  20.160  0.00  0.00    +0.000 OA
ATOM     11  C   UNL     1      -5.239  12.334  19.564  0.00  0.00    +0.000 A 
ATOM     12  C   UNL     1      -6.455  13.137  20.242  0.00  0.00    +0.000 C 
ATOM     13  C   UNL     1      -7.174  11.756  20.652  0.00  0.00    +0.000 C 
ATOM     14  O   UNL     1      -7.822  10.980  19.966  0.00  0.00    +0.000 OA
ATOM     15  N   UNL     1      -6.871  11.513  21.988  0.00  0.00    +0.000 N 
ATOM     16  C   UNL     1      -6.724  12.738  22.621  0.00  0.00    +0.000 A 
ATOM     17  C   UNL     1      -7.240  12.916  23.902  0.00  0.00    +0.000 A 
ATOM     18  C   UNL     1      -7.887  14.111  24.173  0.00  0.00    +0.000 A 
ATOM     19  C   UNL     1      -7.916  15.111  23.200  0.00  0.00    +0.000 A 
ATOM     20  C   UNL     1      -7.221  14.960  21.985  0.00  0.00    +0.000 A 
ATOM     21  C   UNL     1      -6.594  13.748  21.659  0.00  0.00    +0.000 A 
ATOM     22  H   UNL     1      -5.144  10.461  16.809  0.00  0.00    +0.000 HD
ATOM     23  H   UNL     1      -2.006  11.643  18.970  0.00  0.00    +0.000 HD
ATOM     24  H   UNL     1      -7.290  10.716  22.450  0.00  0.00    +0.000 HD
ENDROOT
BRANCH   2  25
ATOM     25  N   UNL     1      -6.415  14.217  16.835  0.00  0.00    +0.000 N 
ATOM     26  H   UNL     1      -7.050  14.972  16.542  0.00  0.00    +0.000 HD
ATOM     27  H   UNL     1      -5.531  14.653  17.095  0.00  0.00    +0.000 HD
ENDBRANCH   2  25
BRANCH   1  29
ATOM     28  N   UNL     1      -7.906  16.592  18.743  0.00  0.00    +0.000 NA
ATOM     29  C   UNL     1      -7.546  15.398  18.932  0.00  0.00    +0.000 C 
ENDBRANCH   1  29
TORSDOF 2
ENDMDL
MODEL 8
REMARK VINA RESULT:      -6.0     10.353     12.209
REMARK  Name = 
REMARK  2 active torsions:
REMARK  status: ('A' for Active; 'I' for Inactive)
REMARK    1  A    between atoms: C_2  and  C_3
REMARK    2  A    between atoms: C_4  and  N_5
REMARK                            x       y       z     vdW  Elec       q    Type
REMARK                         _______ _______ _______ _____ _____    ______ ____
ROOT
ATOM      1  C   UNL     1      -6.027  13.798  18.410  0.00  0.00    +0.000 C 
ATOM      2  C   UNL     1      -6.603  14.661  19.305  0.00  0.00    +0.000 C 
ATOM      3  O   UNL     1      -6.109  14.735  20.597  0.00  0.00    +0.000 OA
ATOM      4  C   UNL     1      -6.251  13.534  21.229  0.00  0.00    +0.000 A 
ATOM      5  N   UNL     1      -6.743  13.646  22.486  0.00  0.00    +0.000 N 
ATOM      6  C   UNL     1      -7.346  12.613  23.124  0.00  0.00    +0.000 A 
ATOM      7  O   UNL     1      -7.902  12.699  24.234  0.00  0.00    +0.000 OA
ATOM      8  N   UNL     1      -7.438  11.481  22.352  0.00  0.00    +0.000 N 
ATOM      9  C   UNL     1      -7.070  11.395  21.003  0.00  0.00    +0.000 A 
ATOM     10  O   UNL     1      -7.627  10.617  20.234  0.00  0.00    +0.000 OA
ATOM     11  C   UNL     1      -6.126  12.390  20.489  0.00  0.00    +0.000 A 
ATOM     12  C   UNL     1      -5.399  12.595  19.070  0.00  0.00    +0.000 C 
ATOM     13  C   UNL     1      -3.979  12.816  19.799  0.00  0.00    +0.000 C 
ATOM     14  O   UNL     1      -3.545  13.801  20.376  0.00  0.00    +0.000 OA
ATOM     15  N   UNL     1      -3.290  11.610  19.737  0.00  0.00    +0.000 N 
ATOM     16  C   UNL     1      -3.677  10.958  18.575  0.00  0.00    +0.000 A 
ATOM     17  C   UNL     1      -2.722  10.290  17.813  0.00  0.00    +0.000 A 
ATOM     18  C   UNL     1      -2.793  10.423  16.436  0.00  0.00    +0.000 A 
ATOM     19  C   UNL     1      -3.852  11.133  15.869  0.00  0.00    +0.000 A 
ATOM     20  C   UNL     1      -4.897  11.635  16.667  0.00  0.00    +0.000 A 
ATOM     21  C   UNL     1      -4.836  11.557  18.067  0.00  0.00    +0.000 A 
ATOM     22  H   UNL     1      -6.745  14.559  22.942  0.00  0.00    +0.000 HD
ATOM     23  H   UNL     1      -8.144  10.833  22.676  0.00  0.00    +0.000 HD
ATOM     24  H   UNL     1      -2.342  11.567  20.088  0.00  0.00    +0.000 HD
ENDROOT
BRANCH   2  25
ATOM     25  N   UNL     1      -7.916  15.130  19.197  0.00  0.00    +0.000 N 
ATOM     26  H   UNL     1      -8.558  14.719  19.888  0.00  0.00    +0.000 HD
ATOM     27  H   UNL     1      -7.934  16.140  19.334  0.00  0.00    +0.000 HD
ENDBRANCH   2  25
BRANCH   1  29
ATOM     28  N   UNL     1      -7.154  14.472  15.958  0.00  0.00    +0.000 NA
ATOM     29  C   UNL     1      -6.643  14.166  17.070  0.00  0.00    +0.000 C 
ENDBRANCH   1  29
TORSDOF 2
ENDMDL
MODEL 9
REMARK VINA RESULT:      -6.0      9.920     11.923
REMARK  Name = 
REMARK  2 active torsions:
REMARK  status: ('A' for Active; 'I' for Inactive)
REMARK    1  A    between atoms: C_2  and  C_3
REMARK    2  A    between atoms: C_4  and  N_5
REMARK                            x       y       z     vdW  Elec       q    Type
REMARK                         _______ _______ _______ _____ _____    ______ ____
ROOT
ATOM      1  C   UNL     1      10.257  15.124  18.965  0.00  0.00    +0.000 C 
ATOM      2  C   UNL     1       9.879  14.541  17.784  0.00  0.00    +0.000 C 
ATOM      3  O   UNL     1       8.730  13.766  17.742  0.00  0.00    +0.000 OA
ATOM      4  C   UNL     1       8.857  12.687  18.566  0.00  0.00    +0.000 A 
ATOM      5  N   UNL     1       8.448  11.528  17.994  0.00  0.00    +0.000 N 
ATOM      6  C   UNL     1       8.859  10.315  18.439  0.00  0.00    +0.000 A 
ATOM      7  O   UNL     1       8.592   9.234  17.884  0.00  0.00    +0.000 OA
ATOM      8  N   UNL     1       9.748  10.395  19.483  0.00  0.00    +0.000 N 
ATOM      9  C   UNL     1      10.293  11.583  19.986  0.00  0.00    +0.000 A 
ATOM     10  O   UNL     1      11.411  11.612  20.493  0.00  0.00    +0.000 OA
ATOM     11  C   UNL     1       9.570  12.830  19.723  0.00  0.00    +0.000 A 
ATOM     12  C   UNL     1       9.796  14.355  20.178  0.00  0.00    +0.000 C 
ATOM     13  C   UNL     1       8.243  14.492  20.586  0.00  0.00    +0.000 C 
ATOM     14  O   UNL     1       7.262  14.650  19.877  0.00  0.00    +0.000 OA
ATOM     15  N   UNL     1       8.162  14.318  21.964  0.00  0.00    +0.000 N 
ATOM     16  C   UNL     1       9.341  14.786  22.523  0.00  0.00    +0.000 A 
ATOM     17  C   UNL     1       9.298  15.513  23.709  0.00  0.00    +0.000 A 
ATOM     18  C   UNL     1      10.114  16.629  23.808  0.00  0.00    +0.000 A 
ATOM     19  C   UNL     1      11.001  16.923  22.773  0.00  0.00    +0.000 A 
ATOM     20  C   UNL     1      11.145  16.056  21.673  0.00  0.00    +0.000 A 
ATOM     21  C   UNL     1      10.304  14.943  21.518  0.00  0.00    +0.000 A 
ATOM     22  H   UNL     1       7.885  11.561  17.144  0.00  0.00    +0.000 HD
ATOM     23  H   UNL     1      10.293   9.552  19.609  0.00  0.00    +0.000 HD
ATOM     24  H   UNL     1       7.267  14.433  22.422  0.00  0.00    +0.000 HD
ENDROOT
BRANCH   2  25
ATOM     25  N   UNL     1      10.763  14.259  16.738  0.00  0.00    +0.000 N 
ATOM     26  H   UNL     1      10.539  13.391  16.232  0.00  0.00    +0.000 HD
ATOM     27  H   UNL     1      10.745  15.017  16.056  0.00  0.00    +0.000 HD
ENDBRANCH   2  25
BRANCH   1  29
ATOM     28  N   UNL     1      12.310  16.864  18.263  0.00  0.00    +0.000 NA
ATOM     29  C   UNL     1      11.379  16.075  18.581  0.00  0.00    +0.000 C 
ENDBRANCH   1  29
TORSDOF 2
ENDMDL
