MODEL 1
REMARK VINA RESULT:      -7.6      0.000      0.000
REMARK  Name = 
REMARK  3 active torsions:
REMARK  status: ('A' for Active; 'I' for Inactive)
REMARK    1  A    between atoms: C_2  and  C_3
REMARK    2  A    between atoms: C_2  and  C_17
REMARK    3  A    between atoms: C_3  and  N_4
REMARK                            x       y       z     vdW  Elec       q    Type
REMARK                         _______ _______ _______ _____ _____    ______ ____
ROOT
ATOM      1  N   UNL     1       2.935   5.999  18.776  0.00  0.00    +0.000 N 
ATOM      2  C   UNL     1       3.967   5.860  17.844  0.00  0.00    +0.000 C 
ATOM      3  N   UNL     1       4.826   6.756  17.502  0.00  0.00    +0.000 NA
ATOM      4  C   UNL     1       5.828   6.317  16.515  0.00  0.00    +0.000 C 
ATOM      5  C   UNL     1       5.306   5.242  15.563  0.00  0.00    +0.000 C 
ATOM      6  C   UNL     1       4.795   4.049  16.362  0.00  0.00    +0.000 C 
ATOM      7  N   UNL     1       3.894   4.559  17.354  0.00  0.00    +0.000 N 
ATOM      8  C   UNL     1       2.892   3.866  18.011  0.00  0.00    +0.000 A 
ATOM      9  C   UNL     1       2.463   2.561  17.894  0.00  0.00    +0.000 A 
ATOM     10  C   UNL     1       1.395   2.153  18.697  0.00  0.00    +0.000 A 
ATOM     11  C   UNL     1       0.797   3.043  19.607  0.00  0.00    +0.000 A 
ATOM     12  C   UNL     1       1.250   4.362  19.730  0.00  0.00    +0.000 A 
ATOM     13  C   UNL     1       2.288   4.769  18.919  0.00  0.00    +0.000 A 
ENDROOT
BRANCH   1  14
ATOM     14  C   UNL     1       2.708   7.166  19.600  0.00  0.00    +0.000 C 
BRANCH  14  16
ATOM     15  O   UNL     1       1.860   8.273  17.664  0.00  0.00    +0.000 OA
ATOM     16  C   UNL     1       1.847   8.217  18.899  0.00  0.00    +0.000 C 
BRANCH  16  17
ATOM     17  C   UNL     1       0.993   9.120  19.669  0.00  0.00    +0.000 A 
ATOM     18  C   UNL     1       0.180  10.112  19.140  0.00  0.00    +0.000 A 
ATOM     19  C   UNL     1      -0.570  10.804  20.132  0.00  0.00    +0.000 A 
ATOM     20  C   UNL     1      -0.287  10.320  21.384  0.00  0.00    +0.000 A 
ATOM     21 BR   UNL     1      -1.075  10.975  22.953  0.00  0.00    +0.000 Br
ATOM     22  S   UNL     1       0.844   9.063  21.374  0.00  0.00    +0.000 S 
ENDBRANCH  16  17
ENDBRANCH  14  16
ENDBRANCH   1  14
TORSDOF 3
ENDMDL
MODEL 2
REMARK VINA RESULT:      -7.3      3.600      6.180
REMARK  Name = 
REMARK  3 active torsions:
REMARK  status: ('A' for Active; 'I' for Inactive)
REMARK    1  A    between atoms: C_2  and  C_3
REMARK    2  A    between atoms: C_2  and  C_17
REMARK    3  A    between atoms: C_3  and  N_4
REMARK                            x       y       z     vdW  Elec       q    Type
REMARK                         _______ _______ _______ _____ _____    ______ ____
ROOT
ATOM      1  N   UNL     1       3.327   4.889  17.885  0.00  0.00    +0.000 N 
ATOM      2  C   UNL     1       3.269   4.074  19.019  0.00  0.00    +0.000 C 
ATOM      3  N   UNL     1       3.665   2.852  19.113  0.00  0.00    +0.000 NA
ATOM      4  C   UNL     1       3.513   2.248  20.448  0.00  0.00    +0.000 C 
ATOM      5  C   UNL     1       2.335   2.818  21.238  0.00  0.00    +0.000 C 
ATOM      6  C   UNL     1       2.476   4.330  21.357  0.00  0.00    +0.000 C 
ATOM      7  N   UNL     1       2.706   4.839  20.036  0.00  0.00    +0.000 N 
ATOM      8  C   UNL     1       2.479   6.128  19.584  0.00  0.00    +0.000 A 
ATOM      9  C   UNL     1       1.968   7.237  20.221  0.00  0.00    +0.000 A 
ATOM     10  C   UNL     1       1.843   8.415  19.479  0.00  0.00    +0.000 A 
ATOM     11  C   UNL     1       2.246   8.463  18.132  0.00  0.00    +0.000 A 
ATOM     12  C   UNL     1       2.780   7.335  17.498  0.00  0.00    +0.000 A 
ATOM     13  C   UNL     1       2.880   6.169  18.226  0.00  0.00    +0.000 A 
ENDROOT
BRANCH   1  14
ATOM     14  C   UNL     1       3.936   4.523  16.625  0.00  0.00    +0.000 C 
BRANCH  14  16
ATOM     15  O   UNL     1       5.942   3.273  16.295  0.00  0.00    +0.000 OA
ATOM     16  C   UNL     1       5.446   4.313  16.746  0.00  0.00    +0.000 C 
BRANCH  16  17
ATOM     17  C   UNL     1       6.298   5.336  17.349  0.00  0.00    +0.000 A 
ATOM     18  C   UNL     1       7.162   5.141  18.418  0.00  0.00    +0.000 A 
ATOM     19  C   UNL     1       7.894   6.312  18.760  0.00  0.00    +0.000 A 
ATOM     20  C   UNL     1       7.548   7.360  17.946  0.00  0.00    +0.000 A 
ATOM     21 BR   UNL     1       8.296   9.073  18.084  0.00  0.00    +0.000 Br
ATOM     22  S   UNL     1       6.379   6.953  16.794  0.00  0.00    +0.000 S 
ENDBRANCH  16  17
ENDBRANCH  14  16
ENDBRANCH   1  14
TORSDOF 3
ENDMDL
MODEL 3
REMARK VINA RESULT:      -7.3      0.780      1.003
REMARK  Name = 
REMARK  3 active torsions:
REMARK  status: ('A' for Active; 'I' for Inactive)
REMARK    1  A    between atoms: C_2  and  C_3
REMARK    2  A    between atoms: C_2  and  C_17
REMARK    3  A    between atoms: C_3  and  N_4
REMARK                            x       y       z     vdW  Elec       q    Type
REMARK                         _______ _______ _______ _____ _____    ______ ____
ROOT
ATOM      1  N   UNL     1       3.031   5.880  18.824  0.00  0.00    +0.000 N 
ATOM      2  C   UNL     1       4.031   5.769  17.854  0.00  0.00    +0.000 C 
ATOM      3  N   UNL     1       4.909   6.659  17.544  0.00  0.00    +0.000 NA
ATOM      4  C   UNL     1       5.867   6.253  16.501  0.00  0.00    +0.000 C 
ATOM      5  C   UNL     1       5.283   5.257  15.499  0.00  0.00    +0.000 C 
ATOM      6  C   UNL     1       4.757   4.032  16.237  0.00  0.00    +0.000 C 
ATOM      7  N   UNL     1       3.902   4.505  17.287  0.00  0.00    +0.000 N 
ATOM      8  C   UNL     1       2.897   3.802  17.928  0.00  0.00    +0.000 A 
ATOM      9  C   UNL     1       2.422   2.522  17.743  0.00  0.00    +0.000 A 
ATOM     10  C   UNL     1       1.365   2.095  18.551  0.00  0.00    +0.000 A 
ATOM     11  C   UNL     1       0.822   2.944  19.533  0.00  0.00    +0.000 A 
ATOM     12  C   UNL     1       1.321   4.238  19.725  0.00  0.00    +0.000 A 
ATOM     13  C   UNL     1       2.348   4.663  18.910  0.00  0.00    +0.000 A 
ENDROOT
BRANCH   1  14
ATOM     14  C   UNL     1       2.866   6.999  19.727  0.00  0.00    +0.000 C 
BRANCH  14  16
ATOM     15  O   UNL     1       1.843   8.208  17.943  0.00  0.00    +0.000 OA
ATOM     16  C   UNL     1       1.923   8.065  19.169  0.00  0.00    +0.000 C 
BRANCH  16  17
ATOM     17  C   UNL     1       1.101   8.879  20.062  0.00  0.00    +0.000 A 
ATOM     18  C   UNL     1       0.804   8.581  21.384  0.00  0.00    +0.000 A 
ATOM     19  C   UNL     1       0.016   9.583  22.016  0.00  0.00    +0.000 A 
ATOM     20  C   UNL     1      -0.270  10.602  21.144  0.00  0.00    +0.000 A 
ATOM     21 BR   UNL     1      -1.287  12.107  21.604  0.00  0.00    +0.000 Br
ATOM     22  S   UNL     1       0.394  10.370  19.606  0.00  0.00    +0.000 S 
ENDBRANCH  16  17
ENDBRANCH  14  16
ENDBRANCH   1  14
TORSDOF 3
ENDMDL
MODEL 4
REMARK VINA RESULT:      -7.2      0.756      3.321
REMARK  Name = 
REMARK  3 active torsions:
REMARK  status: ('A' for Active; 'I' for Inactive)
REMARK    1  A    between atoms: C_2  and  C_3
REMARK    2  A    between atoms: C_2  and  C_17
REMARK    3  A    between atoms: C_3  and  N_4
REMARK                            x       y       z     vdW  Elec       q    Type
REMARK                         _______ _______ _______ _____ _____    ______ ____
ROOT
ATOM      1  N   UNL     1       3.140   5.846  18.907  0.00  0.00    +0.000 N 
ATOM      2  C   UNL     1       2.410   4.657  18.990  0.00  0.00    +0.000 C 
ATOM      3  N   UNL     1       1.451   4.395  19.809  0.00  0.00    +0.000 NA
ATOM      4  C   UNL     1       0.837   3.065  19.646  0.00  0.00    +0.000 C 
ATOM      5  C   UNL     1       1.811   2.011  19.120  0.00  0.00    +0.000 C 
ATOM      6  C   UNL     1       2.414   2.479  17.802  0.00  0.00    +0.000 C 
ATOM      7  N   UNL     1       2.914   3.806  18.011  0.00  0.00    +0.000 N 
ATOM      8  C   UNL     1       3.886   4.461  17.275  0.00  0.00    +0.000 A 
ATOM      9  C   UNL     1       4.644   4.048  16.201  0.00  0.00    +0.000 A 
ATOM     10  C   UNL     1       5.575   4.949  15.676  0.00  0.00    +0.000 A 
ATOM     11  C   UNL     1       5.712   6.240  16.219  0.00  0.00    +0.000 A 
ATOM     12  C   UNL     1       4.926   6.655  17.300  0.00  0.00    +0.000 A 
ATOM     13  C   UNL     1       4.027   5.756  17.831  0.00  0.00    +0.000 A 
ENDROOT
BRANCH   1  14
ATOM     14  C   UNL     1       2.877   7.042  19.678  0.00  0.00    +0.000 C 
BRANCH  14  16
ATOM     15  O   UNL     1       1.879   7.965  17.718  0.00  0.00    +0.000 OA
ATOM     16  C   UNL     1       1.945   8.012  18.952  0.00  0.00    +0.000 C 
BRANCH  16  17
ATOM     17  C   UNL     1       1.117   8.957  19.700  0.00  0.00    +0.000 A 
ATOM     18  C   UNL     1       0.410  10.019  19.155  0.00  0.00    +0.000 A 
ATOM     19  C   UNL     1      -0.342  10.741  20.124  0.00  0.00    +0.000 A 
ATOM     20  C   UNL     1      -0.166  10.208  21.375  0.00  0.00    +0.000 A 
ATOM     21 BR   UNL     1      -0.990  10.882  22.917  0.00  0.00    +0.000 Br
ATOM     22  S   UNL     1       0.870   8.871  21.391  0.00  0.00    +0.000 S 
ENDBRANCH  16  17
ENDBRANCH  14  16
ENDBRANCH   1  14
TORSDOF 3
ENDMDL
MODEL 5
REMARK VINA RESULT:      -7.1      1.239      1.342
REMARK  Name = 
REMARK  3 active torsions:
REMARK  status: ('A' for Active; 'I' for Inactive)
REMARK    1  A    between atoms: C_2  and  C_3
REMARK    2  A    between atoms: C_2  and  C_17
REMARK    3  A    between atoms: C_3  and  N_4
REMARK                            x       y       z     vdW  Elec       q    Type
REMARK                         _______ _______ _______ _____ _____    ______ ____
ROOT
ATOM      1  N   UNL     1       3.236   6.143  17.777  0.00  0.00    +0.000 N 
ATOM      2  C   UNL     1       4.613   6.145  17.544  0.00  0.00    +0.000 C 
ATOM      3  N   UNL     1       5.379   7.175  17.447  0.00  0.00    +0.000 NA
ATOM      4  C   UNL     1       6.806   6.874  17.232  0.00  0.00    +0.000 C 
ATOM      5  C   UNL     1       7.040   5.572  16.467  0.00  0.00    +0.000 C 
ATOM      6  C   UNL     1       6.361   4.418  17.193  0.00  0.00    +0.000 C 
ATOM      7  N   UNL     1       5.005   4.813  17.443  0.00  0.00    +0.000 N 
ATOM      8  C   UNL     1       3.922   3.985  17.679  0.00  0.00    +0.000 A 
ATOM      9  C   UNL     1       3.818   2.611  17.713  0.00  0.00    +0.000 A 
ATOM     10  C   UNL     1       2.560   2.059  17.964  0.00  0.00    +0.000 A 
ATOM     11  C   UNL     1       1.444   2.885  18.193  0.00  0.00    +0.000 A 
ATOM     12  C   UNL     1       1.562   4.279  18.173  0.00  0.00    +0.000 A 
ATOM     13  C   UNL     1       2.800   4.821  17.901  0.00  0.00    +0.000 A 
ENDROOT
BRANCH   1  14
ATOM     14  C   UNL     1       2.434   7.318  18.045  0.00  0.00    +0.000 C 
BRANCH  14  16
ATOM     15  O   UNL     1       2.678   6.726  20.344  0.00  0.00    +0.000 OA
ATOM     16  C   UNL     1       2.173   7.518  19.538  0.00  0.00    +0.000 C 
BRANCH  16  17
ATOM     17  C   UNL     1       1.373   8.645  20.014  0.00  0.00    +0.000 A 
ATOM     18  C   UNL     1       0.856   9.661  19.223  0.00  0.00    +0.000 A 
ATOM     19  C   UNL     1       0.080  10.598  19.959  0.00  0.00    +0.000 A 
ATOM     20  C   UNL     1       0.047  10.267  21.290  0.00  0.00    +0.000 A 
ATOM     21 BR   UNL     1      -0.874  11.261  22.585  0.00  0.00    +0.000 Br
ATOM     22  S   UNL     1       0.920   8.864  21.650  0.00  0.00    +0.000 S 
ENDBRANCH  16  17
ENDBRANCH  14  16
ENDBRANCH   1  14
TORSDOF 3
ENDMDL
MODEL 6
REMARK VINA RESULT:      -7.0      1.095      3.476
REMARK  Name = 
REMARK  3 active torsions:
REMARK  status: ('A' for Active; 'I' for Inactive)
REMARK    1  A    between atoms: C_2  and  C_3
REMARK    2  A    between atoms: C_2  and  C_17
REMARK    3  A    between atoms: C_3  and  N_4
REMARK                            x       y       z     vdW  Elec       q    Type
REMARK                         _______ _______ _______ _____ _____    ______ ____
ROOT
ATOM      1  N   UNL     1       3.287   5.715  18.918  0.00  0.00    +0.000 N 
ATOM      2  C   UNL     1       2.500   4.563  18.984  0.00  0.00    +0.000 C 
ATOM      3  N   UNL     1       1.545   4.325  19.815  0.00  0.00    +0.000 NA
ATOM      4  C   UNL     1       0.861   3.033  19.628  0.00  0.00    +0.000 C 
ATOM      5  C   UNL     1       1.771   1.947  19.053  0.00  0.00    +0.000 C 
ATOM      6  C   UNL     1       2.371   2.421  17.736  0.00  0.00    +0.000 C 
ATOM      7  N   UNL     1       2.941   3.716  17.971  0.00  0.00    +0.000 N 
ATOM      8  C   UNL     1       3.931   4.342  17.234  0.00  0.00    +0.000 A 
ATOM      9  C   UNL     1       4.646   3.923  16.133  0.00  0.00    +0.000 A 
ATOM     10  C   UNL     1       5.610   4.791  15.614  0.00  0.00    +0.000 A 
ATOM     11  C   UNL     1       5.823   6.057  16.189  0.00  0.00    +0.000 A 
ATOM     12  C   UNL     1       5.081   6.480  17.297  0.00  0.00    +0.000 A 
ATOM     13  C   UNL     1       4.147   5.612  17.822  0.00  0.00    +0.000 A 
ENDROOT
BRANCH   1  14
ATOM     14  C   UNL     1       3.099   6.900  19.728  0.00  0.00    +0.000 C 
BRANCH  14  16
ATOM     15  O   UNL     1       1.937   7.905  17.902  0.00  0.00    +0.000 OA
ATOM     16  C   UNL     1       2.067   7.857  19.131  0.00  0.00    +0.000 C 
BRANCH  16  17
ATOM     17  C   UNL     1       1.221   8.678  19.995  0.00  0.00    +0.000 A 
ATOM     18  C   UNL     1       0.930   8.418  21.326  0.00  0.00    +0.000 A 
ATOM     19  C   UNL     1       0.112   9.418  21.923  0.00  0.00    +0.000 A 
ATOM     20  C   UNL     1      -0.201  10.397  21.016  0.00  0.00    +0.000 A 
ATOM     21 BR   UNL     1      -1.263  11.888  21.421  0.00  0.00    +0.000 Br
ATOM     22  S   UNL     1       0.471  10.131  19.487  0.00  0.00    +0.000 S 
ENDBRANCH  16  17
ENDBRANCH  14  16
ENDBRANCH   1  14
TORSDOF 3
ENDMDL
MODEL 7
REMARK VINA RESULT:      -7.0      4.579      7.010
REMARK  Name = 
REMARK  3 active torsions:
REMARK  status: ('A' for Active; 'I' for Inactive)
REMARK    1  A    between atoms: C_2  and  C_3
REMARK    2  A    between atoms: C_2  and  C_17
REMARK    3  A    between atoms: C_3  and  N_4
REMARK                            x       y       z     vdW  Elec       q    Type
REMARK                         _______ _______ _______ _____ _____    ______ ____
ROOT
ATOM      1  N   UNL     1       5.295   5.421  18.436  0.00  0.00    +0.000 N 
ATOM      2  C   UNL     1       4.726   4.281  19.011  0.00  0.00    +0.000 C 
ATOM      3  N   UNL     1       5.350   3.251  19.465  0.00  0.00    +0.000 NA
ATOM      4  C   UNL     1       4.490   2.207  20.050  0.00  0.00    +0.000 C 
ATOM      5  C   UNL     1       3.102   2.141  19.412  0.00  0.00    +0.000 C 
ATOM      6  C   UNL     1       2.423   3.501  19.511  0.00  0.00    +0.000 C 
ATOM      7  N   UNL     1       3.347   4.474  19.005  0.00  0.00    +0.000 N 
ATOM      8  C   UNL     1       3.051   5.732  18.510  0.00  0.00    +0.000 A 
ATOM      9  C   UNL     1       1.847   6.379  18.336  0.00  0.00    +0.000 A 
ATOM     10  C   UNL     1       1.872   7.663  17.785  0.00  0.00    +0.000 A 
ATOM     11  C   UNL     1       3.091   8.275  17.440  0.00  0.00    +0.000 A 
ATOM     12  C   UNL     1       4.310   7.616  17.635  0.00  0.00    +0.000 A 
ATOM     13  C   UNL     1       4.280   6.340  18.157  0.00  0.00    +0.000 A 
ENDROOT
BRANCH   1  14
ATOM     14  C   UNL     1       6.715   5.683  18.335  0.00  0.00    +0.000 C 
BRANCH  14  16
ATOM     15  O   UNL     1       8.331   4.006  17.818  0.00  0.00    +0.000 OA
ATOM     16  C   UNL     1       7.420   4.718  17.380  0.00  0.00    +0.000 C 
BRANCH  16  17
ATOM     17  C   UNL     1       7.004   4.610  15.984  0.00  0.00    +0.000 A 
ATOM     18  C   UNL     1       7.565   5.298  14.917  0.00  0.00    +0.000 A 
ATOM     19  C   UNL     1       6.981   4.956  13.666  0.00  0.00    +0.000 A 
ATOM     20  C   UNL     1       5.984   4.028  13.829  0.00  0.00    +0.000 A 
ATOM     21 BR   UNL     1       4.975   3.327  12.414  0.00  0.00    +0.000 Br
ATOM     22  S   UNL     1       5.756   3.572  15.442  0.00  0.00    +0.000 S 
ENDBRANCH  16  17
ENDBRANCH  14  16
ENDBRANCH   1  14
TORSDOF 3
ENDMDL
MODEL 8
REMARK VINA RESULT:      -7.0      1.242      3.513
REMARK  Name = 
REMARK  3 active torsions:
REMARK  status: ('A' for Active; 'I' for Inactive)
REMARK    1  A    between atoms: C_2  and  C_3
REMARK    2  A    between atoms: C_2  and  C_17
REMARK    3  A    between atoms: C_3  and  N_4
REMARK                            x       y       z     vdW  Elec       q    Type
REMARK                         _______ _______ _______ _____ _____    ______ ____
ROOT
ATOM      1  N   UNL     1       2.976   5.679  17.824  0.00  0.00    +0.000 N 
ATOM      2  C   UNL     1       2.460   4.402  18.058  0.00  0.00    +0.000 C 
ATOM      3  N   UNL     1       1.318   4.113  18.578  0.00  0.00    +0.000 NA
ATOM      4  C   UNL     1       1.022   2.672  18.674  0.00  0.00    +0.000 C 
ATOM      5  C   UNL     1       2.272   1.810  18.847  0.00  0.00    +0.000 C 
ATOM      6  C   UNL     1       3.243   2.073  17.704  0.00  0.00    +0.000 C 
ATOM      7  N   UNL     1       3.418   3.494  17.615  0.00  0.00    +0.000 N 
ATOM      8  C   UNL     1       4.481   4.173  17.046  0.00  0.00    +0.000 A 
ATOM      9  C   UNL     1       5.638   3.716  16.454  0.00  0.00    +0.000 A 
ATOM     10  C   UNL     1       6.547   4.667  15.980  0.00  0.00    +0.000 A 
ATOM     11  C   UNL     1       6.271   6.042  16.090  0.00  0.00    +0.000 A 
ATOM     12  C   UNL     1       5.085   6.496  16.678  0.00  0.00    +0.000 A 
ATOM     13  C   UNL     1       4.203   5.557  17.166  0.00  0.00    +0.000 A 
ENDROOT
BRANCH   1  14
ATOM     14  C   UNL     1       2.263   6.919  18.045  0.00  0.00    +0.000 C 
BRANCH  14  16
ATOM     15  O   UNL     1       2.842   6.627  20.341  0.00  0.00    +0.000 OA
ATOM     16  C   UNL     1       2.216   7.310  19.522  0.00  0.00    +0.000 C 
BRANCH  16  17
ATOM     17  C   UNL     1       1.475   8.491  19.960  0.00  0.00    +0.000 A 
ATOM     18  C   UNL     1       1.093   9.552  19.152  0.00  0.00    +0.000 A 
ATOM     19  C   UNL     1       0.344  10.541  19.849  0.00  0.00    +0.000 A 
ATOM     20  C   UNL     1       0.197  10.201  21.169  0.00  0.00    +0.000 A 
ATOM     21 BR   UNL     1      -0.730  11.251  22.415  0.00  0.00    +0.000 Br
ATOM     22  S   UNL     1       0.931   8.730  21.565  0.00  0.00    +0.000 S 
ENDBRANCH  16  17
ENDBRANCH  14  16
ENDBRANCH   1  14
TORSDOF 3
ENDMDL
MODEL 9
REMARK VINA RESULT:      -6.9      1.579      3.743
REMARK  Name = 
REMARK  3 active torsions:
REMARK  status: ('A' for Active; 'I' for Inactive)
REMARK    1  A    between atoms: C_2  and  C_3
REMARK    2  A    between atoms: C_2  and  C_17
REMARK    3  A    between atoms: C_3  and  N_4
REMARK                            x       y       z     vdW  Elec       q    Type
REMARK                         _______ _______ _______ _____ _____    ______ ____
ROOT
ATOM      1  N   UNL     1       2.921   5.970  18.347  0.00  0.00    +0.000 N 
ATOM      2  C   UNL     1       2.622   4.830  19.097  0.00  0.00    +0.000 C 
ATOM      3  N   UNL     1       1.460   4.462  19.514  0.00  0.00    +0.000 NA
ATOM      4  C   UNL     1       1.438   3.190  20.259  0.00  0.00    +0.000 C 
ATOM      5  C   UNL     1       2.735   2.913  21.018  0.00  0.00    +0.000 C 
ATOM      6  C   UNL     1       3.914   2.939  20.053  0.00  0.00    +0.000 C 
ATOM      7  N   UNL     1       3.823   4.160  19.306  0.00  0.00    +0.000 N 
ATOM      8  C   UNL     1       4.847   4.814  18.643  0.00  0.00    +0.000 A 
ATOM      9  C   UNL     1       6.190   4.523  18.533  0.00  0.00    +0.000 A 
ATOM     10  C   UNL     1       6.988   5.402  17.796  0.00  0.00    +0.000 A 
ATOM     11  C   UNL     1       6.429   6.533  17.174  0.00  0.00    +0.000 A 
ATOM     12  C   UNL     1       5.061   6.811  17.279  0.00  0.00    +0.000 A 
ATOM     13  C   UNL     1       4.281   5.956  18.026  0.00  0.00    +0.000 A 
ENDROOT
BRANCH   1  14
ATOM     14  C   UNL     1       1.946   6.902  17.822  0.00  0.00    +0.000 C 
BRANCH  14  16
ATOM     15  O   UNL     1       2.761   9.144  17.791  0.00  0.00    +0.000 OA
ATOM     16  C   UNL     1       2.100   8.304  18.412  0.00  0.00    +0.000 C 
BRANCH  16  17
ATOM     17  C   UNL     1       1.449   8.661  19.671  0.00  0.00    +0.000 A 
ATOM     18  C   UNL     1       1.527   7.941  20.855  0.00  0.00    +0.000 A 
ATOM     19  C   UNL     1       0.824   8.557  21.928  0.00  0.00    +0.000 A 
ATOM     20  C   UNL     1       0.223   9.718  21.515  0.00  0.00    +0.000 A 
ATOM     21 BR   UNL     1      -0.797  10.817  22.639  0.00  0.00    +0.000 Br
ATOM     22  S   UNL     1       0.498  10.069  19.883  0.00  0.00    +0.000 S 
ENDBRANCH  16  17
ENDBRANCH  14  16
ENDBRANCH   1  14
TORSDOF 3
ENDMDL
