MODEL 1
REMARK VINA RESULT:      -8.4      0.000      0.000
REMARK  Name = 
REMARK  8 active torsions:
REMARK  status: ('A' for Active; 'I' for Inactive)
REMARK    1  A    between atoms: NE_4  and  CD_5
REMARK    2  A    between atoms: CD_5  and  CG_6
REMARK    3  A    between atoms: CG_6  and  CB_7
REMARK    4  A    between atoms: CB_7  and  CA_8
REMARK    5  A    between atoms: CA_8  and  C_9
REMARK    6  A    between atoms: CA_8  and  N_11
REMARK    7  A    between atoms: C_12  and  CA_14
REMARK    8  A    between atoms: C_19  and  CA_21
REMARK                            x       y       z     vdW  Elec       q    Type
REMARK                         _______ _______ _______ _____ _____    ______ ____
ROOT
ATOM      1  N   UNL     1       6.394   4.378  18.471  0.00  0.00    +0.000 N 
ATOM      2  C   UNL     1       5.017   4.466  18.458  0.00  0.00    +0.000 C 
ATOM      3  O   UNL     1       4.367   4.947  17.535  0.00  0.00    +0.000 OA
ATOM      4  H   UNL     1       6.811   3.944  19.294  0.00  0.00    +0.000 HD
ENDROOT
BRANCH   2   5
ATOM      5  CA  UNL     1       4.323   4.100  19.772  0.00  0.00    +0.000 C 
ATOM      6  CB  UNL     1       4.527   2.562  19.811  0.00  0.00    +0.000 C 
ATOM      7  CG  UNL     1       3.440   2.028  20.703  0.00  0.00    +0.000 C 
ATOM      8  CD  UNL     1       2.325   3.057  20.587  0.00  0.00    +0.000 C 
ATOM      9  N   UNL     1       2.866   4.276  19.953  0.00  0.00    +0.000 N 
ATOM     10  C   UNL     1       2.054   5.422  20.059  0.00  0.00    +0.000 C 
ATOM     11  O   UNL     1       0.935   5.271  20.577  0.00  0.00    +0.000 OA
BRANCH  10  12
ATOM     12  CA  UNL     1       2.471   6.903  19.618  0.00  0.00    +0.000 C 
ATOM     13  C   UNL     1       1.760   8.004  20.506  0.00  0.00    +0.000 C 
ATOM     14  C   UNL     1       1.378   9.401  19.883  0.00  0.00    +0.000 C 
ATOM     15  C   UNL     1       0.098  10.086  20.432  0.00  0.00    +0.000 C 
ATOM     16  C   UNL     1      -1.167  10.031  19.573  0.00  0.00    +0.000 C 
ATOM     17  C   UNL     1      -0.922  10.300  18.098  0.00  0.00    +0.000 C 
ATOM     18  C   UNL     1       0.228   9.478  17.537  0.00  0.00    +0.000 C 
ATOM     19  C   UNL     1       1.523   9.541  18.364  0.00  0.00    +0.000 C 
ATOM     20  C   UNL     1       2.561   8.550  17.851  0.00  0.00    +0.000 C 
ATOM     21  N   UNL     1       2.204   7.169  18.197  0.00  0.00    +0.000 NA
ATOM     22  H   UNL     1       2.824   6.585  17.643  0.00  0.00    +0.000 HD
ENDBRANCH  10  12
ENDBRANCH   2   5
BRANCH   1  23
ATOM     23  CA  UNL     1       7.304   4.995  17.481  0.00  0.00    +0.000 C 
BRANCH  23  24
ATOM     24  C   UNL     1       6.966   6.466  17.552  0.00  0.00    +0.000 C 
ATOM     25  O   UNL     1       7.581   7.359  16.996  0.00  0.00    +0.000 OA
ENDBRANCH  23  24
BRANCH  23  26
ATOM     26  CB  UNL     1       7.272   4.320  16.103  0.00  0.00    +0.000 C 
BRANCH  26  27
ATOM     27  CG  UNL     1       6.647   4.963  14.855  0.00  0.00    +0.000 C 
BRANCH  27  28
ATOM     28  CD  UNL     1       5.519   4.267  14.085  0.00  0.00    +0.000 C 
BRANCH  28  32
ATOM     29  NH1 UNL     1       6.375   1.820  11.474  0.00  0.00    +0.000 NA
ATOM     30  CZ  UNL     1       5.680   2.750  12.034  0.00  0.00    +0.000 C 
ATOM     31  NH2 UNL     1       4.526   3.191  11.512  0.00  0.00    +0.000 N 
ATOM     32  NE  UNL     1       6.129   3.311  13.170  0.00  0.00    +0.000 N 
ATOM     33  HH1 UNL     1       5.894   1.495  10.635  0.00  0.00    +0.000 HD
ATOM     34 HH21 UNL     1       4.371   2.937  10.545  0.00  0.00    +0.000 HD
ATOM     35 HH22 UNL     1       4.357   4.174  11.665  0.00  0.00    +0.000 HD
ATOM     36  HE  UNL     1       6.977   2.855  13.499  0.00  0.00    +0.000 HD
ENDBRANCH  28  32
ENDBRANCH  27  28
ENDBRANCH  26  27
ENDBRANCH  23  26
ENDBRANCH   1  23
TORSDOF 8
ENDMDL
MODEL 2
REMARK VINA RESULT:      -8.1      1.367      1.615
REMARK  Name = 
REMARK  8 active torsions:
REMARK  status: ('A' for Active; 'I' for Inactive)
REMARK    1  A    between atoms: NE_4  and  CD_5
REMARK    2  A    between atoms: CD_5  and  CG_6
REMARK    3  A    between atoms: CG_6  and  CB_7
REMARK    4  A    between atoms: CB_7  and  CA_8
REMARK    5  A    between atoms: CA_8  and  C_9
REMARK    6  A    between atoms: CA_8  and  N_11
REMARK    7  A    between atoms: C_12  and  CA_14
REMARK    8  A    between atoms: C_19  and  CA_21
REMARK                            x       y       z     vdW  Elec       q    Type
REMARK                         _______ _______ _______ _____ _____    ______ ____
ROOT
ATOM      1  N   UNL     1       5.761   4.696  17.716  0.00  0.00    +0.000 N 
ATOM      2  C   UNL     1       5.411   4.502  19.036  0.00  0.00    +0.000 C 
ATOM      3  O   UNL     1       6.178   4.659  19.982  0.00  0.00    +0.000 OA
ATOM      4  H   UNL     1       5.026   4.545  17.026  0.00  0.00    +0.000 HD
ENDROOT
BRANCH   2   5
ATOM      5  CA  UNL     1       4.034   3.874  19.265  0.00  0.00    +0.000 C 
ATOM      6  CB  UNL     1       4.358   2.362  19.121  0.00  0.00    +0.000 C 
ATOM      7  CG  UNL     1       3.058   1.699  18.754  0.00  0.00    +0.000 C 
ATOM      8  CD  UNL     1       2.263   2.797  18.060  0.00  0.00    +0.000 C 
ATOM      9  N   UNL     1       2.917   4.095  18.322  0.00  0.00    +0.000 N 
ATOM     10  C   UNL     1       2.141   5.232  18.020  0.00  0.00    +0.000 C 
ATOM     11  O   UNL     1       1.043   5.033  17.474  0.00  0.00    +0.000 OA
BRANCH  10  12
ATOM     12  CA  UNL     1       2.532   6.745  18.365  0.00  0.00    +0.000 C 
ATOM     13  C   UNL     1       2.311   7.077  19.897  0.00  0.00    +0.000 C 
ATOM     14  C   UNL     1       1.886   8.529  20.341  0.00  0.00    +0.000 C 
ATOM     15  C   UNL     1       0.970   8.639  21.589  0.00  0.00    +0.000 C 
ATOM     16  C   UNL     1      -0.516   8.924  21.362  0.00  0.00    +0.000 C 
ATOM     17  C   UNL     1      -0.786   9.992  20.316  0.00  0.00    +0.000 C 
ATOM     18  C   UNL     1      -0.010   9.760  19.029  0.00  0.00    +0.000 C 
ATOM     19  C   UNL     1       1.494   9.504  19.226  0.00  0.00    +0.000 C 
ATOM     20  C   UNL     1       2.165   9.093  17.921  0.00  0.00    +0.000 C 
ATOM     21  N   UNL     1       1.806   7.721  17.539  0.00  0.00    +0.000 NA
ATOM     22  H   UNL     1       2.120   7.619  16.578  0.00  0.00    +0.000 HD
ENDBRANCH  10  12
ENDBRANCH   2   5
BRANCH   1  23
ATOM     23  CA  UNL     1       7.132   4.947  17.218  0.00  0.00    +0.000 C 
BRANCH  23  24
ATOM     24  C   UNL     1       7.330   6.428  17.447  0.00  0.00    +0.000 C 
ATOM     25  O   UNL     1       7.725   7.225  16.613  0.00  0.00    +0.000 OA
ENDBRANCH  23  24
BRANCH  23  26
ATOM     26  CB  UNL     1       7.391   4.401  15.808  0.00  0.00    +0.000 C 
BRANCH  26  27
ATOM     27  CG  UNL     1       6.283   4.177  14.766  0.00  0.00    +0.000 C 
BRANCH  27  28
ATOM     28  CD  UNL     1       6.618   3.978  13.283  0.00  0.00    +0.000 C 
BRANCH  28  32
ATOM     29  NH1 UNL     1       3.842   2.951  11.098  0.00  0.00    +0.000 NA
ATOM     30  CZ  UNL     1       4.975   2.828  11.698  0.00  0.00    +0.000 C 
ATOM     31  NH2 UNL     1       5.778   1.773  11.496  0.00  0.00    +0.000 N 
ATOM     32  NE  UNL     1       5.364   3.775  12.568  0.00  0.00    +0.000 N 
ATOM     33  HH1 UNL     1       3.702   2.161  10.468  0.00  0.00    +0.000 HD
ATOM     34 HH21 UNL     1       5.335   0.978  11.054  0.00  0.00    +0.000 HD
ATOM     35 HH22 UNL     1       6.300   1.494  12.313  0.00  0.00    +0.000 HD
ATOM     36  HE  UNL     1       4.706   4.551  12.591  0.00  0.00    +0.000 HD
ENDBRANCH  28  32
ENDBRANCH  27  28
ENDBRANCH  26  27
ENDBRANCH  23  26
ENDBRANCH   1  23
TORSDOF 8
ENDMDL
MODEL 3
REMARK VINA RESULT:      -8.0      2.216      3.660
REMARK  Name = 
REMARK  8 active torsions:
REMARK  status: ('A' for Active; 'I' for Inactive)
REMARK    1  A    between atoms: NE_4  and  CD_5
REMARK    2  A    between atoms: CD_5  and  CG_6
REMARK    3  A    between atoms: CG_6  and  CB_7
REMARK    4  A    between atoms: CB_7  and  CA_8
REMARK    5  A    between atoms: CA_8  and  C_9
REMARK    6  A    between atoms: CA_8  and  N_11
REMARK    7  A    between atoms: C_12  and  CA_14
REMARK    8  A    between atoms: C_19  and  CA_21
REMARK                            x       y       z     vdW  Elec       q    Type
REMARK                         _______ _______ _______ _____ _____    ______ ____
ROOT
ATOM      1  N   UNL     1       4.819   4.123  16.852  0.00  0.00    +0.000 N 
ATOM      2  C   UNL     1       3.551   3.678  17.164  0.00  0.00    +0.000 C 
ATOM      3  O   UNL     1       2.584   3.773  16.414  0.00  0.00    +0.000 OA
ATOM      4  H   UNL     1       5.539   3.970  17.559  0.00  0.00    +0.000 HD
ENDROOT
BRANCH   2   5
ATOM      5  CA  UNL     1       3.354   3.217  18.610  0.00  0.00    +0.000 C 
ATOM      6  CB  UNL     1       3.112   1.695  18.418  0.00  0.00    +0.000 C 
ATOM      7  CG  UNL     1       2.358   1.244  19.639  0.00  0.00    +0.000 C 
ATOM      8  CD  UNL     1       1.628   2.494  20.108  0.00  0.00    +0.000 C 
ATOM      9  N   UNL     1       2.199   3.667  19.415  0.00  0.00    +0.000 N 
ATOM     10  C   UNL     1       1.855   4.918  19.964  0.00  0.00    +0.000 C 
ATOM     11  O   UNL     1       1.034   4.915  20.897  0.00  0.00    +0.000 OA
BRANCH  10  12
ATOM     12  CA  UNL     1       2.467   6.329  19.522  0.00  0.00    +0.000 C 
ATOM     13  C   UNL     1       1.965   7.507  20.453  0.00  0.00    +0.000 C 
ATOM     14  C   UNL     1       1.767   8.956  19.864  0.00  0.00    +0.000 C 
ATOM     15  C   UNL     1       0.627   9.811  20.478  0.00  0.00    +0.000 C 
ATOM     16  C   UNL     1      -0.667   9.959  19.675  0.00  0.00    +0.000 C 
ATOM     17  C   UNL     1      -0.447  10.215  18.194  0.00  0.00    +0.000 C 
ATOM     18  C   UNL     1       0.544   9.244  17.572  0.00  0.00    +0.000 C 
ATOM     19  C   UNL     1       1.868   9.100  18.342  0.00  0.00    +0.000 C 
ATOM     20  C   UNL     1       2.725   7.977  17.772  0.00  0.00    +0.000 C 
ATOM     21  N   UNL     1       2.183   6.657  18.117  0.00  0.00    +0.000 NA
ATOM     22  H   UNL     1       2.686   5.998  17.529  0.00  0.00    +0.000 HD
ENDBRANCH  10  12
ENDBRANCH   2   5
BRANCH   1  23
ATOM     23  CA  UNL     1       5.179   4.931  15.666  0.00  0.00    +0.000 C 
BRANCH  23  24
ATOM     24  C   UNL     1       5.971   3.972  14.806  0.00  0.00    +0.000 C 
ATOM     25  O   UNL     1       6.737   4.292  13.914  0.00  0.00    +0.000 OA
ENDBRANCH  23  24
BRANCH  23  26
ATOM     26  CB  UNL     1       5.820   6.283  16.006  0.00  0.00    +0.000 C 
BRANCH  26  27
ATOM     27  CG  UNL     1       7.229   6.430  16.603  0.00  0.00    +0.000 C 
BRANCH  27  28
ATOM     28  CD  UNL     1       7.498   7.381  17.775  0.00  0.00    +0.000 C 
BRANCH  28  32
ATOM     29  NH1 UNL     1       8.341   5.242  20.649  0.00  0.00    +0.000 NA
ATOM     30  CZ  UNL     1       7.604   5.694  19.692  0.00  0.00    +0.000 C 
ATOM     31  NH2 UNL     1       6.346   5.270  19.502  0.00  0.00    +0.000 N 
ATOM     32  NE  UNL     1       8.112   6.605  18.845  0.00  0.00    +0.000 N 
ATOM     33  HH1 UNL     1       7.808   4.573  21.203  0.00  0.00    +0.000 HD
ATOM     34 HH21 UNL     1       6.106   4.413  19.983  0.00  0.00    +0.000 HD
ATOM     35 HH22 UNL     1       6.068   5.237  18.533  0.00  0.00    +0.000 HD
ATOM     36  HE  UNL     1       9.047   6.891  19.126  0.00  0.00    +0.000 HD
ENDBRANCH  28  32
ENDBRANCH  27  28
ENDBRANCH  26  27
ENDBRANCH  23  26
ENDBRANCH   1  23
TORSDOF 8
ENDMDL
MODEL 4
REMARK VINA RESULT:      -7.9      2.906      7.781
REMARK  Name = 
REMARK  8 active torsions:
REMARK  status: ('A' for Active; 'I' for Inactive)
REMARK    1  A    between atoms: NE_4  and  CD_5
REMARK    2  A    between atoms: CD_5  and  CG_6
REMARK    3  A    between atoms: CG_6  and  CB_7
REMARK    4  A    between atoms: CB_7  and  CA_8
REMARK    5  A    between atoms: CA_8  and  C_9
REMARK    6  A    between atoms: CA_8  and  N_11
REMARK    7  A    between atoms: C_12  and  CA_14
REMARK    8  A    between atoms: C_19  and  CA_21
REMARK                            x       y       z     vdW  Elec       q    Type
REMARK                         _______ _______ _______ _____ _____    ______ ____
ROOT
ATOM      1  N   UNL     1       1.452   7.393  20.982  0.00  0.00    +0.000 N 
ATOM      2  C   UNL     1       2.187   6.951  19.902  0.00  0.00    +0.000 C 
ATOM      3  O   UNL     1       2.744   7.693  19.099  0.00  0.00    +0.000 OA
ATOM      4  H   UNL     1       1.051   6.672  21.582  0.00  0.00    +0.000 HD
ENDROOT
BRANCH   2   5
ATOM      5  CA  UNL     1       2.117   5.446  19.630  0.00  0.00    +0.000 C 
ATOM      6  CB  UNL     1       0.841   5.050  20.423  0.00  0.00    +0.000 C 
ATOM      7  CG  UNL     1       0.981   3.581  20.712  0.00  0.00    +0.000 C 
ATOM      8  CD  UNL     1       2.485   3.345  20.722  0.00  0.00    +0.000 C 
ATOM      9  N   UNL     1       3.155   4.520  20.130  0.00  0.00    +0.000 N 
ATOM     10  C   UNL     1       4.506   4.331  19.779  0.00  0.00    +0.000 C 
ATOM     11  O   UNL     1       5.020   3.244  20.094  0.00  0.00    +0.000 OA
BRANCH  10  12
ATOM     12  CA  UNL     1       5.413   5.371  18.970  0.00  0.00    +0.000 C 
ATOM     13  C   UNL     1       4.730   5.819  17.614  0.00  0.00    +0.000 C 
ATOM     14  C   UNL     1       5.615   6.168  16.357  0.00  0.00    +0.000 C 
ATOM     15  C   UNL     1       5.014   5.839  14.965  0.00  0.00    +0.000 C 
ATOM     16  C   UNL     1       5.535   4.598  14.236  0.00  0.00    +0.000 C 
ATOM     17  C   UNL     1       7.045   4.436  14.298  0.00  0.00    +0.000 C 
ATOM     18  C   UNL     1       7.591   4.585  15.709  0.00  0.00    +0.000 C 
ATOM     19  C   UNL     1       7.109   5.842  16.453  0.00  0.00    +0.000 C 
ATOM     20  C   UNL     1       7.541   5.824  17.915  0.00  0.00    +0.000 C 
ATOM     21  N   UNL     1       6.762   4.854  18.695  0.00  0.00    +0.000 NA
ATOM     22  H   UNL     1       7.254   4.765  19.580  0.00  0.00    +0.000 HD
ENDBRANCH  10  12
ENDBRANCH   2   5
BRANCH   1  23
ATOM     23  CA  UNL     1       1.070   8.798  21.245  0.00  0.00    +0.000 C 
BRANCH  23  24
ATOM     24  C   UNL     1       1.295   8.958  22.732  0.00  0.00    +0.000 C 
ATOM     25  O   UNL     1       0.694   9.731  23.457  0.00  0.00    +0.000 OA
ENDBRANCH  23  24
BRANCH  23  26
ATOM     26  CB  UNL     1      -0.306   9.184  20.685  0.00  0.00    +0.000 C 
BRANCH  26  27
ATOM     27  CG  UNL     1      -0.616  10.551  20.057  0.00  0.00    +0.000 C 
BRANCH  27  28
ATOM     28  CD  UNL     1      -0.062  10.935  18.680  0.00  0.00    +0.000 C 
BRANCH  28  32
ATOM     29  NH1 UNL     1      -2.667   9.854  16.316  0.00  0.00    +0.000 NA
ATOM     30  CZ  UNL     1      -2.053  10.674  17.099  0.00  0.00    +0.000 C 
ATOM     31  NH2 UNL     1      -2.523  11.906  17.350  0.00  0.00    +0.000 N 
ATOM     32  NE  UNL     1      -0.898  10.297  17.671  0.00  0.00    +0.000 N 
ATOM     33  HH1 UNL     1      -3.526  10.286  15.976  0.00  0.00    +0.000 HD
ATOM     34 HH21 UNL     1      -3.229  12.233  16.705  0.00  0.00    +0.000 HD
ATOM     35 HH22 UNL     1      -1.801  12.598  17.486  0.00  0.00    +0.000 HD
ATOM     36  HE  UNL     1      -0.677   9.327  17.455  0.00  0.00    +0.000 HD
ENDBRANCH  28  32
ENDBRANCH  27  28
ENDBRANCH  26  27
ENDBRANCH  23  26
ENDBRANCH   1  23
TORSDOF 8
ENDMDL
MODEL 5
REMARK VINA RESULT:      -7.8      1.150      1.169
REMARK  Name = 
REMARK  8 active torsions:
REMARK  status: ('A' for Active; 'I' for Inactive)
REMARK    1  A    between atoms: NE_4  and  CD_5
REMARK    2  A    between atoms: CD_5  and  CG_6
REMARK    3  A    between atoms: CG_6  and  CB_7
REMARK    4  A    between atoms: CB_7  and  CA_8
REMARK    5  A    between atoms: CA_8  and  C_9
REMARK    6  A    between atoms: CA_8  and  N_11
REMARK    7  A    between atoms: C_12  and  CA_14
REMARK    8  A    between atoms: C_19  and  CA_21
REMARK                            x       y       z     vdW  Elec       q    Type
REMARK                         _______ _______ _______ _____ _____    ______ ____
ROOT
ATOM      1  N   UNL     1       5.672   4.347  17.624  0.00  0.00    +0.000 N 
ATOM      2  C   UNL     1       4.381   3.865  17.559  0.00  0.00    +0.000 C 
ATOM      3  O   UNL     1       3.656   3.969  16.574  0.00  0.00    +0.000 OA
ATOM      4  H   UNL     1       6.172   4.183  18.498  0.00  0.00    +0.000 HD
ENDROOT
BRANCH   2   5
ATOM      5  CA  UNL     1       3.805   3.347  18.880  0.00  0.00    +0.000 C 
ATOM      6  CB  UNL     1       3.753   1.819  18.614  0.00  0.00    +0.000 C 
ATOM      7  CG  UNL     1       2.712   1.276  19.556  0.00  0.00    +0.000 C 
ATOM      8  CD  UNL     1       1.779   2.454  19.797  0.00  0.00    +0.000 C 
ATOM      9  N   UNL     1       2.432   3.686  19.311  0.00  0.00    +0.000 N 
ATOM     10  C   UNL     1       1.844   4.891  19.743  0.00  0.00    +0.000 C 
ATOM     11  O   UNL     1       0.789   4.798  20.392  0.00  0.00    +0.000 OA
BRANCH  10  12
ATOM     12  CA  UNL     1       2.443   6.356  19.511  0.00  0.00    +0.000 C 
ATOM     13  C   UNL     1       1.832   7.410  20.521  0.00  0.00    +0.000 C 
ATOM     14  C   UNL     1       1.635   8.911  20.081  0.00  0.00    +0.000 C 
ATOM     15  C   UNL     1       0.423   9.666  20.689  0.00  0.00    +0.000 C 
ATOM     16  C   UNL     1      -0.807   9.874  19.803  0.00  0.00    +0.000 C 
ATOM     17  C   UNL     1      -0.479  10.299  18.382  0.00  0.00    +0.000 C 
ATOM     18  C   UNL     1       0.589   9.427  17.742  0.00  0.00    +0.000 C 
ATOM     19  C   UNL     1       1.852   9.228  18.597  0.00  0.00    +0.000 C 
ATOM     20  C   UNL     1       2.787   8.195  17.979  0.00  0.00    +0.000 C 
ATOM     21  N   UNL     1       2.261   6.833  18.132  0.00  0.00    +0.000 NA
ATOM     22  H   UNL     1       2.830   6.256  17.519  0.00  0.00    +0.000 HD
ENDBRANCH  10  12
ENDBRANCH   2   5
BRANCH   1  23
ATOM     23  CA  UNL     1       6.321   5.206  16.609  0.00  0.00    +0.000 C 
BRANCH  23  24
ATOM     24  C   UNL     1       5.269   6.244  16.292  0.00  0.00    +0.000 C 
ATOM     25  O   UNL     1       5.273   6.979  15.320  0.00  0.00    +0.000 OA
ENDBRANCH  23  24
BRANCH  23  26
ATOM     26  CB  UNL     1       6.932   4.427  15.436  0.00  0.00    +0.000 C 
BRANCH  26  27
ATOM     27  CG  UNL     1       6.117   3.915  14.238  0.00  0.00    +0.000 C 
BRANCH  27  28
ATOM     28  CD  UNL     1       6.627   4.083  12.802  0.00  0.00    +0.000 C 
BRANCH  28  32
ATOM     29  NH1 UNL     1       5.969   0.836  11.201  0.00  0.00    +0.000 NA
ATOM     30  CZ  UNL     1       5.718   2.052  11.543  0.00  0.00    +0.000 C 
ATOM     31  NH2 UNL     1       4.546   2.643  11.264  0.00  0.00    +0.000 N 
ATOM     32  NE  UNL     1       6.660   2.763  12.185  0.00  0.00    +0.000 N 
ATOM     33  HH1 UNL     1       5.153   0.436  10.737  0.00  0.00    +0.000 HD
ATOM     34 HH21 UNL     1       3.987   2.175  10.564  0.00  0.00    +0.000 HD
ATOM     35 HH22 UNL     1       4.622   3.631  11.072  0.00  0.00    +0.000 HD
ATOM     36  HE  UNL     1       7.477   2.193  12.393  0.00  0.00    +0.000 HD
ENDBRANCH  28  32
ENDBRANCH  27  28
ENDBRANCH  26  27
ENDBRANCH  23  26
ENDBRANCH   1  23
TORSDOF 8
ENDMDL
MODEL 6
REMARK VINA RESULT:      -7.8      3.086      4.795
REMARK  Name = 
REMARK  8 active torsions:
REMARK  status: ('A' for Active; 'I' for Inactive)
REMARK    1  A    between atoms: NE_4  and  CD_5
REMARK    2  A    between atoms: CD_5  and  CG_6
REMARK    3  A    between atoms: CG_6  and  CB_7
REMARK    4  A    between atoms: CB_7  and  CA_8
REMARK    5  A    between atoms: CA_8  and  C_9
REMARK    6  A    between atoms: CA_8  and  N_11
REMARK    7  A    between atoms: C_12  and  CA_14
REMARK    8  A    between atoms: C_19  and  CA_21
REMARK                            x       y       z     vdW  Elec       q    Type
REMARK                         _______ _______ _______ _____ _____    ______ ____
ROOT
ATOM      1  N   UNL     1       6.221   5.431  18.289  0.00  0.00    +0.000 N 
ATOM      2  C   UNL     1       4.879   5.116  18.250  0.00  0.00    +0.000 C 
ATOM      3  O   UNL     1       4.139   5.372  17.305  0.00  0.00    +0.000 OA
ATOM      4  H   UNL     1       6.728   5.151  19.129  0.00  0.00    +0.000 HD
ENDROOT
BRANCH   2   5
ATOM      5  CA  UNL     1       4.290   4.588  19.560  0.00  0.00    +0.000 C 
ATOM      6  CB  UNL     1       4.560   3.065  19.427  0.00  0.00    +0.000 C 
ATOM      7  CG  UNL     1       3.558   2.392  20.326  0.00  0.00    +0.000 C 
ATOM      8  CD  UNL     1       2.396   3.373  20.387  0.00  0.00    +0.000 C 
ATOM      9  N   UNL     1       2.842   4.674  19.849  0.00  0.00    +0.000 N 
ATOM     10  C   UNL     1       1.993   5.764  20.123  0.00  0.00    +0.000 C 
ATOM     11  O   UNL     1       0.918   5.508  20.691  0.00  0.00    +0.000 OA
BRANCH  10  12
ATOM     12  CA  UNL     1       2.317   7.299  19.812  0.00  0.00    +0.000 C 
ATOM     13  C   UNL     1       1.414   8.278  20.668  0.00  0.00    +0.000 C 
ATOM     14  C   UNL     1       0.976   9.673  20.079  0.00  0.00    +0.000 C 
ATOM     15  C   UNL     1      -0.414  10.210  20.511  0.00  0.00    +0.000 C 
ATOM     16  C   UNL     1      -1.566  10.101  19.509  0.00  0.00    +0.000 C 
ATOM     17  C   UNL     1      -1.185  10.482  18.089  0.00  0.00    +0.000 C 
ATOM     18  C   UNL     1       0.091   9.799  17.622  0.00  0.00    +0.000 C 
ATOM     19  C   UNL     1       1.275   9.921  18.596  0.00  0.00    +0.000 C 
ATOM     20  C   UNL     1       2.451   9.056  18.156  0.00  0.00    +0.000 C 
ATOM     21  N   UNL     1       2.186   7.630  18.385  0.00  0.00    +0.000 NA
ATOM     22  H   UNL     1       2.915   7.137  17.877  0.00  0.00    +0.000 HD
ENDBRANCH  10  12
ENDBRANCH   2   5
BRANCH   1  23
ATOM     23  CA  UNL     1       6.937   6.268  17.300  0.00  0.00    +0.000 C 
BRANCH  23  24
ATOM     24  C   UNL     1       7.472   5.265  16.303  0.00  0.00    +0.000 C 
ATOM     25  O   UNL     1       7.362   5.345  15.092  0.00  0.00    +0.000 OA
ENDBRANCH  23  24
BRANCH  23  26
ATOM     26  CB  UNL     1       7.932   7.255  17.925  0.00  0.00    +0.000 C 
BRANCH  26  27
ATOM     27  CG  UNL     1       7.872   8.775  17.708  0.00  0.00    +0.000 C 
BRANCH  27  28
ATOM     28  CD  UNL     1       8.744   9.729  18.532  0.00  0.00    +0.000 C 
BRANCH  28  32
ATOM     29  NH1 UNL     1       9.035  13.222  17.415  0.00  0.00    +0.000 NA
ATOM     30  CZ  UNL     1       9.200  12.223  18.212  0.00  0.00    +0.000 C 
ATOM     31  NH2 UNL     1       9.769  12.361  19.419  0.00  0.00    +0.000 N 
ATOM     32  NE  UNL     1       8.809  10.999  17.821  0.00  0.00    +0.000 N 
ATOM     33  HH1 UNL     1       9.371  14.075  17.863  0.00  0.00    +0.000 HD
ATOM     34 HH21 UNL     1      10.278  13.224  19.556  0.00  0.00    +0.000 HD
ATOM     35 HH22 UNL     1      10.316  11.563  19.707  0.00  0.00    +0.000 HD
ATOM     36  HE  UNL     1       8.340  11.030  16.918  0.00  0.00    +0.000 HD
ENDBRANCH  28  32
ENDBRANCH  27  28
ENDBRANCH  26  27
ENDBRANCH  23  26
ENDBRANCH   1  23
TORSDOF 8
ENDMDL
MODEL 7
REMARK VINA RESULT:      -7.8      0.985      1.104
REMARK  Name = 
REMARK  8 active torsions:
REMARK  status: ('A' for Active; 'I' for Inactive)
REMARK    1  A    between atoms: NE_4  and  CD_5
REMARK    2  A    between atoms: CD_5  and  CG_6
REMARK    3  A    between atoms: CG_6  and  CB_7
REMARK    4  A    between atoms: CB_7  and  CA_8
REMARK    5  A    between atoms: CA_8  and  C_9
REMARK    6  A    between atoms: CA_8  and  N_11
REMARK    7  A    between atoms: C_12  and  CA_14
REMARK    8  A    between atoms: C_19  and  CA_21
REMARK                            x       y       z     vdW  Elec       q    Type
REMARK                         _______ _______ _______ _____ _____    ______ ____
ROOT
ATOM      1  N   UNL     1       5.648   3.654  17.497  0.00  0.00    +0.000 N 
ATOM      2  C   UNL     1       4.372   4.107  17.762  0.00  0.00    +0.000 C 
ATOM      3  O   UNL     1       3.816   5.003  17.135  0.00  0.00    +0.000 OA
ATOM      4  H   UNL     1       5.989   2.893  18.085  0.00  0.00    +0.000 HD
ENDROOT
BRANCH   2   5
ATOM      5  CA  UNL     1       3.732   3.557  19.040  0.00  0.00    +0.000 C 
ATOM      6  CB  UNL     1       3.713   2.033  18.742  0.00  0.00    +0.000 C 
ATOM      7  CG  UNL     1       2.629   1.461  19.615  0.00  0.00    +0.000 C 
ATOM      8  CD  UNL     1       1.670   2.623  19.827  0.00  0.00    +0.000 C 
ATOM      9  N   UNL     1       2.334   3.872  19.402  0.00  0.00    +0.000 N 
ATOM     10  C   UNL     1       1.708   5.061  19.824  0.00  0.00    +0.000 C 
ATOM     11  O   UNL     1       0.621   4.944  20.413  0.00  0.00    +0.000 OA
BRANCH  10  12
ATOM     12  CA  UNL     1       2.302   6.537  19.653  0.00  0.00    +0.000 C 
ATOM     13  C   UNL     1       1.609   7.569  20.635  0.00  0.00    +0.000 C 
ATOM     14  C   UNL     1       1.422   9.073  20.203  0.00  0.00    +0.000 C 
ATOM     15  C   UNL     1       0.162   9.803  20.738  0.00  0.00    +0.000 C 
ATOM     16  C   UNL     1      -1.009  10.008  19.774  0.00  0.00    +0.000 C 
ATOM     17  C   UNL     1      -0.591  10.459  18.385  0.00  0.00    +0.000 C 
ATOM     18  C   UNL     1       0.529   9.610  17.806  0.00  0.00    +0.000 C 
ATOM     19  C   UNL     1       1.734   9.415  18.742  0.00  0.00    +0.000 C 
ATOM     20  C   UNL     1       2.723   8.403  18.174  0.00  0.00    +0.000 C 
ATOM     21  N   UNL     1       2.207   7.032  18.272  0.00  0.00    +0.000 NA
ATOM     22  H   UNL     1       2.823   6.472  17.691  0.00  0.00    +0.000 HD
ENDBRANCH  10  12
ENDBRANCH   2   5
BRANCH   1  23
ATOM     23  CA  UNL     1       6.602   4.276  16.553  0.00  0.00    +0.000 C 
BRANCH  23  24
ATOM     24  C   UNL     1       7.425   5.194  17.428  0.00  0.00    +0.000 C 
ATOM     25  O   UNL     1       7.766   4.957  18.574  0.00  0.00    +0.000 OA
ENDBRANCH  23  24
BRANCH  23  26
ATOM     26  CB  UNL     1       5.940   4.881  15.308  0.00  0.00    +0.000 C 
BRANCH  26  27
ATOM     27  CG  UNL     1       5.637   4.080  14.031  0.00  0.00    +0.000 C 
BRANCH  27  28
ATOM     28  CD  UNL     1       6.572   4.140  12.818  0.00  0.00    +0.000 C 
BRANCH  28  32
ATOM     29  NH1 UNL     1       5.974   0.858  11.264  0.00  0.00    +0.000 NA
ATOM     30  CZ  UNL     1       5.713   2.084  11.566  0.00  0.00    +0.000 C 
ATOM     31  NH2 UNL     1       4.557   2.672  11.220  0.00  0.00    +0.000 N 
ATOM     32  NE  UNL     1       6.628   2.806  12.233  0.00  0.00    +0.000 N 
ATOM     33  HH1 UNL     1       5.178   0.451  10.772  0.00  0.00    +0.000 HD
ATOM     34 HH21 UNL     1       4.029   2.189  10.506  0.00  0.00    +0.000 HD
ATOM     35 HH22 UNL     1       4.646   3.654  11.009  0.00  0.00    +0.000 HD
ATOM     36  HE  UNL     1       7.432   2.238  12.491  0.00  0.00    +0.000 HD
ENDBRANCH  28  32
ENDBRANCH  27  28
ENDBRANCH  26  27
ENDBRANCH  23  26
ENDBRANCH   1  23
TORSDOF 8
ENDMDL
MODEL 8
REMARK VINA RESULT:      -7.8      2.949      8.105
REMARK  Name = 
REMARK  8 active torsions:
REMARK  status: ('A' for Active; 'I' for Inactive)
REMARK    1  A    between atoms: NE_4  and  CD_5
REMARK    2  A    between atoms: CD_5  and  CG_6
REMARK    3  A    between atoms: CG_6  and  CB_7
REMARK    4  A    between atoms: CB_7  and  CA_8
REMARK    5  A    between atoms: CA_8  and  C_9
REMARK    6  A    between atoms: CA_8  and  N_11
REMARK    7  A    between atoms: C_12  and  CA_14
REMARK    8  A    between atoms: C_19  and  CA_21
REMARK                            x       y       z     vdW  Elec       q    Type
REMARK                         _______ _______ _______ _____ _____    ______ ____
ROOT
ATOM      1  N   UNL     1       1.507   7.375  21.028  0.00  0.00    +0.000 N 
ATOM      2  C   UNL     1       2.158   6.954  19.888  0.00  0.00    +0.000 C 
ATOM      3  O   UNL     1       2.610   7.710  19.033  0.00  0.00    +0.000 OA
ATOM      4  H   UNL     1       1.191   6.644  21.665  0.00  0.00    +0.000 HD
ENDROOT
BRANCH   2   5
ATOM      5  CA  UNL     1       2.122   5.445  19.630  0.00  0.00    +0.000 C 
ATOM      6  CB  UNL     1       0.847   5.030  20.414  0.00  0.00    +0.000 C 
ATOM      7  CG  UNL     1       1.015   3.566  20.719  0.00  0.00    +0.000 C 
ATOM      8  CD  UNL     1       2.523   3.362  20.746  0.00  0.00    +0.000 C 
ATOM      9  N   UNL     1       3.174   4.546  20.149  0.00  0.00    +0.000 N 
ATOM     10  C   UNL     1       4.532   4.381  19.813  0.00  0.00    +0.000 C 
ATOM     11  O   UNL     1       5.065   3.309  20.143  0.00  0.00    +0.000 OA
BRANCH  10  12
ATOM     12  CA  UNL     1       5.425   5.433  19.002  0.00  0.00    +0.000 C 
ATOM     13  C   UNL     1       4.738   5.866  17.643  0.00  0.00    +0.000 C 
ATOM     14  C   UNL     1       5.620   6.225  16.387  0.00  0.00    +0.000 C 
ATOM     15  C   UNL     1       5.027   5.882  14.995  0.00  0.00    +0.000 C 
ATOM     16  C   UNL     1       5.569   4.647  14.271  0.00  0.00    +0.000 C 
ATOM     17  C   UNL     1       7.080   4.508  14.337  0.00  0.00    +0.000 C 
ATOM     18  C   UNL     1       7.622   4.670  15.748  0.00  0.00    +0.000 C 
ATOM     19  C   UNL     1       7.119   5.922  16.488  0.00  0.00    +0.000 C 
ATOM     20  C   UNL     1       7.548   5.915  17.950  0.00  0.00    +0.000 C 
ATOM     21  N   UNL     1       6.782   4.936  18.732  0.00  0.00    +0.000 NA
ATOM     22  H   UNL     1       7.274   4.856  19.617  0.00  0.00    +0.000 HD
ENDBRANCH  10  12
ENDBRANCH   2   5
BRANCH   1  23
ATOM     23  CA  UNL     1       1.096   8.767  21.320  0.00  0.00    +0.000 C 
BRANCH  23  24
ATOM     24  C   UNL     1       1.328   8.905  22.807  0.00  0.00    +0.000 C 
ATOM     25  O   UNL     1       0.876   9.789  23.513  0.00  0.00    +0.000 OA
ENDBRANCH  23  24
BRANCH  23  26
ATOM     26  CB  UNL     1      -0.291   9.132  20.775  0.00  0.00    +0.000 C 
BRANCH  26  27
ATOM     27  CG  UNL     1      -0.546  10.299  19.808  0.00  0.00    +0.000 C 
BRANCH  27  28
ATOM     28  CD  UNL     1       0.616  11.088  19.195  0.00  0.00    +0.000 C 
BRANCH  28  32
ATOM     29  NH1 UNL     1      -0.500  14.549  18.633  0.00  0.00    +0.000 NA
ATOM     30  CZ  UNL     1      -0.453  13.278  18.425  0.00  0.00    +0.000 C 
ATOM     31  NH2 UNL     1      -1.119  12.697  17.416  0.00  0.00    +0.000 N 
ATOM     32  NE  UNL     1       0.271  12.503  19.249  0.00  0.00    +0.000 N 
ATOM     33  HH1 UNL     1      -1.077  14.991  17.918  0.00  0.00    +0.000 HD
ATOM     34 HH21 UNL     1      -1.844  13.266  16.999  0.00  0.00    +0.000 HD
ATOM     35 HH22 UNL     1      -1.457  11.770  17.629  0.00  0.00    +0.000 HD
ATOM     36  HE  UNL     1       0.776  13.060  19.934  0.00  0.00    +0.000 HD
ENDBRANCH  28  32
ENDBRANCH  27  28
ENDBRANCH  26  27
ENDBRANCH  23  26
ENDBRANCH   1  23
TORSDOF 8
ENDMDL
MODEL 9
REMARK VINA RESULT:      -7.7      1.786      4.843
REMARK  Name = 
REMARK  8 active torsions:
REMARK  status: ('A' for Active; 'I' for Inactive)
REMARK    1  A    between atoms: NE_4  and  CD_5
REMARK    2  A    between atoms: CD_5  and  CG_6
REMARK    3  A    between atoms: CG_6  and  CB_7
REMARK    4  A    between atoms: CB_7  and  CA_8
REMARK    5  A    between atoms: CA_8  and  C_9
REMARK    6  A    between atoms: CA_8  and  N_11
REMARK    7  A    between atoms: C_12  and  CA_14
REMARK    8  A    between atoms: C_19  and  CA_21
REMARK                            x       y       z     vdW  Elec       q    Type
REMARK                         _______ _______ _______ _____ _____    ______ ____
ROOT
ATOM      1  N   UNL     1       4.857   5.744  18.329  0.00  0.00    +0.000 N 
ATOM      2  C   UNL     1       3.591   5.403  17.901  0.00  0.00    +0.000 C 
ATOM      3  O   UNL     1       3.325   4.372  17.292  0.00  0.00    +0.000 OA
ATOM      4  H   UNL     1       4.942   6.625  18.837  0.00  0.00    +0.000 HD
ENDROOT
BRANCH   2   5
ATOM      5  CA  UNL     1       2.530   6.496  18.055  0.00  0.00    +0.000 C 
ATOM      6  CB  UNL     1       3.193   7.678  17.297  0.00  0.00    +0.000 C 
ATOM      7  CG  UNL     1       2.556   8.924  17.848  0.00  0.00    +0.000 C 
ATOM      8  CD  UNL     1       2.123   8.531  19.253  0.00  0.00    +0.000 C 
ATOM      9  N   UNL     1       2.187   7.061  19.377  0.00  0.00    +0.000 N 
ATOM     10  C   UNL     1       1.525   6.521  20.497  0.00  0.00    +0.000 C 
ATOM     11  O   UNL     1       1.051   7.330  21.312  0.00  0.00    +0.000 OA
BRANCH  10  12
ATOM     12  CA  UNL     1       1.292   4.964  20.780  0.00  0.00    +0.000 C 
ATOM     13  C   UNL     1       2.621   4.243  21.249  0.00  0.00    +0.000 C 
ATOM     14  C   UNL     1       2.881   2.734  20.875  0.00  0.00    +0.000 C 
ATOM     15  C   UNL     1       4.356   2.316  20.637  0.00  0.00    +0.000 C 
ATOM     16  C   UNL     1       4.823   2.130  19.192  0.00  0.00    +0.000 C 
ATOM     17  C   UNL     1       3.833   1.381  18.316  0.00  0.00    +0.000 C 
ATOM     18  C   UNL     1       2.419   1.929  18.431  0.00  0.00    +0.000 C 
ATOM     19  C   UNL     1       1.912   2.096  19.874  0.00  0.00    +0.000 C 
ATOM     20  C   UNL     1       0.573   2.824  19.914  0.00  0.00    +0.000 C 
ATOM     21  N   UNL     1       0.729   4.254  19.621  0.00  0.00    +0.000 NA
ATOM     22  H   UNL     1      -0.213   4.600  19.464  0.00  0.00    +0.000 HD
ENDBRANCH  10  12
ENDBRANCH   2   5
BRANCH   1  23
ATOM     23  CA  UNL     1       6.105   5.028  17.979  0.00  0.00    +0.000 C 
BRANCH  23  24
ATOM     24  C   UNL     1       7.114   5.565  18.968  0.00  0.00    +0.000 C 
ATOM     25  O   UNL     1       7.204   5.232  20.137  0.00  0.00    +0.000 OA
ENDBRANCH  23  24
BRANCH  23  26
ATOM     26  CB  UNL     1       6.461   5.092  16.488  0.00  0.00    +0.000 C 
BRANCH  26  27
ATOM     27  CG  UNL     1       6.060   4.012  15.471  0.00  0.00    +0.000 C 
BRANCH  27  28
ATOM     28  CD  UNL     1       5.679   4.380  14.032  0.00  0.00    +0.000 C 
BRANCH  28  32
ATOM     29  NH1 UNL     1       6.314   1.751  11.538  0.00  0.00    +0.000 NA
ATOM     30  CZ  UNL     1       5.691   2.747  12.066  0.00  0.00    +0.000 C 
ATOM     31  NH2 UNL     1       4.546   3.224  11.553  0.00  0.00    +0.000 N 
ATOM     32  NE  UNL     1       6.206   3.343  13.154  0.00  0.00    +0.000 N 
ATOM     33  HH1 UNL     1       5.790   1.408  10.733  0.00  0.00    +0.000 HD
ATOM     34 HH21 UNL     1       4.345   2.927  10.608  0.00  0.00    +0.000 HD
ATOM     35 HH22 UNL     1       4.436   4.221  11.656  0.00  0.00    +0.000 HD
ATOM     36  HE  UNL     1       7.038   2.858  13.483  0.00  0.00    +0.000 HD
ENDBRANCH  28  32
ENDBRANCH  27  28
ENDBRANCH  26  27
ENDBRANCH  23  26
ENDBRANCH   1  23
TORSDOF 8
ENDMDL
