MODEL 1
REMARK VINA RESULT:      -7.3      0.000      0.000
REMARK  Name = 
REMARK  6 active torsions:
REMARK  status: ('A' for Active; 'I' for Inactive)
REMARK    1  A    between atoms: C_1  and  C_2
REMARK    2  A    between atoms: C_2  and  N_3
REMARK    3  A    between atoms: C_2  and  C_23
REMARK    4  A    between atoms: C_8  and  N_9
REMARK    5  A    between atoms: C_14  and  C_15
REMARK    6  A    between atoms: C_14  and  C_16
REMARK                            x       y       z     vdW  Elec       q    Type
REMARK                         _______ _______ _______ _____ _____    ______ ____
ROOT
ATOM      1  N   UNL     1      -0.886  12.939  20.137  0.00  0.00    +0.000 N 
ATOM      2  C   UNL     1      -2.215  13.207  20.421  0.00  0.00    +0.000 A 
ATOM      3  N   UNL     1      -2.407  14.278  21.203  0.00  0.00    +0.000 NA
ATOM      4  C   UNL     1      -3.671  14.675  21.406  0.00  0.00    +0.000 A 
ATOM      5  C   UNL     1      -4.750  14.025  20.885  0.00  0.00    +0.000 A 
ATOM      6  C   UNL     1      -4.472  12.882  20.156  0.00  0.00    +0.000 A 
ATOM      7  N   UNL     1      -3.213  12.452  19.933  0.00  0.00    +0.000 NA
ATOM      8  H   UNL     1      -0.439  12.664  21.001  0.00  0.00    +0.000 HD
ENDROOT
BRANCH   6   9
ATOM      9  N   UNL     1      -5.563  12.153  19.654  0.00  0.00    +0.000 N 
ATOM     10  C   UNL     1      -6.536  11.616  20.458  0.00  0.00    +0.000 C 
ATOM     11  O   UNL     1      -6.654  11.743  21.667  0.00  0.00    +0.000 OA
ATOM     12  O   UNL     1      -7.415  10.889  19.707  0.00  0.00    +0.000 OA
ATOM     13  C   UNL     1      -6.884  10.761  18.383  0.00  0.00    +0.000 C 
ATOM     14  C   UNL     1      -5.777  11.837  18.261  0.00  0.00    +0.000 C 
ATOM     15  C   UNL     1      -6.389  13.031  17.502  0.00  0.00    +0.000 C 
BRANCH  14  16
ATOM     16  C   UNL     1      -4.537  11.209  17.597  0.00  0.00    +0.000 A 
ATOM     17  C   UNL     1      -4.011  11.679  16.382  0.00  0.00    +0.000 A 
ATOM     18  C   UNL     1      -2.909  11.056  15.783  0.00  0.00    +0.000 A 
ATOM     19  C   UNL     1      -2.305   9.958  16.387  0.00  0.00    +0.000 A 
ATOM     20  C   UNL     1      -2.790   9.487  17.601  0.00  0.00    +0.000 A 
ATOM     21  C   UNL     1      -3.891  10.105  18.199  0.00  0.00    +0.000 A 
ENDBRANCH  14  16
ENDBRANCH   6   9
BRANCH   1  23
ATOM     22  C   UNL     1       0.446  12.881  18.086  0.00  0.00    +0.000 C 
ATOM     23  C   UNL     1      -0.559  12.132  18.975  0.00  0.00    +0.000 C 
BRANCH  23  24
ATOM     24  C   UNL     1       0.055  10.806  19.438  0.00  0.00    +0.000 A 
ATOM     25  C   UNL     1       0.897  10.083  18.574  0.00  0.00    +0.000 A 
ATOM     26  C   UNL     1       1.507   8.897  18.995  0.00  0.00    +0.000 A 
ATOM     27  C   UNL     1       1.281   8.423  20.281  0.00  0.00    +0.000 A 
ATOM     28  F   UNL     1       1.874   7.294  20.686  0.00  0.00    +0.000 F 
ATOM     29  C   UNL     1       0.446   9.112  21.153  0.00  0.00    +0.000 A 
ATOM     30  C   UNL     1      -0.167  10.300  20.731  0.00  0.00    +0.000 A 
ENDBRANCH  23  24
ENDBRANCH   1  23
TORSDOF 4
ENDMDL
MODEL 2
REMARK VINA RESULT:      -7.2      5.853      9.457
REMARK  Name = 
REMARK  6 active torsions:
REMARK  status: ('A' for Active; 'I' for Inactive)
REMARK    1  A    between atoms: C_1  and  C_2
REMARK    2  A    between atoms: C_2  and  N_3
REMARK    3  A    between atoms: C_2  and  C_23
REMARK    4  A    between atoms: C_8  and  N_9
REMARK    5  A    between atoms: C_14  and  C_15
REMARK    6  A    between atoms: C_14  and  C_16
REMARK                            x       y       z     vdW  Elec       q    Type
REMARK                         _______ _______ _______ _____ _____    ______ ____
ROOT
ATOM      1  N   UNL     1       1.115   9.152  19.610  0.00  0.00    +0.000 N 
ATOM      2  C   UNL     1       1.925   8.215  18.988  0.00  0.00    +0.000 A 
ATOM      3  N   UNL     1       2.669   8.706  17.987  0.00  0.00    +0.000 NA
ATOM      4  C   UNL     1       3.574   7.887  17.433  0.00  0.00    +0.000 A 
ATOM      5  C   UNL     1       3.741   6.589  17.817  0.00  0.00    +0.000 A 
ATOM      6  C   UNL     1       2.881   6.136  18.801  0.00  0.00    +0.000 A 
ATOM      7  N   UNL     1       1.956   6.931  19.381  0.00  0.00    +0.000 NA
ATOM      8  H   UNL     1       0.417   9.443  18.939  0.00  0.00    +0.000 HD
ENDROOT
BRANCH   6   9
ATOM      9  N   UNL     1       2.984   4.787  19.180  0.00  0.00    +0.000 N 
ATOM     10  C   UNL     1       2.690   4.340  20.443  0.00  0.00    +0.000 C 
ATOM     11  O   UNL     1       2.237   4.990  21.373  0.00  0.00    +0.000 OA
ATOM     12  O   UNL     1       2.967   3.007  20.545  0.00  0.00    +0.000 OA
ATOM     13  C   UNL     1       3.675   2.599  19.368  0.00  0.00    +0.000 C 
ATOM     14  C   UNL     1       3.449   3.720  18.324  0.00  0.00    +0.000 C 
ATOM     15  C   UNL     1       2.336   3.236  17.374  0.00  0.00    +0.000 C 
BRANCH  14  16
ATOM     16  C   UNL     1       4.791   4.048  17.642  0.00  0.00    +0.000 A 
ATOM     17  C   UNL     1       5.947   4.379  18.370  0.00  0.00    +0.000 A 
ATOM     18  C   UNL     1       7.140   4.716  17.718  0.00  0.00    +0.000 A 
ATOM     19  C   UNL     1       7.206   4.721  16.328  0.00  0.00    +0.000 A 
ATOM     20  C   UNL     1       6.085   4.374  15.584  0.00  0.00    +0.000 A 
ATOM     21  C   UNL     1       4.893   4.041  16.233  0.00  0.00    +0.000 A 
ENDBRANCH  14  16
ENDBRANCH   6   9
BRANCH   1  23
ATOM     22  C   UNL     1       1.809   8.794  21.927  0.00  0.00    +0.000 C 
ATOM     23  C   UNL     1       0.627   8.887  20.951  0.00  0.00    +0.000 C 
BRANCH  23  24
ATOM     24  C   UNL     1      -0.305  10.026  21.382  0.00  0.00    +0.000 A 
ATOM     25  C   UNL     1      -0.666  10.163  22.735  0.00  0.00    +0.000 A 
ATOM     26  C   UNL     1      -1.474  11.224  23.156  0.00  0.00    +0.000 A 
ATOM     27  C   UNL     1      -1.930  12.154  22.231  0.00  0.00    +0.000 A 
ATOM     28  F   UNL     1      -2.694  13.176  22.637  0.00  0.00    +0.000 F 
ATOM     29  C   UNL     1      -1.597  12.038  20.886  0.00  0.00    +0.000 A 
ATOM     30  C   UNL     1      -0.788  10.975  20.463  0.00  0.00    +0.000 A 
ENDBRANCH  23  24
ENDBRANCH   1  23
TORSDOF 4
ENDMDL
MODEL 3
REMARK VINA RESULT:      -7.2      5.814      9.359
REMARK  Name = 
REMARK  6 active torsions:
REMARK  status: ('A' for Active; 'I' for Inactive)
REMARK    1  A    between atoms: C_1  and  C_2
REMARK    2  A    between atoms: C_2  and  N_3
REMARK    3  A    between atoms: C_2  and  C_23
REMARK    4  A    between atoms: C_8  and  N_9
REMARK    5  A    between atoms: C_14  and  C_15
REMARK    6  A    between atoms: C_14  and  C_16
REMARK                            x       y       z     vdW  Elec       q    Type
REMARK                         _______ _______ _______ _____ _____    ______ ____
ROOT
ATOM      1  N   UNL     1       1.046   9.210  19.595  0.00  0.00    +0.000 N 
ATOM      2  C   UNL     1       1.868   8.283  18.975  0.00  0.00    +0.000 A 
ATOM      3  N   UNL     1       2.613   8.784  17.981  0.00  0.00    +0.000 NA
ATOM      4  C   UNL     1       3.529   7.976  17.429  0.00  0.00    +0.000 A 
ATOM      5  C   UNL     1       3.706   6.678  17.809  0.00  0.00    +0.000 A 
ATOM      6  C   UNL     1       2.843   6.214  18.786  0.00  0.00    +0.000 A 
ATOM      7  N   UNL     1       1.908   6.997  19.363  0.00  0.00    +0.000 NA
ATOM      8  H   UNL     1       0.349   9.498  18.921  0.00  0.00    +0.000 HD
ENDROOT
BRANCH   6   9
ATOM      9  N   UNL     1       2.957   4.864  19.161  0.00  0.00    +0.000 N 
ATOM     10  C   UNL     1       2.674   4.412  20.424  0.00  0.00    +0.000 C 
ATOM     11  O   UNL     1       2.224   5.057  21.359  0.00  0.00    +0.000 OA
ATOM     12  O   UNL     1       2.959   3.080  20.521  0.00  0.00    +0.000 OA
ATOM     13  C   UNL     1       3.661   2.679  19.338  0.00  0.00    +0.000 C 
ATOM     14  C   UNL     1       3.422   3.802  18.298  0.00  0.00    +0.000 C 
ATOM     15  C   UNL     1       2.304   3.314  17.355  0.00  0.00    +0.000 C 
BRANCH  14  16
ATOM     16  C   UNL     1       4.757   4.139  17.608  0.00  0.00    +0.000 A 
ATOM     17  C   UNL     1       4.900   4.162  16.210  0.00  0.00    +0.000 A 
ATOM     18  C   UNL     1       6.139   4.429  15.615  0.00  0.00    +0.000 A 
ATOM     19  C   UNL     1       7.258   4.686  16.401  0.00  0.00    +0.000 A 
ATOM     20  C   UNL     1       7.140   4.692  17.786  0.00  0.00    +0.000 A 
ATOM     21  C   UNL     1       5.905   4.424  18.381  0.00  0.00    +0.000 A 
ENDBRANCH  14  16
ENDBRANCH   6   9
BRANCH   1  23
ATOM     22  C   UNL     1       1.733   8.764  21.900  0.00  0.00    +0.000 C 
ATOM     23  C   UNL     1       0.552   8.936  20.932  0.00  0.00    +0.000 C 
BRANCH  23  24
ATOM     24  C   UNL     1      -0.324  10.107  21.396  0.00  0.00    +0.000 A 
ATOM     25  C   UNL     1      -0.833  11.018  20.453  0.00  0.00    +0.000 A 
ATOM     26  C   UNL     1      -1.675  12.062  20.850  0.00  0.00    +0.000 A 
ATOM     27  C   UNL     1      -2.014  12.206  22.189  0.00  0.00    +0.000 A 
ATOM     28  F   UNL     1      -2.829  13.198  22.565  0.00  0.00    +0.000 F 
ATOM     29  C   UNL     1      -1.517  11.325  23.143  0.00  0.00    +0.000 A 
ATOM     30  C   UNL     1      -0.673  10.279  22.747  0.00  0.00    +0.000 A 
ENDBRANCH  23  24
ENDBRANCH   1  23
TORSDOF 4
ENDMDL
MODEL 4
REMARK VINA RESULT:      -7.2      1.313      2.005
REMARK  Name = 
REMARK  6 active torsions:
REMARK  status: ('A' for Active; 'I' for Inactive)
REMARK    1  A    between atoms: C_1  and  C_2
REMARK    2  A    between atoms: C_2  and  N_3
REMARK    3  A    between atoms: C_2  and  C_23
REMARK    4  A    between atoms: C_8  and  N_9
REMARK    5  A    between atoms: C_14  and  C_15
REMARK    6  A    between atoms: C_14  and  C_16
REMARK                            x       y       z     vdW  Elec       q    Type
REMARK                         _______ _______ _______ _____ _____    ______ ____
ROOT
ATOM      1  N   UNL     1      -1.701  13.899  20.442  0.00  0.00    +0.000 N 
ATOM      2  C   UNL     1      -3.083  13.979  20.420  0.00  0.00    +0.000 A 
ATOM      3  N   UNL     1      -3.569  15.209  20.632  0.00  0.00    +0.000 NA
ATOM      4  C   UNL     1      -4.891  15.384  20.490  0.00  0.00    +0.000 A 
ATOM      5  C   UNL     1      -5.748  14.371  20.175  0.00  0.00    +0.000 A 
ATOM      6  C   UNL     1      -5.179  13.116  20.051  0.00  0.00    +0.000 A 
ATOM      7  N   UNL     1      -3.854  12.902  20.190  0.00  0.00    +0.000 NA
ATOM      8  H   UNL     1      -1.399  14.095  21.387  0.00  0.00    +0.000 HD
ENDROOT
BRANCH   6   9
ATOM      9  N   UNL     1      -6.040  12.038  19.787  0.00  0.00    +0.000 N 
ATOM     10  C   UNL     1      -6.773  11.410  20.761  0.00  0.00    +0.000 C 
ATOM     11  O   UNL     1      -6.857  11.717  21.940  0.00  0.00    +0.000 OA
ATOM     12  O   UNL     1      -7.447  10.348  20.230  0.00  0.00    +0.000 OA
ATOM     13  C   UNL     1      -6.974  10.132  18.894  0.00  0.00    +0.000 C 
ATOM     14  C   UNL     1      -6.231  11.430  18.490  0.00  0.00    +0.000 C 
ATOM     15  C   UNL     1      -7.200  12.254  17.620  0.00  0.00    +0.000 C 
BRANCH  14  16
ATOM     16  C   UNL     1      -4.901  11.054  17.809  0.00  0.00    +0.000 A 
ATOM     17  C   UNL     1      -4.010  10.116  18.358  0.00  0.00    +0.000 A 
ATOM     18  C   UNL     1      -2.788   9.831  17.736  0.00  0.00    +0.000 A 
ATOM     19  C   UNL     1      -2.434  10.469  16.551  0.00  0.00    +0.000 A 
ATOM     20  C   UNL     1      -3.307  11.384  15.975  0.00  0.00    +0.000 A 
ATOM     21  C   UNL     1      -4.525  11.671  16.595  0.00  0.00    +0.000 A 
ENDBRANCH  14  16
ENDBRANCH   6   9
BRANCH   1  23
ATOM     22  C   UNL     1       0.225  13.262  19.076  0.00  0.00    +0.000 C 
ATOM     23  C   UNL     1      -1.045  12.779  19.792  0.00  0.00    +0.000 C 
BRANCH  23  24
ATOM     24  C   UNL     1      -0.672  11.731  20.847  0.00  0.00    +0.000 A 
ATOM     25  C   UNL     1      -1.213  11.817  22.142  0.00  0.00    +0.000 A 
ATOM     26  C   UNL     1      -0.925  10.843  23.104  0.00  0.00    +0.000 A 
ATOM     27  C   UNL     1      -0.094   9.778  22.781  0.00  0.00    +0.000 A 
ATOM     28  F   UNL     1       0.171   8.840  23.699  0.00  0.00    +0.000 F 
ATOM     29  C   UNL     1       0.462   9.673  21.511  0.00  0.00    +0.000 A 
ATOM     30  C   UNL     1       0.175  10.649  20.548  0.00  0.00    +0.000 A 
ENDBRANCH  23  24
ENDBRANCH   1  23
TORSDOF 4
ENDMDL
MODEL 5
REMARK VINA RESULT:      -7.1      5.386      9.001
REMARK  Name = 
REMARK  6 active torsions:
REMARK  status: ('A' for Active; 'I' for Inactive)
REMARK    1  A    between atoms: C_1  and  C_2
REMARK    2  A    between atoms: C_2  and  N_3
REMARK    3  A    between atoms: C_2  and  C_23
REMARK    4  A    between atoms: C_8  and  N_9
REMARK    5  A    between atoms: C_14  and  C_15
REMARK    6  A    between atoms: C_14  and  C_16
REMARK                            x       y       z     vdW  Elec       q    Type
REMARK                         _______ _______ _______ _____ _____    ______ ____
ROOT
ATOM      1  N   UNL     1       0.761   9.865  17.828  0.00  0.00    +0.000 N 
ATOM      2  C   UNL     1       1.715   8.861  17.831  0.00  0.00    +0.000 A 
ATOM      3  N   UNL     1       2.840   9.167  17.172  0.00  0.00    +0.000 NA
ATOM      4  C   UNL     1       3.856   8.296  17.250  0.00  0.00    +0.000 A 
ATOM      5  C   UNL     1       3.780   7.118  17.933  0.00  0.00    +0.000 A 
ATOM      6  C   UNL     1       2.557   6.839  18.518  0.00  0.00    +0.000 A 
ATOM      7  N   UNL     1       1.512   7.691  18.459  0.00  0.00    +0.000 NA
ATOM      8  H   UNL     1       0.436   9.975  16.876  0.00  0.00    +0.000 HD
ENDROOT
BRANCH   6   9
ATOM      9  N   UNL     1       2.423   5.607  19.179  0.00  0.00    +0.000 N 
ATOM     10  C   UNL     1       1.966   5.495  20.468  0.00  0.00    +0.000 C 
ATOM     11  O   UNL     1       1.548   6.390  21.187  0.00  0.00    +0.000 OA
ATOM     12  O   UNL     1       2.027   4.193  20.875  0.00  0.00    +0.000 OA
ATOM     13  C   UNL     1       2.752   3.443  19.894  0.00  0.00    +0.000 C 
ATOM     14  C   UNL     1       2.783   4.324  18.620  0.00  0.00    +0.000 C 
ATOM     15  C   UNL     1       1.685   3.794  17.677  0.00  0.00    +0.000 C 
BRANCH  14  16
ATOM     16  C   UNL     1       4.208   4.310  18.036  0.00  0.00    +0.000 A 
ATOM     17  C   UNL     1       5.349   4.557  18.819  0.00  0.00    +0.000 A 
ATOM     18  C   UNL     1       6.627   4.582  18.247  0.00  0.00    +0.000 A 
ATOM     19  C   UNL     1       6.794   4.351  16.885  0.00  0.00    +0.000 A 
ATOM     20  C   UNL     1       5.685   4.081  16.091  0.00  0.00    +0.000 A 
ATOM     21  C   UNL     1       4.410   4.059  16.660  0.00  0.00    +0.000 A 
ENDBRANCH  14  16
ENDBRANCH   6   9
BRANCH   1  23
ATOM     22  C   UNL     1       0.144  10.778  20.012  0.00  0.00    +0.000 C 
ATOM     23  C   UNL     1      -0.272   9.865  18.848  0.00  0.00    +0.000 C 
BRANCH  23  24
ATOM     24  C   UNL     1      -1.584  10.376  18.239  0.00  0.00    +0.000 A 
ATOM     25  C   UNL     1      -2.041   9.848  17.018  0.00  0.00    +0.000 A 
ATOM     26  C   UNL     1      -3.260  10.264  16.472  0.00  0.00    +0.000 A 
ATOM     27  C   UNL     1      -4.029  11.209  17.138  0.00  0.00    +0.000 A 
ATOM     28  F   UNL     1      -5.200  11.597  16.619  0.00  0.00    +0.000 F 
ATOM     29  C   UNL     1      -3.596  11.754  18.341  0.00  0.00    +0.000 A 
ATOM     30  C   UNL     1      -2.375  11.339  18.889  0.00  0.00    +0.000 A 
ENDBRANCH  23  24
ENDBRANCH   1  23
TORSDOF 4
ENDMDL
MODEL 6
REMARK VINA RESULT:      -7.1      1.840      3.228
REMARK  Name = 
REMARK  6 active torsions:
REMARK  status: ('A' for Active; 'I' for Inactive)
REMARK    1  A    between atoms: C_1  and  C_2
REMARK    2  A    between atoms: C_2  and  N_3
REMARK    3  A    between atoms: C_2  and  C_23
REMARK    4  A    between atoms: C_8  and  N_9
REMARK    5  A    between atoms: C_14  and  C_15
REMARK    6  A    between atoms: C_14  and  C_16
REMARK                            x       y       z     vdW  Elec       q    Type
REMARK                         _______ _______ _______ _____ _____    ______ ____
ROOT
ATOM      1  N   UNL     1      -1.402  12.702  19.865  0.00  0.00    +0.000 N 
ATOM      2  C   UNL     1      -2.240  13.472  20.656  0.00  0.00    +0.000 A 
ATOM      3  N   UNL     1      -1.933  14.775  20.679  0.00  0.00    +0.000 NA
ATOM      4  C   UNL     1      -2.781  15.597  21.313  0.00  0.00    +0.000 A 
ATOM      5  C   UNL     1      -3.905  15.163  21.952  0.00  0.00    +0.000 A 
ATOM      6  C   UNL     1      -4.108  13.795  21.950  0.00  0.00    +0.000 A 
ATOM      7  N   UNL     1      -3.275  12.937  21.324  0.00  0.00    +0.000 NA
ATOM      8  H   UNL     1      -0.488  12.705  20.297  0.00  0.00    +0.000 HD
ENDROOT
BRANCH   6   9
ATOM      9  N   UNL     1      -5.225  13.306  22.649  0.00  0.00    +0.000 N 
ATOM     10  C   UNL     1      -5.131  12.690  23.871  0.00  0.00    +0.000 C 
ATOM     11  O   UNL     1      -4.128  12.543  24.553  0.00  0.00    +0.000 OA
ATOM     12  O   UNL     1      -6.359  12.242  24.265  0.00  0.00    +0.000 OA
ATOM     13  C   UNL     1      -7.266  12.376  23.165  0.00  0.00    +0.000 C 
ATOM     14  C   UNL     1      -6.586  13.344  22.166  0.00  0.00    +0.000 C 
ATOM     15  C   UNL     1      -7.219  14.733  22.379  0.00  0.00    +0.000 C 
BRANCH  14  16
ATOM     16  C   UNL     1      -6.726  12.774  20.741  0.00  0.00    +0.000 A 
ATOM     17  C   UNL     1      -6.842  13.596  19.607  0.00  0.00    +0.000 A 
ATOM     18  C   UNL     1      -7.012  13.047  18.331  0.00  0.00    +0.000 A 
ATOM     19  C   UNL     1      -7.062  11.667  18.158  0.00  0.00    +0.000 A 
ATOM     20  C   UNL     1      -6.926  10.830  19.260  0.00  0.00    +0.000 A 
ATOM     21  C   UNL     1      -6.759  11.377  20.534  0.00  0.00    +0.000 A 
ENDBRANCH  14  16
ENDBRANCH   6   9
BRANCH   1  23
ATOM     22  C   UNL     1      -2.489  11.568  17.991  0.00  0.00    +0.000 C 
ATOM     23  C   UNL     1      -1.867  11.413  19.387  0.00  0.00    +0.000 C 
BRANCH  23  24
ATOM     24  C   UNL     1      -0.681  10.443  19.315  0.00  0.00    +0.000 A 
ATOM     25  C   UNL     1      -0.047  10.201  18.083  0.00  0.00    +0.000 A 
ATOM     26  C   UNL     1       1.068   9.359  18.005  0.00  0.00    +0.000 A 
ATOM     27  C   UNL     1       1.557   8.753  19.155  0.00  0.00    +0.000 A 
ATOM     28  F   UNL     1       2.631   7.958  19.081  0.00  0.00    +0.000 F 
ATOM     29  C   UNL     1       0.944   8.968  20.384  0.00  0.00    +0.000 A 
ATOM     30  C   UNL     1      -0.173   9.810  20.463  0.00  0.00    +0.000 A 
ENDBRANCH  23  24
ENDBRANCH   1  23
TORSDOF 4
ENDMDL
MODEL 7
REMARK VINA RESULT:      -7.1      2.048      3.313
REMARK  Name = 
REMARK  6 active torsions:
REMARK  status: ('A' for Active; 'I' for Inactive)
REMARK    1  A    between atoms: C_1  and  C_2
REMARK    2  A    between atoms: C_2  and  N_3
REMARK    3  A    between atoms: C_2  and  C_23
REMARK    4  A    between atoms: C_8  and  N_9
REMARK    5  A    between atoms: C_14  and  C_15
REMARK    6  A    between atoms: C_14  and  C_16
REMARK                            x       y       z     vdW  Elec       q    Type
REMARK                         _______ _______ _______ _____ _____    ______ ____
ROOT
ATOM      1  N   UNL     1      -1.631  13.393  20.360  0.00  0.00    +0.000 N 
ATOM      2  C   UNL     1      -2.654  13.974  21.091  0.00  0.00    +0.000 A 
ATOM      3  N   UNL     1      -2.545  15.302  21.235  0.00  0.00    +0.000 NA
ATOM      4  C   UNL     1      -3.568  15.946  21.813  0.00  0.00    +0.000 A 
ATOM      5  C   UNL     1      -4.681  15.312  22.281  0.00  0.00    +0.000 A 
ATOM      6  C   UNL     1      -4.682  13.933  22.167  0.00  0.00    +0.000 A 
ATOM      7  N   UNL     1      -3.669  13.251  21.594  0.00  0.00    +0.000 NA
ATOM      8  H   UNL     1      -0.781  13.486  20.899  0.00  0.00    +0.000 HD
ENDROOT
BRANCH   6   9
ATOM      9  N   UNL     1      -5.786  13.241  22.693  0.00  0.00    +0.000 N 
ATOM     10  C   UNL     1      -5.730  12.517  23.857  0.00  0.00    +0.000 C 
ATOM     11  O   UNL     1      -4.787  12.425  24.628  0.00  0.00    +0.000 OA
ATOM     12  O   UNL     1      -6.920  11.884  24.073  0.00  0.00    +0.000 OA
ATOM     13  C   UNL     1      -7.726  12.019  22.896  0.00  0.00    +0.000 C 
ATOM     14  C   UNL     1      -7.087  13.162  22.070  0.00  0.00    +0.000 C 
ATOM     15  C   UNL     1      -7.916  14.433  22.338  0.00  0.00    +0.000 C 
BRANCH  14  16
ATOM     16  C   UNL     1      -7.012  12.731  20.593  0.00  0.00    +0.000 A 
ATOM     17  C   UNL     1      -7.121  13.646  19.532  0.00  0.00    +0.000 A 
ATOM     18  C   UNL     1      -7.094  13.216  18.200  0.00  0.00    +0.000 A 
ATOM     19  C   UNL     1      -6.948  11.865  17.899  0.00  0.00    +0.000 A 
ATOM     20  C   UNL     1      -6.813  10.941  18.928  0.00  0.00    +0.000 A 
ATOM     21  C   UNL     1      -6.844  11.369  20.257  0.00  0.00    +0.000 A 
ENDBRANCH  14  16
ENDBRANCH   6   9
BRANCH   1  23
ATOM     22  C   UNL     1      -1.591  12.183  18.235  0.00  0.00    +0.000 C 
ATOM     23  C   UNL     1      -1.848  12.095  19.747  0.00  0.00    +0.000 C 
BRANCH  23  24
ATOM     24  C   UNL     1      -0.887  11.075  20.372  0.00  0.00    +0.000 A 
ATOM     25  C   UNL     1      -0.836  10.926  21.770  0.00  0.00    +0.000 A 
ATOM     26  C   UNL     1      -0.004   9.966  22.356  0.00  0.00    +0.000 A 
ATOM     27  C   UNL     1       0.783   9.151  21.554  0.00  0.00    +0.000 A 
ATOM     28  F   UNL     1       1.569   8.225  22.116  0.00  0.00    +0.000 F 
ATOM     29  C   UNL     1       0.758   9.283  20.170  0.00  0.00    +0.000 A 
ATOM     30  C   UNL     1      -0.074  10.245  19.581  0.00  0.00    +0.000 A 
ENDBRANCH  23  24
ENDBRANCH   1  23
TORSDOF 4
ENDMDL
MODEL 8
REMARK VINA RESULT:      -7.0      5.290      8.914
REMARK  Name = 
REMARK  6 active torsions:
REMARK  status: ('A' for Active; 'I' for Inactive)
REMARK    1  A    between atoms: C_1  and  C_2
REMARK    2  A    between atoms: C_2  and  N_3
REMARK    3  A    between atoms: C_2  and  C_23
REMARK    4  A    between atoms: C_8  and  N_9
REMARK    5  A    between atoms: C_14  and  C_15
REMARK    6  A    between atoms: C_14  and  C_16
REMARK                            x       y       z     vdW  Elec       q    Type
REMARK                         _______ _______ _______ _____ _____    ______ ____
ROOT
ATOM      1  N   UNL     1       0.684  10.021  17.893  0.00  0.00    +0.000 N 
ATOM      2  C   UNL     1       1.633   9.012  17.878  0.00  0.00    +0.000 A 
ATOM      3  N   UNL     1       2.754   9.317  17.211  0.00  0.00    +0.000 NA
ATOM      4  C   UNL     1       3.766   8.441  17.272  0.00  0.00    +0.000 A 
ATOM      5  C   UNL     1       3.691   7.259  17.947  0.00  0.00    +0.000 A 
ATOM      6  C   UNL     1       2.473   6.981  18.542  0.00  0.00    +0.000 A 
ATOM      7  N   UNL     1       1.431   7.838  18.500  0.00  0.00    +0.000 NA
ATOM      8  H   UNL     1       0.351  10.139  16.945  0.00  0.00    +0.000 HD
ENDROOT
BRANCH   6   9
ATOM      9  N   UNL     1       2.340   5.744  19.196  0.00  0.00    +0.000 N 
ATOM     10  C   UNL     1       1.887   5.625  20.485  0.00  0.00    +0.000 C 
ATOM     11  O   UNL     1       1.471   6.515  21.211  0.00  0.00    +0.000 OA
ATOM     12  O   UNL     1       1.947   4.320  20.884  0.00  0.00    +0.000 OA
ATOM     13  C   UNL     1       2.669   3.576  19.895  0.00  0.00    +0.000 C 
ATOM     14  C   UNL     1       2.697   4.465  18.628  0.00  0.00    +0.000 C 
ATOM     15  C   UNL     1       1.597   3.942  17.684  0.00  0.00    +0.000 C 
BRANCH  14  16
ATOM     16  C   UNL     1       4.121   4.454  18.039  0.00  0.00    +0.000 A 
ATOM     17  C   UNL     1       4.375   4.196  16.681  0.00  0.00    +0.000 A 
ATOM     18  C   UNL     1       5.684   4.149  16.187  0.00  0.00    +0.000 A 
ATOM     19  C   UNL     1       6.766   4.368  17.035  0.00  0.00    +0.000 A 
ATOM     20  C   UNL     1       6.542   4.648  18.377  0.00  0.00    +0.000 A 
ATOM     21  C   UNL     1       5.237   4.692  18.872  0.00  0.00    +0.000 A 
ENDBRANCH  14  16
ENDBRANCH   6   9
BRANCH   1  23
ATOM     22  C   UNL     1       0.034  11.014  20.031  0.00  0.00    +0.000 C 
ATOM     23  C   UNL     1      -0.338  10.017  18.923  0.00  0.00    +0.000 C 
BRANCH  23  24
ATOM     24  C   UNL     1      -1.682  10.419  18.302  0.00  0.00    +0.000 A 
ATOM     25  C   UNL     1      -2.484  11.387  18.932  0.00  0.00    +0.000 A 
ATOM     26  C   UNL     1      -3.689  11.804  18.355  0.00  0.00    +0.000 A 
ATOM     27  C   UNL     1      -4.102  11.256  17.149  0.00  0.00    +0.000 A 
ATOM     28  F   UNL     1      -5.250  11.664  16.592  0.00  0.00    +0.000 F 
ATOM     29  C   UNL     1      -3.334  10.290  16.509  0.00  0.00    +0.000 A 
ATOM     30  C   UNL     1      -2.128   9.871  17.086  0.00  0.00    +0.000 A 
ENDBRANCH  23  24
ENDBRANCH   1  23
TORSDOF 4
ENDMDL
MODEL 9
REMARK VINA RESULT:      -7.0      2.794      5.922
REMARK  Name = 
REMARK  6 active torsions:
REMARK  status: ('A' for Active; 'I' for Inactive)
REMARK    1  A    between atoms: C_1  and  C_2
REMARK    2  A    between atoms: C_2  and  N_3
REMARK    3  A    between atoms: C_2  and  C_23
REMARK    4  A    between atoms: C_8  and  N_9
REMARK    5  A    between atoms: C_14  and  C_15
REMARK    6  A    between atoms: C_14  and  C_16
REMARK                            x       y       z     vdW  Elec       q    Type
REMARK                         _______ _______ _______ _____ _____    ______ ____
ROOT
ATOM      1  N   UNL     1      -4.559  12.796  19.308  0.00  0.00    +0.000 N 
ATOM      2  C   UNL     1      -3.440  12.996  20.100  0.00  0.00    +0.000 A 
ATOM      3  N   UNL     1      -3.379  14.204  20.675  0.00  0.00    +0.000 NA
ATOM      4  C   UNL     1      -2.396  14.417  21.561  0.00  0.00    +0.000 A 
ATOM      5  C   UNL     1      -1.453  13.482  21.869  0.00  0.00    +0.000 A 
ATOM      6  C   UNL     1      -1.537  12.289  21.172  0.00  0.00    +0.000 A 
ATOM      7  N   UNL     1      -2.512  12.040  20.273  0.00  0.00    +0.000 NA
ATOM      8  H   UNL     1      -4.484  13.415  18.512  0.00  0.00    +0.000 HD
ENDROOT
BRANCH   6   9
ATOM      9  N   UNL     1      -0.546  11.324  21.420  0.00  0.00    +0.000 N 
ATOM     10  C   UNL     1      -0.448  10.640  22.605  0.00  0.00    +0.000 C 
ATOM     11  O   UNL     1      -1.210  10.693  23.558  0.00  0.00    +0.000 OA
ATOM     12  O   UNL     1       0.657   9.838  22.593  0.00  0.00    +0.000 OA
ATOM     13  C   UNL     1       1.442  10.163  21.439  0.00  0.00    +0.000 C 
ATOM     14  C   UNL     1       0.507  10.964  20.499  0.00  0.00    +0.000 C 
ATOM     15  C   UNL     1       0.001   9.984  19.422  0.00  0.00    +0.000 C 
BRANCH  14  16
ATOM     16  C   UNL     1       1.269  12.190  19.960  0.00  0.00    +0.000 A 
ATOM     17  C   UNL     1       1.231  12.568  18.607  0.00  0.00    +0.000 A 
ATOM     18  C   UNL     1       1.971  13.662  18.141  0.00  0.00    +0.000 A 
ATOM     19  C   UNL     1       2.757  14.405  19.017  0.00  0.00    +0.000 A 
ATOM     20  C   UNL     1       2.795  14.067  20.364  0.00  0.00    +0.000 A 
ATOM     21  C   UNL     1       2.059  12.974  20.830  0.00  0.00    +0.000 A 
ENDBRANCH  14  16
ENDBRANCH   6   9
BRANCH   1  23
ATOM     22  C   UNL     1      -6.510  11.395  18.848  0.00  0.00    +0.000 C 
ATOM     23  C   UNL     1      -4.984  11.440  19.012  0.00  0.00    +0.000 C 
BRANCH  23  24
ATOM     24  C   UNL     1      -4.315  10.973  17.713  0.00  0.00    +0.000 A 
ATOM     25  C   UNL     1      -4.616  11.617  16.499  0.00  0.00    +0.000 A 
ATOM     26  C   UNL     1      -3.978  11.240  15.312  0.00  0.00    +0.000 A 
ATOM     27  C   UNL     1      -3.039  10.218  15.328  0.00  0.00    +0.000 A 
ATOM     28  F   UNL     1      -2.421   9.866  14.193  0.00  0.00    +0.000 F 
ATOM     29  C   UNL     1      -2.729   9.558  16.512  0.00  0.00    +0.000 A 
ATOM     30  C   UNL     1      -3.368   9.934  17.701  0.00  0.00    +0.000 A 
ENDBRANCH  23  24
ENDBRANCH   1  23
TORSDOF 4
ENDMDL
