MODEL 1
REMARK VINA RESULT:      -8.5      0.000      0.000
REMARK  Name = 
REMARK  3 active torsions:
REMARK  status: ('A' for Active; 'I' for Inactive)
REMARK    1  A    between atoms: S_2  and  C_4
REMARK    2  A    between atoms: S_2  and  C_11
REMARK    3  A    between atoms: N_18  and  C_19
REMARK                            x       y       z     vdW  Elec       q    Type
REMARK                         _______ _______ _______ _____ _____    ______ ____
ROOT
ATOM      1  C   UNL     1       4.954   4.742  16.490  0.00  0.00    +0.000 A 
ATOM      2  N   UNL     1       5.023   3.426  16.091  0.00  0.00    +0.000 NA
ATOM      3  N   UNL     1       4.159   2.729  16.826  0.00  0.00    +0.000 NA
ATOM      4  N   UNL     1       3.575   3.589  17.683  0.00  0.00    +0.000 N 
ATOM      5  C   UNL     1       4.013   4.890  17.494  0.00  0.00    +0.000 A 
ATOM      6  N   UNL     1       3.547   5.957  18.234  0.00  0.00    +0.000 NA
ATOM      7  C   UNL     1       2.695   5.738  19.211  0.00  0.00    +0.000 A 
ATOM      8  N   UNL     1       2.254   6.790  19.984  0.00  0.00    +0.000 N 
ATOM      9  C   UNL     1       2.234   4.367  19.450  0.00  0.00    +0.000 A 
ATOM     10  S   UNL     1       1.106   3.900  20.631  0.00  0.00    +0.000 S 
ATOM     11  C   UNL     1       1.171   2.259  20.111  0.00  0.00    +0.000 A 
ATOM     12  C   UNL     1       2.051   2.073  19.056  0.00  0.00    +0.000 A 
ATOM     13  C   UNL     1       2.638   3.299  18.691  0.00  0.00    +0.000 A 
ATOM     14  H   UNL     1       1.681   6.556  20.783  0.00  0.00    +0.000 HD
ENDROOT
BRANCH   8  15
ATOM     15  C   UNL     1       2.182   8.156  19.509  0.00  0.00    +0.000 C 
ATOM     16  C   UNL     1       1.665   8.195  18.072  0.00  0.00    +0.000 C 
ATOM     17  C   UNL     1       1.128   9.607  17.907  0.00  0.00    +0.000 C 
ATOM     18  C   UNL     1       0.664  10.039  19.295  0.00  0.00    +0.000 C 
ATOM     19  C   UNL     1       1.149   8.971  20.275  0.00  0.00    +0.000 C 
ENDBRANCH   8  15
BRANCH   1  21
ATOM     20  O   UNL     1       5.034   7.014  15.397  0.00  0.00    +0.000 OA
ATOM     21  S   UNL     1       5.942   5.969  15.825  0.00  0.00    +0.000 S 
ATOM     22  O   UNL     1       6.834   5.286  14.908  0.00  0.00    +0.000 OA
BRANCH  21  23
ATOM     23  C   UNL     1       6.922   6.623  17.156  0.00  0.00    +0.000 A 
ATOM     24  C   UNL     1       7.370   5.770  18.172  0.00  0.00    +0.000 A 
ATOM     25  C   UNL     1       8.206   6.271  19.173  0.00  0.00    +0.000 A 
ATOM     26  C   UNL     1       8.596   7.611  19.150  0.00  0.00    +0.000 A 
ATOM     27  C   UNL     1       8.154   8.448  18.126  0.00  0.00    +0.000 A 
ATOM     28 CL   UNL     1       8.656  10.095  18.097  0.00  0.00    +0.000 Cl
ATOM     29  C   UNL     1       7.322   7.964  17.121  0.00  0.00    +0.000 A 
ENDBRANCH  21  23
ENDBRANCH   1  21
TORSDOF 3
ENDMDL
MODEL 2
REMARK VINA RESULT:      -8.0      7.963     10.398
REMARK  Name = 
REMARK  3 active torsions:
REMARK  status: ('A' for Active; 'I' for Inactive)
REMARK    1  A    between atoms: S_2  and  C_4
REMARK    2  A    between atoms: S_2  and  C_11
REMARK    3  A    between atoms: N_18  and  C_19
REMARK                            x       y       z     vdW  Elec       q    Type
REMARK                         _______ _______ _______ _____ _____    ______ ____
ROOT
ATOM      1  C   UNL     1      -2.275  12.927  22.143  0.00  0.00    +0.000 A 
ATOM      2  N   UNL     1      -2.830  13.089  23.393  0.00  0.00    +0.000 NA
ATOM      3  N   UNL     1      -4.147  12.930  23.280  0.00  0.00    +0.000 NA
ATOM      4  N   UNL     1      -4.413  12.693  21.982  0.00  0.00    +0.000 N 
ATOM      5  C   UNL     1      -3.260  12.643  21.214  0.00  0.00    +0.000 A 
ATOM      6  N   UNL     1      -3.269  12.393  19.857  0.00  0.00    +0.000 NA
ATOM      7  C   UNL     1      -4.419  12.256  19.236  0.00  0.00    +0.000 A 
ATOM      8  N   UNL     1      -4.441  12.046  17.874  0.00  0.00    +0.000 N 
ATOM      9  C   UNL     1      -5.656  12.329  20.019  0.00  0.00    +0.000 A 
ATOM     10  S   UNL     1      -7.226  12.130  19.400  0.00  0.00    +0.000 S 
ATOM     11  C   UNL     1      -7.916  12.304  20.969  0.00  0.00    +0.000 A 
ATOM     12  C   UNL     1      -6.958  12.520  21.947  0.00  0.00    +0.000 A 
ATOM     13  C   UNL     1      -5.672  12.519  21.377  0.00  0.00    +0.000 A 
ATOM     14  H   UNL     1      -5.350  12.049  17.430  0.00  0.00    +0.000 HD
ENDROOT
BRANCH   8  15
ATOM     15  C   UNL     1      -3.361  11.414  17.145  0.00  0.00    +0.000 C 
ATOM     16  C   UNL     1      -3.203   9.958  17.581  0.00  0.00    +0.000 C 
ATOM     17  C   UNL     1      -2.479   9.298  16.418  0.00  0.00    +0.000 C 
ATOM     18  C   UNL     1      -2.900  10.073  15.173  0.00  0.00    +0.000 C 
ATOM     19  C   UNL     1      -3.668  11.303  15.657  0.00  0.00    +0.000 C 
ENDBRANCH   8  15
BRANCH   1  21
ATOM     20  O   UNL     1      -0.006  13.456  23.110  0.00  0.00    +0.000 OA
ATOM     21  S   UNL     1      -0.601  13.098  21.839  0.00  0.00    +0.000 S 
ATOM     22  O   UNL     1      -0.511  13.948  20.668  0.00  0.00    +0.000 OA
BRANCH  21  23
ATOM     23  C   UNL     1       0.012  11.489  21.395  0.00  0.00    +0.000 A 
ATOM     24  C   UNL     1      -0.018  10.451  22.335  0.00  0.00    +0.000 A 
ATOM     25  C   UNL     1       0.389   9.170  21.958  0.00  0.00    +0.000 A 
ATOM     26  C   UNL     1       0.813   8.929  20.651  0.00  0.00    +0.000 A 
ATOM     27  C   UNL     1       0.827   9.967  19.719  0.00  0.00    +0.000 A 
ATOM     28 CL   UNL     1       1.335   9.654  18.105  0.00  0.00    +0.000 Cl
ATOM     29  C   UNL     1       0.423  11.249  20.079  0.00  0.00    +0.000 A 
ENDBRANCH  21  23
ENDBRANCH   1  21
TORSDOF 3
ENDMDL
MODEL 3
REMARK VINA RESULT:      -8.0      1.024      1.374
REMARK  Name = 
REMARK  3 active torsions:
REMARK  status: ('A' for Active; 'I' for Inactive)
REMARK    1  A    between atoms: S_2  and  C_4
REMARK    2  A    between atoms: S_2  and  C_11
REMARK    3  A    between atoms: N_18  and  C_19
REMARK                            x       y       z     vdW  Elec       q    Type
REMARK                         _______ _______ _______ _____ _____    ______ ____
ROOT
ATOM      1  C   UNL     1       4.908   4.751  16.492  0.00  0.00    +0.000 A 
ATOM      2  N   UNL     1       4.976   3.429  16.113  0.00  0.00    +0.000 NA
ATOM      3  N   UNL     1       4.144   2.737  16.889  0.00  0.00    +0.000 NA
ATOM      4  N   UNL     1       3.581   3.607  17.749  0.00  0.00    +0.000 N 
ATOM      5  C   UNL     1       4.000   4.908  17.524  0.00  0.00    +0.000 A 
ATOM      6  N   UNL     1       3.549   5.983  18.261  0.00  0.00    +0.000 NA
ATOM      7  C   UNL     1       2.731   5.774  19.270  0.00  0.00    +0.000 A 
ATOM      8  N   UNL     1       2.307   6.835  20.038  0.00  0.00    +0.000 N 
ATOM      9  C   UNL     1       2.292   4.403  19.547  0.00  0.00    +0.000 A 
ATOM     10  S   UNL     1       1.208   3.947  20.773  0.00  0.00    +0.000 S 
ATOM     11  C   UNL     1       1.271   2.297  20.278  0.00  0.00    +0.000 A 
ATOM     12  C   UNL     1       2.117   2.102  19.198  0.00  0.00    +0.000 A 
ATOM     13  C   UNL     1       2.681   3.326  18.793  0.00  0.00    +0.000 A 
ATOM     14  H   UNL     1       1.762   6.610  20.860  0.00  0.00    +0.000 HD
ENDROOT
BRANCH   8  15
ATOM     15  C   UNL     1       2.206   8.192  19.543  0.00  0.00    +0.000 C 
ATOM     16  C   UNL     1       1.755   8.196  18.083  0.00  0.00    +0.000 C 
ATOM     17  C   UNL     1       1.174   9.585  17.876  0.00  0.00    +0.000 C 
ATOM     18  C   UNL     1       0.631  10.014  19.235  0.00  0.00    +0.000 C 
ATOM     19  C   UNL     1       1.109   8.976  20.250  0.00  0.00    +0.000 C 
ENDBRANCH   8  15
BRANCH   1  21
ATOM     20  O   UNL     1       4.942   7.044  15.441  0.00  0.00    +0.000 OA
ATOM     21  S   UNL     1       5.862   5.975  15.774  0.00  0.00    +0.000 S 
ATOM     22  O   UNL     1       6.664   5.297  14.774  0.00  0.00    +0.000 OA
BRANCH  21  23
ATOM     23  C   UNL     1       6.959   6.585  17.034  0.00  0.00    +0.000 A 
ATOM     24  C   UNL     1       7.366   7.924  17.011  0.00  0.00    +0.000 A 
ATOM     25  C   UNL     1       8.162   8.419  18.047  0.00  0.00    +0.000 A 
ATOM     26  C   UNL     1       8.539   7.582  19.098  0.00  0.00    +0.000 A 
ATOM     27  C   UNL     1       8.117   6.253  19.117  0.00  0.00    +0.000 A 
ATOM     28 CL   UNL     1       8.572   5.234  20.427  0.00  0.00    +0.000 Cl
ATOM     29  C   UNL     1       7.322   5.745  18.093  0.00  0.00    +0.000 A 
ENDBRANCH  21  23
ENDBRANCH   1  21
TORSDOF 3
ENDMDL
MODEL 4
REMARK VINA RESULT:      -7.7      2.815      3.575
REMARK  Name = 
REMARK  3 active torsions:
REMARK  status: ('A' for Active; 'I' for Inactive)
REMARK    1  A    between atoms: S_2  and  C_4
REMARK    2  A    between atoms: S_2  and  C_11
REMARK    3  A    between atoms: N_18  and  C_19
REMARK                            x       y       z     vdW  Elec       q    Type
REMARK                         _______ _______ _______ _____ _____    ______ ____
ROOT
ATOM      1  C   UNL     1       5.127   4.526  16.744  0.00  0.00    +0.000 A 
ATOM      2  N   UNL     1       5.206   3.184  16.444  0.00  0.00    +0.000 NA
ATOM      3  N   UNL     1       4.324   2.541  17.207  0.00  0.00    +0.000 NA
ATOM      4  N   UNL     1       3.720   3.460  17.984  0.00  0.00    +0.000 N 
ATOM      5  C   UNL     1       4.162   4.745  17.711  0.00  0.00    +0.000 A 
ATOM      6  N   UNL     1       3.679   5.862  18.361  0.00  0.00    +0.000 NA
ATOM      7  C   UNL     1       2.803   5.714  19.330  0.00  0.00    +0.000 A 
ATOM      8  N   UNL     1       2.344   6.818  20.013  0.00  0.00    +0.000 N 
ATOM      9  C   UNL     1       2.337   4.363  19.657  0.00  0.00    +0.000 A 
ATOM     10  S   UNL     1       1.180   3.982  20.842  0.00  0.00    +0.000 S 
ATOM     11  C   UNL     1       1.258   2.307  20.444  0.00  0.00    +0.000 A 
ATOM     12  C   UNL     1       2.163   2.046  19.427  0.00  0.00    +0.000 A 
ATOM     13  C   UNL     1       2.759   3.243  18.988  0.00  0.00    +0.000 A 
ATOM     14  H   UNL     1       1.752   6.642  20.814  0.00  0.00    +0.000 HD
ENDROOT
BRANCH   8  15
ATOM     15  C   UNL     1       2.284   8.146  19.439  0.00  0.00    +0.000 C 
ATOM     16  C   UNL     1       1.790   8.081  17.994  0.00  0.00    +0.000 C 
ATOM     17  C   UNL     1       1.260   9.478  17.718  0.00  0.00    +0.000 C 
ATOM     18  C   UNL     1       0.775  10.011  19.062  0.00  0.00    +0.000 C 
ATOM     19  C   UNL     1       1.240   9.017  20.125  0.00  0.00    +0.000 C 
ENDBRANCH   8  15
BRANCH   1  21
ATOM     20  O   UNL     1       7.363   5.695  16.778  0.00  0.00    +0.000 OA
ATOM     21  S   UNL     1       6.131   5.703  16.015  0.00  0.00    +0.000 S 
ATOM     22  O   UNL     1       5.301   6.885  15.886  0.00  0.00    +0.000 OA
BRANCH  21  23
ATOM     23  C   UNL     1       6.510   5.119  14.379  0.00  0.00    +0.000 A 
ATOM     24  C   UNL     1       7.696   5.526  13.755  0.00  0.00    +0.000 A 
ATOM     25  C   UNL     1       8.028   5.003  12.503  0.00  0.00    +0.000 A 
ATOM     26  C   UNL     1       7.186   4.075  11.888  0.00  0.00    +0.000 A 
ATOM     27  C   UNL     1       6.014   3.668  12.525  0.00  0.00    +0.000 A 
ATOM     28 CL   UNL     1       4.991   2.511  11.766  0.00  0.00    +0.000 Cl
ATOM     29  C   UNL     1       5.669   4.179  13.773  0.00  0.00    +0.000 A 
ENDBRANCH  21  23
ENDBRANCH   1  21
TORSDOF 3
ENDMDL
MODEL 5
REMARK VINA RESULT:      -7.7      8.301     10.562
REMARK  Name = 
REMARK  3 active torsions:
REMARK  status: ('A' for Active; 'I' for Inactive)
REMARK    1  A    between atoms: S_2  and  C_4
REMARK    2  A    between atoms: S_2  and  C_11
REMARK    3  A    between atoms: N_18  and  C_19
REMARK                            x       y       z     vdW  Elec       q    Type
REMARK                         _______ _______ _______ _____ _____    ______ ____
ROOT
ATOM      1  C   UNL     1      -2.265  13.366  22.062  0.00  0.00    +0.000 A 
ATOM      2  N   UNL     1      -2.757  13.527  23.337  0.00  0.00    +0.000 NA
ATOM      3  N   UNL     1      -4.051  13.214  23.320  0.00  0.00    +0.000 NA
ATOM      4  N   UNL     1      -4.367  12.882  22.053  0.00  0.00    +0.000 N 
ATOM      5  C   UNL     1      -3.265  12.924  21.213  0.00  0.00    +0.000 A 
ATOM      6  N   UNL     1      -3.328  12.606  19.872  0.00  0.00    +0.000 NA
ATOM      7  C   UNL     1      -4.490  12.307  19.336  0.00  0.00    +0.000 A 
ATOM      8  N   UNL     1      -4.570  12.028  17.989  0.00  0.00    +0.000 N 
ATOM      9  C   UNL     1      -5.676  12.279  20.196  0.00  0.00    +0.000 A 
ATOM     10  S   UNL     1      -7.247  11.872  19.692  0.00  0.00    +0.000 S 
ATOM     11  C   UNL     1      -7.855  12.046  21.296  0.00  0.00    +0.000 A 
ATOM     12  C   UNL     1      -6.871  12.419  22.197  0.00  0.00    +0.000 A 
ATOM     13  C   UNL     1      -5.631  12.536  21.543  0.00  0.00    +0.000 A 
ATOM     14  H   UNL     1      -5.499  11.904  17.607  0.00  0.00    +0.000 HD
ENDROOT
BRANCH   8  15
ATOM     15  C   UNL     1      -3.472  11.486  17.217  0.00  0.00    +0.000 C 
ATOM     16  C   UNL     1      -3.036  10.135  17.783  0.00  0.00    +0.000 C 
ATOM     17  C   UNL     1      -2.321   9.459  16.625  0.00  0.00    +0.000 C 
ATOM     18  C   UNL     1      -2.974  10.004  15.359  0.00  0.00    +0.000 C 
ATOM     19  C   UNL     1      -3.888  11.150  15.792  0.00  0.00    +0.000 C 
ENDBRANCH   8  15
BRANCH   1  21
ATOM     20  O   UNL     1       0.084  13.766  22.890  0.00  0.00    +0.000 OA
ATOM     21  S   UNL     1      -0.644  13.710  21.639  0.00  0.00    +0.000 S 
ATOM     22  O   UNL     1      -0.718  14.836  20.728  0.00  0.00    +0.000 OA
BRANCH  21  23
ATOM     23  C   UNL     1      -0.037  12.308  20.728  0.00  0.00    +0.000 A 
ATOM     24  C   UNL     1       0.506  12.493  19.451  0.00  0.00    +0.000 A 
ATOM     25  C   UNL     1       1.054  11.403  18.772  0.00  0.00    +0.000 A 
ATOM     26  C   UNL     1       1.065  10.142  19.371  0.00  0.00    +0.000 A 
ATOM     27  C   UNL     1       0.533   9.972  20.648  0.00  0.00    +0.000 A 
ATOM     28 CL   UNL     1       0.568   8.417  21.385  0.00  0.00    +0.000 Cl
ATOM     29  C   UNL     1      -0.016  11.049  21.338  0.00  0.00    +0.000 A 
ENDBRANCH  21  23
ENDBRANCH   1  21
TORSDOF 3
ENDMDL
MODEL 6
REMARK VINA RESULT:      -7.7      3.387      6.864
REMARK  Name = 
REMARK  3 active torsions:
REMARK  status: ('A' for Active; 'I' for Inactive)
REMARK    1  A    between atoms: S_2  and  C_4
REMARK    2  A    between atoms: S_2  and  C_11
REMARK    3  A    between atoms: N_18  and  C_19
REMARK                            x       y       z     vdW  Elec       q    Type
REMARK                         _______ _______ _______ _____ _____    ______ ____
ROOT
ATOM      1  C   UNL     1       1.720   8.131  19.457  0.00  0.00    +0.000 A 
ATOM      2  N   UNL     1       1.097   8.164  20.685  0.00  0.00    +0.000 NA
ATOM      3  N   UNL     1       1.259   6.974  21.259  0.00  0.00    +0.000 NA
ATOM      4  N   UNL     1       1.953   6.204  20.399  0.00  0.00    +0.000 N 
ATOM      5  C   UNL     1       2.307   6.895  19.251  0.00  0.00    +0.000 A 
ATOM      6  N   UNL     1       3.040   6.330  18.227  0.00  0.00    +0.000 NA
ATOM      7  C   UNL     1       3.373   5.060  18.300  0.00  0.00    +0.000 A 
ATOM      8  N   UNL     1       4.070   4.475  17.266  0.00  0.00    +0.000 N 
ATOM      9  C   UNL     1       2.990   4.299  19.493  0.00  0.00    +0.000 A 
ATOM     10  S   UNL     1       3.371   2.669  19.783  0.00  0.00    +0.000 S 
ATOM     11  C   UNL     1       2.616   2.721  21.332  0.00  0.00    +0.000 A 
ATOM     12  C   UNL     1       2.075   3.964  21.614  0.00  0.00    +0.000 A 
ATOM     13  C   UNL     1       2.312   4.852  20.548  0.00  0.00    +0.000 A 
ATOM     14  H   UNL     1       4.212   3.475  17.324  0.00  0.00    +0.000 HD
ENDROOT
BRANCH   8  15
ATOM     15  C   UNL     1       4.948   5.207  16.377  0.00  0.00    +0.000 C 
ATOM     16  C   UNL     1       6.312   5.420  17.032  0.00  0.00    +0.000 C 
ATOM     17  C   UNL     1       7.251   5.670  15.864  0.00  0.00    +0.000 C 
ATOM     18  C   UNL     1       6.664   4.899  14.686  0.00  0.00    +0.000 C 
ATOM     19  C   UNL     1       5.283   4.410  15.124  0.00  0.00    +0.000 C 
ENDBRANCH   8  15
BRANCH   1  21
ATOM     20  O   UNL     1       1.976   8.887  17.064  0.00  0.00    +0.000 OA
ATOM     21  S   UNL     1       1.708   9.452  18.371  0.00  0.00    +0.000 S 
ATOM     22  O   UNL     1       2.563  10.453  18.980  0.00  0.00    +0.000 OA
BRANCH  21  23
ATOM     23  C   UNL     1       0.048  10.090  18.350  0.00  0.00    +0.000 A 
ATOM     24  C   UNL     1      -0.323  11.089  19.258  0.00  0.00    +0.000 A 
ATOM     25  C   UNL     1      -1.602  11.643  19.185  0.00  0.00    +0.000 A 
ATOM     26  C   UNL     1      -2.497  11.207  18.207  0.00  0.00    +0.000 A 
ATOM     27  C   UNL     1      -2.112  10.221  17.300  0.00  0.00    +0.000 A 
ATOM     28 CL   UNL     1      -3.218   9.703  16.086  0.00  0.00    +0.000 Cl
ATOM     29  C   UNL     1      -0.840   9.659  17.359  0.00  0.00    +0.000 A 
ENDBRANCH  21  23
ENDBRANCH   1  21
TORSDOF 3
ENDMDL
MODEL 7
REMARK VINA RESULT:      -7.6      3.304      6.824
REMARK  Name = 
REMARK  3 active torsions:
REMARK  status: ('A' for Active; 'I' for Inactive)
REMARK    1  A    between atoms: S_2  and  C_4
REMARK    2  A    between atoms: S_2  and  C_11
REMARK    3  A    between atoms: N_18  and  C_19
REMARK                            x       y       z     vdW  Elec       q    Type
REMARK                         _______ _______ _______ _____ _____    ______ ____
ROOT
ATOM      1  C   UNL     1       1.691   8.180  19.439  0.00  0.00    +0.000 A 
ATOM      2  N   UNL     1       1.059   8.225  20.662  0.00  0.00    +0.000 NA
ATOM      3  N   UNL     1       1.214   7.039  21.247  0.00  0.00    +0.000 NA
ATOM      4  N   UNL     1       1.912   6.261  20.398  0.00  0.00    +0.000 N 
ATOM      5  C   UNL     1       2.275   6.941  19.246  0.00  0.00    +0.000 A 
ATOM      6  N   UNL     1       3.013   6.365  18.233  0.00  0.00    +0.000 NA
ATOM      7  C   UNL     1       3.342   5.095  18.318  0.00  0.00    +0.000 A 
ATOM      8  N   UNL     1       4.044   4.500  17.293  0.00  0.00    +0.000 N 
ATOM      9  C   UNL     1       2.949   4.345  19.514  0.00  0.00    +0.000 A 
ATOM     10  S   UNL     1       3.323   2.716  19.821  0.00  0.00    +0.000 S 
ATOM     11  C   UNL     1       2.558   2.783  21.363  0.00  0.00    +0.000 A 
ATOM     12  C   UNL     1       2.018   4.031  21.632  0.00  0.00    +0.000 A 
ATOM     13  C   UNL     1       2.265   4.909  20.561  0.00  0.00    +0.000 A 
ATOM     14  H   UNL     1       4.183   3.500  17.361  0.00  0.00    +0.000 HD
ENDROOT
BRANCH   8  15
ATOM     15  C   UNL     1       4.930   5.222  16.405  0.00  0.00    +0.000 C 
ATOM     16  C   UNL     1       6.286   5.450  17.073  0.00  0.00    +0.000 C 
ATOM     17  C   UNL     1       7.238   5.686  15.912  0.00  0.00    +0.000 C 
ATOM     18  C   UNL     1       6.667   4.896  14.739  0.00  0.00    +0.000 C 
ATOM     19  C   UNL     1       5.283   4.408  15.167  0.00  0.00    +0.000 C 
ENDBRANCH   8  15
BRANCH   1  21
ATOM     20  O   UNL     1       2.002   8.922  17.048  0.00  0.00    +0.000 OA
ATOM     21  S   UNL     1       1.690   9.492  18.342  0.00  0.00    +0.000 S 
ATOM     22  O   UNL     1       2.513  10.511  18.966  0.00  0.00    +0.000 OA
BRANCH  21  23
ATOM     23  C   UNL     1       0.022  10.106  18.270  0.00  0.00    +0.000 A 
ATOM     24  C   UNL     1      -0.898   9.510  17.399  0.00  0.00    +0.000 A 
ATOM     25  C   UNL     1      -2.226   9.942  17.402  0.00  0.00    +0.000 A 
ATOM     26  C   UNL     1      -2.629  10.953  18.275  0.00  0.00    +0.000 A 
ATOM     27  C   UNL     1      -1.706  11.530  19.147  0.00  0.00    +0.000 A 
ATOM     28 CL   UNL     1      -2.218  12.764  20.233  0.00  0.00    +0.000 Cl
ATOM     29  C   UNL     1      -0.379  11.110  19.157  0.00  0.00    +0.000 A 
ENDBRANCH  21  23
ENDBRANCH   1  21
TORSDOF 3
ENDMDL
MODEL 8
REMARK VINA RESULT:      -7.4      3.446      6.697
REMARK  Name = 
REMARK  3 active torsions:
REMARK  status: ('A' for Active; 'I' for Inactive)
REMARK    1  A    between atoms: S_2  and  C_4
REMARK    2  A    between atoms: S_2  and  C_11
REMARK    3  A    between atoms: N_18  and  C_19
REMARK                            x       y       z     vdW  Elec       q    Type
REMARK                         _______ _______ _______ _____ _____    ______ ____
ROOT
ATOM      1  C   UNL     1       1.726   7.976  19.373  0.00  0.00    +0.000 A 
ATOM      2  N   UNL     1       1.114   8.032  20.605  0.00  0.00    +0.000 NA
ATOM      3  N   UNL     1       1.303   6.861  21.210  0.00  0.00    +0.000 NA
ATOM      4  N   UNL     1       2.003   6.081  20.365  0.00  0.00    +0.000 N 
ATOM      5  C   UNL     1       2.333   6.745  19.194  0.00  0.00    +0.000 A 
ATOM      6  N   UNL     1       3.066   6.165  18.180  0.00  0.00    +0.000 NA
ATOM      7  C   UNL     1       3.423   4.904  18.284  0.00  0.00    +0.000 A 
ATOM      8  N   UNL     1       4.121   4.303  17.259  0.00  0.00    +0.000 N 
ATOM      9  C   UNL     1       3.066   4.170  19.501  0.00  0.00    +0.000 A 
ATOM     10  S   UNL     1       3.478   2.555  19.832  0.00  0.00    +0.000 S 
ATOM     11  C   UNL     1       2.737   2.637  21.386  0.00  0.00    +0.000 A 
ATOM     12  C   UNL     1       2.176   3.878  21.640  0.00  0.00    +0.000 A 
ATOM     13  C   UNL     1       2.387   4.740  20.548  0.00  0.00    +0.000 A 
ATOM     14  H   UNL     1       4.282   3.308  17.344  0.00  0.00    +0.000 HD
ENDROOT
BRANCH   8  15
ATOM     15  C   UNL     1       4.977   5.026  16.343  0.00  0.00    +0.000 C 
ATOM     16  C   UNL     1       6.341   5.288  16.981  0.00  0.00    +0.000 C 
ATOM     17  C   UNL     1       7.266   5.522  15.798  0.00  0.00    +0.000 C 
ATOM     18  C   UNL     1       6.687   4.702  14.649  0.00  0.00    +0.000 C 
ATOM     19  C   UNL     1       5.320   4.198  15.111  0.00  0.00    +0.000 C 
ENDBRANCH   8  15
BRANCH   1  21
ATOM     20  O   UNL     1       1.059   8.726  17.058  0.00  0.00    +0.000 OA
ATOM     21  S   UNL     1       1.680   9.266  18.251  0.00  0.00    +0.000 S 
ATOM     22  O   UNL     1       3.020   9.820  18.252  0.00  0.00    +0.000 OA
BRANCH  21  23
ATOM     23  C   UNL     1       0.580  10.494  18.918  0.00  0.00    +0.000 A 
ATOM     24  C   UNL     1       1.087  11.499  19.753  0.00  0.00    +0.000 A 
ATOM     25  C   UNL     1       0.235  12.506  20.210  0.00  0.00    +0.000 A 
ATOM     26  C   UNL     1      -1.107  12.512  19.828  0.00  0.00    +0.000 A 
ATOM     27  C   UNL     1      -1.597  11.514  18.987  0.00  0.00    +0.000 A 
ATOM     28 CL   UNL     1      -3.251  11.541  18.507  0.00  0.00    +0.000 Cl
ATOM     29  C   UNL     1      -0.761  10.503  18.522  0.00  0.00    +0.000 A 
ENDBRANCH  21  23
ENDBRANCH   1  21
TORSDOF 3
ENDMDL
MODEL 9
REMARK VINA RESULT:      -7.4      7.688     10.020
REMARK  Name = 
REMARK  3 active torsions:
REMARK  status: ('A' for Active; 'I' for Inactive)
REMARK    1  A    between atoms: S_2  and  C_4
REMARK    2  A    between atoms: S_2  and  C_11
REMARK    3  A    between atoms: N_18  and  C_19
REMARK                            x       y       z     vdW  Elec       q    Type
REMARK                         _______ _______ _______ _____ _____    ______ ____
ROOT
ATOM      1  C   UNL     1      -0.908  13.384  21.730  0.00  0.00    +0.000 A 
ATOM      2  N   UNL     1      -1.066  13.645  23.073  0.00  0.00    +0.000 NA
ATOM      3  N   UNL     1      -2.353  13.482  23.373  0.00  0.00    +0.000 NA
ATOM      4  N   UNL     1      -2.991  13.146  22.236  0.00  0.00    +0.000 N 
ATOM      5  C   UNL     1      -2.120  13.033  21.163  0.00  0.00    +0.000 A 
ATOM      6  N   UNL     1      -2.530  12.679  19.894  0.00  0.00    +0.000 NA
ATOM      7  C   UNL     1      -3.811  12.498  19.659  0.00  0.00    +0.000 A 
ATOM      8  N   UNL     1      -4.235  12.184  18.387  0.00  0.00    +0.000 N 
ATOM      9  C   UNL     1      -4.757  12.636  20.770  0.00  0.00    +0.000 A 
ATOM     10  S   UNL     1      -6.436  12.396  20.668  0.00  0.00    +0.000 S 
ATOM     11  C   UNL     1      -6.627  12.693  22.355  0.00  0.00    +0.000 A 
ATOM     12  C   UNL     1      -5.425  12.980  22.981  0.00  0.00    +0.000 A 
ATOM     13  C   UNL     1      -4.369  12.931  22.052  0.00  0.00    +0.000 A 
ATOM     14  H   UNL     1      -5.235  12.156  18.238  0.00  0.00    +0.000 HD
ENDROOT
BRANCH   8  15
ATOM     15  C   UNL     1      -3.412  11.494  17.416  0.00  0.00    +0.000 C 
ATOM     16  C   UNL     1      -3.260  10.022  17.796  0.00  0.00    +0.000 C 
ATOM     17  C   UNL     1      -2.887   9.338  16.491  0.00  0.00    +0.000 C 
ATOM     18  C   UNL     1      -3.537  10.166  15.387  0.00  0.00    +0.000 C 
ATOM     19  C   UNL     1      -4.075  11.435  16.047  0.00  0.00    +0.000 C 
ENDBRANCH   8  15
BRANCH   1  21
ATOM     20  O   UNL     1       1.586  13.685  21.969  0.00  0.00    +0.000 OA
ATOM     21  S   UNL     1       0.595  13.525  20.925  0.00  0.00    +0.000 S 
ATOM     22  O   UNL     1       0.382  14.520  19.892  0.00  0.00    +0.000 OA
BRANCH  21  23
ATOM     23  C   UNL     1       0.903  11.966  20.127  0.00  0.00    +0.000 A 
ATOM     24  C   UNL     1       1.377  11.942  18.810  0.00  0.00    +0.000 A 
ATOM     25  C   UNL     1       1.694  10.719  18.215  0.00  0.00    +0.000 A 
ATOM     26  C   UNL     1       1.545   9.533  18.935  0.00  0.00    +0.000 A 
ATOM     27  C   UNL     1       1.084   9.570  20.251  0.00  0.00    +0.000 A 
ATOM     28 CL   UNL     1       0.922   8.103  21.136  0.00  0.00    +0.000 Cl
ATOM     29  C   UNL     1       0.765  10.781  20.858  0.00  0.00    +0.000 A 
ENDBRANCH  21  23
ENDBRANCH   1  21
TORSDOF 3
ENDMDL
