MODEL 1
REMARK VINA RESULT:      -7.3      0.000      0.000
REMARK  Name = 
REMARK  10 active torsions:
REMARK  status: ('A' for Active; 'I' for Inactive)
REMARK    1  A    between atoms: C_1  and  O_2
REMARK    2  A    between atoms: O_2  and  C_3
REMARK    3  A    between atoms: C_5  and  O_6
REMARK    4  A    between atoms: O_6  and  C_7
REMARK    5  A    between atoms: C_8  and  C_9
REMARK    6  A    between atoms: C_10  and  C_11
REMARK    7  A    between atoms: C_11  and  C_13
REMARK    8  A    between atoms: C_18  and  O_19
REMARK    9  A    between atoms: C_20  and  O_21
REMARK   10  A    between atoms: O_21  and  C_22
REMARK                            x       y       z     vdW  Elec       q    Type
REMARK                         _______ _______ _______ _____ _____    ______ ____
ROOT
ATOM      1  C   UNL     1       2.003   4.615  20.160  0.00  0.00    +0.000 A 
ATOM      2  C   UNL     1       2.826   3.626  19.626  0.00  0.00    +0.000 A 
ATOM      3  C   UNL     1       3.822   3.931  18.684  0.00  0.00    +0.000 A 
ATOM      4  C   UNL     1       3.969   5.256  18.225  0.00  0.00    +0.000 A 
ATOM      5  C   UNL     1       3.142   6.263  18.789  0.00  0.00    +0.000 A 
ATOM      6  C   UNL     1       2.166   5.930  19.740  0.00  0.00    +0.000 A 
ENDROOT
BRANCH   1   8
ATOM      7  C   UNL     1       1.197   2.844  21.511  0.00  0.00    +0.000 C 
ATOM      8  O   UNL     1       1.055   4.181  21.045  0.00  0.00    +0.000 OA
ENDBRANCH   1   8
BRANCH   3   9
ATOM      9  O   UNL     1       4.507   2.817  18.273  0.00  0.00    +0.000 OA
ATOM     10  C   UNL     1       3.768   1.619  18.071  0.00  0.00    +0.000 C 
ENDBRANCH   3   9
BRANCH   4  11
ATOM     11  C   UNL     1       4.906   5.637  17.154  0.00  0.00    +0.000 C 
ATOM     12  C   UNL     1       5.914   4.848  16.749  0.00  0.00    +0.000 C 
BRANCH  12  13
ATOM     13  C   UNL     1       6.826   5.321  15.673  0.00  0.00    +0.000 C 
ATOM     14  O   UNL     1       7.645   6.220  15.872  0.00  0.00    +0.000 OA
BRANCH  13  15
ATOM     15  C   UNL     1       6.720   4.710  14.316  0.00  0.00    +0.000 A 
ATOM     16  C   UNL     1       5.635   3.857  14.065  0.00  0.00    +0.000 A 
ATOM     17  C   UNL     1       5.446   3.301  12.795  0.00  0.00    +0.000 A 
ATOM     18  C   UNL     1       6.335   3.601  11.764  0.00  0.00    +0.000 A 
ATOM     19  C   UNL     1       7.414   4.454  12.000  0.00  0.00    +0.000 A 
ATOM     20  C   UNL     1       7.602   5.009  13.273  0.00  0.00    +0.000 A 
BRANCH  20  21
ATOM     21  O   UNL     1       8.636   5.879  13.460  0.00  0.00    +0.000 OA
ATOM     22  H   UNL     1       9.142   5.980  12.635  0.00  0.00    +0.000 HD
ENDBRANCH  20  21
ENDBRANCH  13  15
ENDBRANCH  12  13
ENDBRANCH   4  11
BRANCH   5  23
ATOM     23  O   UNL     1       3.349   7.551  18.346  0.00  0.00    +0.000 OA
ATOM     24  C   UNL     1       2.211   8.291  17.916  0.00  0.00    +0.000 C 
ENDBRANCH   5  23
TORSDOF 7
ENDMDL
MODEL 2
REMARK VINA RESULT:      -6.7      1.022      2.919
REMARK  Name = 
REMARK  10 active torsions:
REMARK  status: ('A' for Active; 'I' for Inactive)
REMARK    1  A    between atoms: C_1  and  O_2
REMARK    2  A    between atoms: O_2  and  C_3
REMARK    3  A    between atoms: C_5  and  O_6
REMARK    4  A    between atoms: O_6  and  C_7
REMARK    5  A    between atoms: C_8  and  C_9
REMARK    6  A    between atoms: C_10  and  C_11
REMARK    7  A    between atoms: C_11  and  C_13
REMARK    8  A    between atoms: C_18  and  O_19
REMARK    9  A    between atoms: C_20  and  O_21
REMARK   10  A    between atoms: O_21  and  C_22
REMARK                            x       y       z     vdW  Elec       q    Type
REMARK                         _______ _______ _______ _____ _____    ______ ____
ROOT
ATOM      1  C   UNL     1       2.065   5.772  20.311  0.00  0.00    +0.000 A 
ATOM      2  C   UNL     1       2.571   6.667  19.371  0.00  0.00    +0.000 A 
ATOM      3  C   UNL     1       3.590   6.294  18.480  0.00  0.00    +0.000 A 
ATOM      4  C   UNL     1       4.154   5.004  18.562  0.00  0.00    +0.000 A 
ATOM      5  C   UNL     1       3.620   4.091  19.507  0.00  0.00    +0.000 A 
ATOM      6  C   UNL     1       2.590   4.487  20.375  0.00  0.00    +0.000 A 
ENDROOT
BRANCH   1   8
ATOM      7  C   UNL     1       0.986   7.688  21.195  0.00  0.00    +0.000 C 
ATOM      8  O   UNL     1       1.095   6.270  21.139  0.00  0.00    +0.000 OA
ENDBRANCH   1   8
BRANCH   3   9
ATOM      9  O   UNL     1       3.957   7.322  17.651  0.00  0.00    +0.000 OA
ATOM     10  C   UNL     1       3.050   8.407  17.496  0.00  0.00    +0.000 C 
ENDBRANCH   3   9
BRANCH   4  11
ATOM     11  C   UNL     1       5.304   4.577  17.747  0.00  0.00    +0.000 C 
ATOM     12  C   UNL     1       5.675   5.203  16.618  0.00  0.00    +0.000 C 
BRANCH  12  13
ATOM     13  C   UNL     1       6.839   4.691  15.846  0.00  0.00    +0.000 C 
ATOM     14  O   UNL     1       7.940   4.526  16.374  0.00  0.00    +0.000 OA
BRANCH  13  15
ATOM     15  C   UNL     1       6.669   4.400  14.393  0.00  0.00    +0.000 A 
ATOM     16  C   UNL     1       5.565   3.628  14.003  0.00  0.00    +0.000 A 
ATOM     17  C   UNL     1       5.316   3.371  12.651  0.00  0.00    +0.000 A 
ATOM     18  C   UNL     1       6.165   3.894  11.676  0.00  0.00    +0.000 A 
ATOM     19  C   UNL     1       7.262   4.670  12.051  0.00  0.00    +0.000 A 
ATOM     20  C   UNL     1       7.510   4.924  13.406  0.00  0.00    +0.000 A 
BRANCH  20  21
ATOM     21  O   UNL     1       8.561   5.728  13.738  0.00  0.00    +0.000 OA
ATOM     22  H   UNL     1       8.420   6.115  14.619  0.00  0.00    +0.000 HD
ENDBRANCH  20  21
ENDBRANCH  13  15
ENDBRANCH  12  13
ENDBRANCH   4  11
BRANCH   5  23
ATOM     23  O   UNL     1       4.169   2.827  19.525  0.00  0.00    +0.000 OA
ATOM     24  C   UNL     1       3.419   1.774  18.929  0.00  0.00    +0.000 C 
ENDBRANCH   5  23
TORSDOF 7
ENDMDL
MODEL 3
REMARK VINA RESULT:      -6.7      2.343      7.739
REMARK  Name = 
REMARK  10 active torsions:
REMARK  status: ('A' for Active; 'I' for Inactive)
REMARK    1  A    between atoms: C_1  and  O_2
REMARK    2  A    between atoms: O_2  and  C_3
REMARK    3  A    between atoms: C_5  and  O_6
REMARK    4  A    between atoms: O_6  and  C_7
REMARK    5  A    between atoms: C_8  and  C_9
REMARK    6  A    between atoms: C_10  and  C_11
REMARK    7  A    between atoms: C_11  and  C_13
REMARK    8  A    between atoms: C_18  and  O_19
REMARK    9  A    between atoms: C_20  and  O_21
REMARK   10  A    between atoms: O_21  and  C_22
REMARK                            x       y       z     vdW  Elec       q    Type
REMARK                         _______ _______ _______ _____ _____    ______ ____
ROOT
ATOM      1  C   UNL     1       6.041   4.400  15.512  0.00  0.00    +0.000 A 
ATOM      2  C   UNL     1       6.374   5.592  16.149  0.00  0.00    +0.000 A 
ATOM      3  C   UNL     1       5.654   6.053  17.263  0.00  0.00    +0.000 A 
ATOM      4  C   UNL     1       4.537   5.326  17.724  0.00  0.00    +0.000 A 
ATOM      5  C   UNL     1       4.216   4.101  17.084  0.00  0.00    +0.000 A 
ATOM      6  C   UNL     1       4.964   3.658  15.983  0.00  0.00    +0.000 A 
ENDROOT
BRANCH   1   8
ATOM      7  C   UNL     1       6.092   3.725  13.241  0.00  0.00    +0.000 C 
ATOM      8  O   UNL     1       6.804   4.080  14.422  0.00  0.00    +0.000 OA
ENDBRANCH   1   8
BRANCH   3   9
ATOM      9  O   UNL     1       6.129   7.252  17.730  0.00  0.00    +0.000 OA
ATOM     10  C   UNL     1       7.496   7.563  17.491  0.00  0.00    +0.000 C 
ENDBRANCH   3   9
BRANCH   4  11
ATOM     11  C   UNL     1       3.659   5.802  18.808  0.00  0.00    +0.000 C 
ATOM     12  C   UNL     1       2.867   6.880  18.688  0.00  0.00    +0.000 C 
BRANCH  12  13
ATOM     13  C   UNL     1       2.027   7.301  19.841  0.00  0.00    +0.000 C 
ATOM     14  O   UNL     1       1.774   6.530  20.769  0.00  0.00    +0.000 OA
BRANCH  13  15
ATOM     15  C   UNL     1       1.457   8.680  19.853  0.00  0.00    +0.000 A 
ATOM     16  C   UNL     1       1.240   9.310  18.619  0.00  0.00    +0.000 A 
ATOM     17  C   UNL     1       0.651  10.577  18.561  0.00  0.00    +0.000 A 
ATOM     18  C   UNL     1       0.266  11.221  19.736  0.00  0.00    +0.000 A 
ATOM     19  C   UNL     1       0.470  10.601  20.969  0.00  0.00    +0.000 A 
ATOM     20  C   UNL     1       1.061   9.332  21.026  0.00  0.00    +0.000 A 
BRANCH  20  21
ATOM     21  O   UNL     1       1.201   8.729  22.242  0.00  0.00    +0.000 OA
ATOM     22  H   UNL     1       1.900   8.055  22.201  0.00  0.00    +0.000 HD
ENDBRANCH  20  21
ENDBRANCH  13  15
ENDBRANCH  12  13
ENDBRANCH   4  11
BRANCH   5  23
ATOM     23  O   UNL     1       3.146   3.398  17.594  0.00  0.00    +0.000 OA
ATOM     24  C   UNL     1       3.383   2.068  18.040  0.00  0.00    +0.000 C 
ENDBRANCH   5  23
TORSDOF 7
ENDMDL
MODEL 4
REMARK VINA RESULT:      -6.7      3.330      5.491
REMARK  Name = 
REMARK  10 active torsions:
REMARK  status: ('A' for Active; 'I' for Inactive)
REMARK    1  A    between atoms: C_1  and  O_2
REMARK    2  A    between atoms: O_2  and  C_3
REMARK    3  A    between atoms: C_5  and  O_6
REMARK    4  A    between atoms: O_6  and  C_7
REMARK    5  A    between atoms: C_8  and  C_9
REMARK    6  A    between atoms: C_10  and  C_11
REMARK    7  A    between atoms: C_11  and  C_13
REMARK    8  A    between atoms: C_18  and  O_19
REMARK    9  A    between atoms: C_20  and  O_21
REMARK   10  A    between atoms: O_21  and  C_22
REMARK                            x       y       z     vdW  Elec       q    Type
REMARK                         _______ _______ _______ _____ _____    ______ ____
ROOT
ATOM      1  C   UNL     1       0.141   9.140  20.928  0.00  0.00    +0.000 A 
ATOM      2  C   UNL     1       0.720   9.648  19.768  0.00  0.00    +0.000 A 
ATOM      3  C   UNL     1       1.690   8.924  19.056  0.00  0.00    +0.000 A 
ATOM      4  C   UNL     1       2.130   7.676  19.543  0.00  0.00    +0.000 A 
ATOM      5  C   UNL     1       1.521   7.154  20.714  0.00  0.00    +0.000 A 
ATOM      6  C   UNL     1       0.542   7.894  21.396  0.00  0.00    +0.000 A 
ENDROOT
BRANCH   1   8
ATOM      7  C   UNL     1      -0.679  10.042  22.960  0.00  0.00    +0.000 C 
ATOM      8  O   UNL     1      -0.768   9.958  21.542  0.00  0.00    +0.000 OA
ENDBRANCH   1   8
BRANCH   3   9
ATOM      9  O   UNL     1       2.145   9.606  17.957  0.00  0.00    +0.000 OA
ATOM     10  C   UNL     1       2.164  11.027  18.017  0.00  0.00    +0.000 C 
ENDBRANCH   3   9
BRANCH   4  11
ATOM     11  C   UNL     1       3.226   6.912  18.923  0.00  0.00    +0.000 C 
ATOM     12  C   UNL     1       3.074   6.199  17.796  0.00  0.00    +0.000 C 
BRANCH  12  13
ATOM     13  C   UNL     1       4.232   5.439  17.249  0.00  0.00    +0.000 C 
ATOM     14  O   UNL     1       4.073   4.477  16.496  0.00  0.00    +0.000 OA
BRANCH  13  15
ATOM     15  C   UNL     1       5.611   5.839  17.651  0.00  0.00    +0.000 A 
ATOM     16  C   UNL     1       6.105   7.062  17.175  0.00  0.00    +0.000 A 
ATOM     17  C   UNL     1       7.367   7.521  17.565  0.00  0.00    +0.000 A 
ATOM     18  C   UNL     1       8.142   6.765  18.444  0.00  0.00    +0.000 A 
ATOM     19  C   UNL     1       7.659   5.550  18.931  0.00  0.00    +0.000 A 
ATOM     20  C   UNL     1       6.395   5.091  18.538  0.00  0.00    +0.000 A 
BRANCH  20  21
ATOM     21  O   UNL     1       5.928   3.925  19.070  0.00  0.00    +0.000 OA
ATOM     22  H   UNL     1       4.964   3.868  18.954  0.00  0.00    +0.000 HD
ENDBRANCH  20  21
ENDBRANCH  13  15
ENDBRANCH  12  13
ENDBRANCH   4  11
BRANCH   5  23
ATOM     23  O   UNL     1       1.947   5.912  21.131  0.00  0.00    +0.000 OA
ATOM     24  C   UNL     1       1.255   4.774  20.630  0.00  0.00    +0.000 C 
ENDBRANCH   5  23
TORSDOF 7
ENDMDL
MODEL 5
REMARK VINA RESULT:      -6.6      2.751      7.400
REMARK  Name = 
REMARK  10 active torsions:
REMARK  status: ('A' for Active; 'I' for Inactive)
REMARK    1  A    between atoms: C_1  and  O_2
REMARK    2  A    between atoms: O_2  and  C_3
REMARK    3  A    between atoms: C_5  and  O_6
REMARK    4  A    between atoms: O_6  and  C_7
REMARK    5  A    between atoms: C_8  and  C_9
REMARK    6  A    between atoms: C_10  and  C_11
REMARK    7  A    between atoms: C_11  and  C_13
REMARK    8  A    between atoms: C_18  and  O_19
REMARK    9  A    between atoms: C_20  and  O_21
REMARK   10  A    between atoms: O_21  and  C_22
REMARK                            x       y       z     vdW  Elec       q    Type
REMARK                         _______ _______ _______ _____ _____    ______ ____
ROOT
ATOM      1  C   UNL     1       3.671   3.383  17.713  0.00  0.00    +0.000 A 
ATOM      2  C   UNL     1       2.733   3.754  18.674  0.00  0.00    +0.000 A 
ATOM      3  C   UNL     1       2.407   5.102  18.897  0.00  0.00    +0.000 A 
ATOM      4  C   UNL     1       3.074   6.112  18.173  0.00  0.00    +0.000 A 
ATOM      5  C   UNL     1       4.012   5.727  17.181  0.00  0.00    +0.000 A 
ATOM      6  C   UNL     1       4.306   4.371  16.970  0.00  0.00    +0.000 A 
ENDROOT
BRANCH   1   8
ATOM      7  C   UNL     1       3.628   1.264  18.773  0.00  0.00    +0.000 C 
ATOM      8  O   UNL     1       3.918   2.041  17.616  0.00  0.00    +0.000 OA
ENDBRANCH   1   8
BRANCH   3   9
ATOM      9  O   UNL     1       1.479   5.254  19.894  0.00  0.00    +0.000 OA
ATOM     10  C   UNL     1       1.012   4.082  20.552  0.00  0.00    +0.000 C 
ENDBRANCH   3   9
BRANCH   4  11
ATOM     11  C   UNL     1       2.877   7.549  18.432  0.00  0.00    +0.000 C 
ATOM     12  C   UNL     1       1.877   8.261  17.888  0.00  0.00    +0.000 C 
BRANCH  12  13
ATOM     13  C   UNL     1       1.766   9.714  18.189  0.00  0.00    +0.000 C 
ATOM     14  O   UNL     1       2.440  10.550  17.585  0.00  0.00    +0.000 OA
BRANCH  13  15
ATOM     15  C   UNL     1       0.837  10.158  19.269  0.00  0.00    +0.000 A 
ATOM     16  C   UNL     1       0.810   9.415  20.457  0.00  0.00    +0.000 A 
ATOM     17  C   UNL     1       0.006   9.815  21.530  0.00  0.00    +0.000 A 
ATOM     18  C   UNL     1      -0.769  10.969  21.425  0.00  0.00    +0.000 A 
ATOM     19  C   UNL     1      -0.745  11.721  20.251  0.00  0.00    +0.000 A 
ATOM     20  C   UNL     1       0.059  11.318  19.178  0.00  0.00    +0.000 A 
BRANCH  20  21
ATOM     21  O   UNL     1       0.102  12.101  18.061  0.00  0.00    +0.000 OA
ATOM     22  H   UNL     1       0.888  11.886  17.532  0.00  0.00    +0.000 HD
ENDBRANCH  20  21
ENDBRANCH  13  15
ENDBRANCH  12  13
ENDBRANCH   4  11
BRANCH   5  23
ATOM     23  O   UNL     1       4.608   6.743  16.466  0.00  0.00    +0.000 OA
ATOM     24  C   UNL     1       5.448   6.378  15.376  0.00  0.00    +0.000 C 
ENDBRANCH   5  23
TORSDOF 7
ENDMDL
MODEL 6
REMARK VINA RESULT:      -6.6      2.817      7.419
REMARK  Name = 
REMARK  10 active torsions:
REMARK  status: ('A' for Active; 'I' for Inactive)
REMARK    1  A    between atoms: C_1  and  O_2
REMARK    2  A    between atoms: O_2  and  C_3
REMARK    3  A    between atoms: C_5  and  O_6
REMARK    4  A    between atoms: O_6  and  C_7
REMARK    5  A    between atoms: C_8  and  C_9
REMARK    6  A    between atoms: C_10  and  C_11
REMARK    7  A    between atoms: C_11  and  C_13
REMARK    8  A    between atoms: C_18  and  O_19
REMARK    9  A    between atoms: C_20  and  O_21
REMARK   10  A    between atoms: O_21  and  C_22
REMARK                            x       y       z     vdW  Elec       q    Type
REMARK                         _______ _______ _______ _____ _____    ______ ____
ROOT
ATOM      1  C   UNL     1       4.619   3.464  19.204  0.00  0.00    +0.000 A 
ATOM      2  C   UNL     1       3.280   3.594  19.563  0.00  0.00    +0.000 A 
ATOM      3  C   UNL     1       2.521   4.708  19.171  0.00  0.00    +0.000 A 
ATOM      4  C   UNL     1       3.130   5.747  18.439  0.00  0.00    +0.000 A 
ATOM      5  C   UNL     1       4.489   5.600  18.057  0.00  0.00    +0.000 A 
ATOM      6  C   UNL     1       5.218   4.467  18.451  0.00  0.00    +0.000 A 
ENDROOT
BRANCH   1   8
ATOM      7  C   UNL     1       4.616   1.673  20.755  0.00  0.00    +0.000 C 
ATOM      8  O   UNL     1       5.252   2.346  19.674  0.00  0.00    +0.000 OA
ENDBRANCH   1   8
BRANCH   3   9
ATOM      9  O   UNL     1       1.234   4.652  19.642  0.00  0.00    +0.000 OA
ATOM     10  C   UNL     1       0.913   3.631  20.579  0.00  0.00    +0.000 C 
ENDBRANCH   3   9
BRANCH   4  11
ATOM     11  C   UNL     1       2.437   7.001  18.094  0.00  0.00    +0.000 C 
ATOM     12  C   UNL     1       2.300   8.023  18.954  0.00  0.00    +0.000 C 
BRANCH  12  13
ATOM     13  C   UNL     1       1.567   9.245  18.527  0.00  0.00    +0.000 C 
ATOM     14  O   UNL     1       1.732   9.737  17.410  0.00  0.00    +0.000 OA
BRANCH  13  15
ATOM     15  C   UNL     1       0.635   9.900  19.490  0.00  0.00    +0.000 A 
ATOM     16  C   UNL     1       0.840   9.675  20.858  0.00  0.00    +0.000 A 
ATOM     17  C   UNL     1       0.038  10.309  21.813  0.00  0.00    +0.000 A 
ATOM     18  C   UNL     1      -0.970  11.182  21.406  0.00  0.00    +0.000 A 
ATOM     19  C   UNL     1      -1.179  11.420  20.047  0.00  0.00    +0.000 A 
ATOM     20  C   UNL     1      -0.376  10.783  19.093  0.00  0.00    +0.000 A 
BRANCH  20  21
ATOM     21  O   UNL     1      -0.571  11.075  17.775  0.00  0.00    +0.000 OA
ATOM     22  H   UNL     1      -1.519  11.042  17.562  0.00  0.00    +0.000 HD
ENDBRANCH  20  21
ENDBRANCH  13  15
ENDBRANCH  12  13
ENDBRANCH   4  11
BRANCH   5  23
ATOM     23  O   UNL     1       5.033   6.617  17.304  0.00  0.00    +0.000 OA
ATOM     24  C   UNL     1       5.428   6.312  15.971  0.00  0.00    +0.000 C 
ENDBRANCH   5  23
TORSDOF 7
ENDMDL
MODEL 7
REMARK VINA RESULT:      -6.5      6.203      9.652
REMARK  Name = 
REMARK  10 active torsions:
REMARK  status: ('A' for Active; 'I' for Inactive)
REMARK    1  A    between atoms: C_1  and  O_2
REMARK    2  A    between atoms: O_2  and  C_3
REMARK    3  A    between atoms: C_5  and  O_6
REMARK    4  A    between atoms: O_6  and  C_7
REMARK    5  A    between atoms: C_8  and  C_9
REMARK    6  A    between atoms: C_10  and  C_11
REMARK    7  A    between atoms: C_11  and  C_13
REMARK    8  A    between atoms: C_18  and  O_19
REMARK    9  A    between atoms: C_20  and  O_21
REMARK   10  A    between atoms: O_21  and  C_22
REMARK                            x       y       z     vdW  Elec       q    Type
REMARK                         _______ _______ _______ _____ _____    ______ ____
ROOT
ATOM      1  C   UNL     1      -5.437  11.888  17.725  0.00  0.00    +0.000 A 
ATOM      2  C   UNL     1      -4.589  11.191  16.868  0.00  0.00    +0.000 A 
ATOM      3  C   UNL     1      -3.256  10.922  17.217  0.00  0.00    +0.000 A 
ATOM      4  C   UNL     1      -2.740  11.406  18.437  0.00  0.00    +0.000 A 
ATOM      5  C   UNL     1      -3.615  12.097  19.315  0.00  0.00    +0.000 A 
ATOM      6  C   UNL     1      -4.947  12.337  18.946  0.00  0.00    +0.000 A 
ENDROOT
BRANCH   1   8
ATOM      7  C   UNL     1      -7.530  12.953  18.048  0.00  0.00    +0.000 C 
ATOM      8  O   UNL     1      -6.703  12.109  17.254  0.00  0.00    +0.000 OA
ENDBRANCH   1   8
BRANCH   3   9
ATOM      9  O   UNL     1      -2.588  10.243  16.231  0.00  0.00    +0.000 OA
ATOM     10  C   UNL     1      -3.104  10.315  14.907  0.00  0.00    +0.000 C 
ENDBRANCH   3   9
BRANCH   4  11
ATOM     11  C   UNL     1      -1.324  11.271  18.821  0.00  0.00    +0.000 C 
ATOM     12  C   UNL     1      -0.879  10.316  19.653  0.00  0.00    +0.000 C 
BRANCH  12  13
ATOM     13  C   UNL     1       0.566  10.266  20.002  0.00  0.00    +0.000 C 
ATOM     14  O   UNL     1       1.087  11.127  20.714  0.00  0.00    +0.000 OA
BRANCH  13  15
ATOM     15  C   UNL     1       1.404   9.162  19.451  0.00  0.00    +0.000 A 
ATOM     16  C   UNL     1       1.564   8.007  20.231  0.00  0.00    +0.000 A 
ATOM     17  C   UNL     1       2.287   6.913  19.745  0.00  0.00    +0.000 A 
ATOM     18  C   UNL     1       2.848   6.962  18.469  0.00  0.00    +0.000 A 
ATOM     19  C   UNL     1       2.690   8.102  17.681  0.00  0.00    +0.000 A 
ATOM     20  C   UNL     1       1.967   9.197  18.170  0.00  0.00    +0.000 A 
BRANCH  20  21
ATOM     21  O   UNL     1       1.786  10.277  17.357  0.00  0.00    +0.000 OA
ATOM     22  H   UNL     1       2.634  10.727  17.206  0.00  0.00    +0.000 HD
ENDBRANCH  20  21
ENDBRANCH  13  15
ENDBRANCH  12  13
ENDBRANCH   4  11
BRANCH   5  23
ATOM     23  O   UNL     1      -3.083  12.513  20.516  0.00  0.00    +0.000 OA
ATOM     24  C   UNL     1      -3.992  12.826  21.566  0.00  0.00    +0.000 C 
ENDBRANCH   5  23
TORSDOF 7
ENDMDL
MODEL 8
REMARK VINA RESULT:      -6.5      2.714      7.363
REMARK  Name = 
REMARK  10 active torsions:
REMARK  status: ('A' for Active; 'I' for Inactive)
REMARK    1  A    between atoms: C_1  and  O_2
REMARK    2  A    between atoms: O_2  and  C_3
REMARK    3  A    between atoms: C_5  and  O_6
REMARK    4  A    between atoms: O_6  and  C_7
REMARK    5  A    between atoms: C_8  and  C_9
REMARK    6  A    between atoms: C_10  and  C_11
REMARK    7  A    between atoms: C_11  and  C_13
REMARK    8  A    between atoms: C_18  and  O_19
REMARK    9  A    between atoms: C_20  and  O_21
REMARK   10  A    between atoms: O_21  and  C_22
REMARK                            x       y       z     vdW  Elec       q    Type
REMARK                         _______ _______ _______ _____ _____    ______ ____
ROOT
ATOM      1  C   UNL     1       3.705   3.334  17.746  0.00  0.00    +0.000 A 
ATOM      2  C   UNL     1       4.357   4.221  16.892  0.00  0.00    +0.000 A 
ATOM      3  C   UNL     1       4.245   5.611  17.055  0.00  0.00    +0.000 A 
ATOM      4  C   UNL     1       3.417   6.132  18.070  0.00  0.00    +0.000 A 
ATOM      5  C   UNL     1       2.772   5.224  18.950  0.00  0.00    +0.000 A 
ATOM      6  C   UNL     1       2.916   3.840  18.772  0.00  0.00    +0.000 A 
ENDROOT
BRANCH   1   8
ATOM      7  C   UNL     1       3.785   1.112  18.564  0.00  0.00    +0.000 C 
ATOM      8  O   UNL     1       3.873   2.007  17.460  0.00  0.00    +0.000 OA
ENDBRANCH   1   8
BRANCH   3   9
ATOM      9  O   UNL     1       4.948   6.304  16.103  0.00  0.00    +0.000 OA
ATOM     10  C   UNL     1       5.641   5.556  15.112  0.00  0.00    +0.000 C 
ENDBRANCH   3   9
BRANCH   4  11
ATOM     11  C   UNL     1       3.152   7.572  18.231  0.00  0.00    +0.000 C 
ATOM     12  C   UNL     1       1.969   8.136  17.937  0.00  0.00    +0.000 C 
BRANCH  12  13
ATOM     13  C   UNL     1       1.795   9.603  18.111  0.00  0.00    +0.000 C 
ATOM     14  O   UNL     1       2.410  10.412  17.413  0.00  0.00    +0.000 OA
BRANCH  13  15
ATOM     15  C   UNL     1       0.877  10.100  19.177  0.00  0.00    +0.000 A 
ATOM     16  C   UNL     1       0.715   9.309  20.323  0.00  0.00    +0.000 A 
ATOM     17  C   UNL     1      -0.084   9.748  21.384  0.00  0.00    +0.000 A 
ATOM     18  C   UNL     1      -0.720  10.987  21.310  0.00  0.00    +0.000 A 
ATOM     19  C   UNL     1      -0.561  11.786  20.178  0.00  0.00    +0.000 A 
ATOM     20  C   UNL     1       0.239  11.344  19.116  0.00  0.00    +0.000 A 
BRANCH  20  21
ATOM     21  O   UNL     1       0.417  12.169  18.044  0.00  0.00    +0.000 OA
ATOM     22  H   UNL     1       0.802  13.014  18.334  0.00  0.00    +0.000 HD
ENDBRANCH  20  21
ENDBRANCH  13  15
ENDBRANCH  12  13
ENDBRANCH   4  11
BRANCH   5  23
ATOM     23  O   UNL     1       2.009   5.775  19.956  0.00  0.00    +0.000 OA
ATOM     24  C   UNL     1       1.741   4.968  21.098  0.00  0.00    +0.000 C 
ENDBRANCH   5  23
TORSDOF 7
ENDMDL
MODEL 9
REMARK VINA RESULT:      -6.5      3.484      8.046
REMARK  Name = 
REMARK  10 active torsions:
REMARK  status: ('A' for Active; 'I' for Inactive)
REMARK    1  A    between atoms: C_1  and  O_2
REMARK    2  A    between atoms: O_2  and  C_3
REMARK    3  A    between atoms: C_5  and  O_6
REMARK    4  A    between atoms: O_6  and  C_7
REMARK    5  A    between atoms: C_8  and  C_9
REMARK    6  A    between atoms: C_10  and  C_11
REMARK    7  A    between atoms: C_11  and  C_13
REMARK    8  A    between atoms: C_18  and  O_19
REMARK    9  A    between atoms: C_20  and  O_21
REMARK   10  A    between atoms: O_21  and  C_22
REMARK                            x       y       z     vdW  Elec       q    Type
REMARK                         _______ _______ _______ _____ _____    ______ ____
ROOT
ATOM      1  C   UNL     1       3.008   3.557  18.071  0.00  0.00    +0.000 A 
ATOM      2  C   UNL     1       2.368   3.509  19.307  0.00  0.00    +0.000 A 
ATOM      3  C   UNL     1       2.082   4.678  20.030  0.00  0.00    +0.000 A 
ATOM      4  C   UNL     1       2.490   5.930  19.526  0.00  0.00    +0.000 A 
ATOM      5  C   UNL     1       3.123   5.975  18.257  0.00  0.00    +0.000 A 
ATOM      6  C   UNL     1       3.382   4.790  17.550  0.00  0.00    +0.000 A 
ENDROOT
BRANCH   1   8
ATOM      7  C   UNL     1       3.645   1.293  18.360  0.00  0.00    +0.000 C 
ATOM      8  O   UNL     1       3.254   2.346  17.485  0.00  0.00    +0.000 OA
ENDBRANCH   1   8
BRANCH   3   9
ATOM      9  O   UNL     1       1.467   4.412  21.226  0.00  0.00    +0.000 OA
ATOM     10  C   UNL     1       1.584   3.097  21.757  0.00  0.00    +0.000 C 
ENDBRANCH   3   9
BRANCH   4  11
ATOM     11  C   UNL     1       2.336   7.188  20.278  0.00  0.00    +0.000 C 
ATOM     12  C   UNL     1       1.153   7.623  20.741  0.00  0.00    +0.000 C 
BRANCH  12  13
ATOM     13  C   UNL     1       1.086   8.917  21.473  0.00  0.00    +0.000 C 
ATOM     14  O   UNL     1       1.752   9.116  22.491  0.00  0.00    +0.000 OA
BRANCH  13  15
ATOM     15  C   UNL     1       0.167   9.981  20.974  0.00  0.00    +0.000 A 
ATOM     16  C   UNL     1      -0.111  10.016  19.600  0.00  0.00    +0.000 A 
ATOM     17  C   UNL     1      -1.012  10.951  19.080  0.00  0.00    +0.000 A 
ATOM     18  C   UNL     1      -1.649  11.853  19.931  0.00  0.00    +0.000 A 
ATOM     19  C   UNL     1      -1.385  11.823  21.301  0.00  0.00    +0.000 A 
ATOM     20  C   UNL     1      -0.482  10.887  21.820  0.00  0.00    +0.000 A 
BRANCH  20  21
ATOM     21  O   UNL     1      -0.284  10.848  23.169  0.00  0.00    +0.000 OA
ATOM     22  H   UNL     1      -0.149  11.748  23.513  0.00  0.00    +0.000 HD
ENDBRANCH  20  21
ENDBRANCH  13  15
ENDBRANCH  12  13
ENDBRANCH   4  11
BRANCH   5  23
ATOM     23  O   UNL     1       3.465   7.221  17.781  0.00  0.00    +0.000 OA
ATOM     24  C   UNL     1       4.587   7.309  16.908  0.00  0.00    +0.000 C 
ENDBRANCH   5  23
TORSDOF 7
ENDMDL
