MODEL 1
REMARK VINA RESULT:      -6.4      0.000      0.000
REMARK  Name = 
REMARK  7 active torsions:
REMARK  status: ('A' for Active; 'I' for Inactive)
REMARK    1  A    between atoms: C_1  and  N_2
REMARK    2  A    between atoms: N_2  and  C_3
REMARK    3  A    between atoms: N_2  and  C_4
REMARK    4  A    between atoms: C_4  and  N_6
REMARK    5  A    between atoms: N_11  and  S_12
REMARK    6  A    between atoms: S_12  and  C_15
REMARK    7  A    between atoms: N_21  and  C_22
REMARK                            x       y       z     vdW  Elec       q    Type
REMARK                         _______ _______ _______ _____ _____    ______ ____
ROOT
ATOM      1  N   UNL     1      -3.750  14.246  20.721  0.00  0.00    +0.000 NA
ATOM      2  C   UNL     1      -2.685  13.543  20.986  0.00  0.00    +0.000 A 
ATOM      3  S   UNL     1      -1.457  13.985  22.199  0.00  0.00    +0.000 S 
ATOM      4  S   UNL     1      -1.009  12.048  22.643  0.00  0.00    +0.000 S 
ATOM      5  C   UNL     1      -1.337  11.469  20.987  0.00  0.00    +0.000 A 
ATOM      6  N   UNL     1      -0.763  10.430  20.455  0.00  0.00    +0.000 NA
ATOM      7  N   UNL     1      -2.295  12.321  20.366  0.00  0.00    +0.000 N 
ENDROOT
BRANCH   7   8
ATOM      8  C   UNL     1      -2.764  11.994  19.043  0.00  0.00    +0.000 A 
ATOM      9  C   UNL     1      -4.124  11.729  18.782  0.00  0.00    +0.000 A 
ATOM     10  C   UNL     1      -4.554  11.252  17.539  0.00  0.00    +0.000 A 
ATOM     11  C   UNL     1      -3.640  11.077  16.508  0.00  0.00    +0.000 A 
ATOM     12  C   UNL     1      -2.302  11.394  16.716  0.00  0.00    +0.000 A 
ATOM     13  C   UNL     1      -1.870  11.840  17.970  0.00  0.00    +0.000 A 
ENDBRANCH   7   8
BRANCH   6  14
ATOM     14  S   UNL     1       0.299   9.525  21.263  0.00  0.00    +0.000 S 
ATOM     15  O   UNL     1       1.236  10.391  21.945  0.00  0.00    +0.000 OA
ATOM     16  O   UNL     1      -0.424   8.491  21.974  0.00  0.00    +0.000 OA
BRANCH  14  17
ATOM     17  C   UNL     1       1.271   8.659  20.042  0.00  0.00    +0.000 A 
ATOM     18  C   UNL     1       1.887   7.437  20.317  0.00  0.00    +0.000 A 
ATOM     19  C   UNL     1       2.652   6.821  19.323  0.00  0.00    +0.000 A 
ATOM     20  C   UNL     1       2.794   7.419  18.068  0.00  0.00    +0.000 A 
ATOM     21  C   UNL     1       2.167   8.635  17.795  0.00  0.00    +0.000 A 
ATOM     22  C   UNL     1       1.404   9.258  18.782  0.00  0.00    +0.000 A 
ENDBRANCH  14  17
ENDBRANCH   6  14
BRANCH   1  23
ATOM     23  C   UNL     1      -4.171  15.371  21.411  0.00  0.00    +0.000 C 
ATOM     24  S   UNL     1      -3.692  16.968  21.067  0.00  0.00    +0.000 S 
BRANCH  23  26
ATOM     25  C   UNL     1      -6.086  14.217  22.592  0.00  0.00    +0.000 C 
ATOM     26  N   UNL     1      -4.902  15.083  22.587  0.00  0.00    +0.000 N 
ATOM     27  C   UNL     1      -4.635  15.814  23.817  0.00  0.00    +0.000 C 
ENDBRANCH  23  26
ENDBRANCH   1  23
TORSDOF 5
ENDMDL
MODEL 2
REMARK VINA RESULT:      -6.4      0.863      1.293
REMARK  Name = 
REMARK  7 active torsions:
REMARK  status: ('A' for Active; 'I' for Inactive)
REMARK    1  A    between atoms: C_1  and  N_2
REMARK    2  A    between atoms: N_2  and  C_3
REMARK    3  A    between atoms: N_2  and  C_4
REMARK    4  A    between atoms: C_4  and  N_6
REMARK    5  A    between atoms: N_11  and  S_12
REMARK    6  A    between atoms: S_12  and  C_15
REMARK    7  A    between atoms: N_21  and  C_22
REMARK                            x       y       z     vdW  Elec       q    Type
REMARK                         _______ _______ _______ _____ _____    ______ ____
ROOT
ATOM      1  N   UNL     1      -4.670  13.679  20.269  0.00  0.00    +0.000 NA
ATOM      2  C   UNL     1      -3.489  13.229  20.591  0.00  0.00    +0.000 A 
ATOM      3  S   UNL     1      -2.461  13.916  21.874  0.00  0.00    +0.000 S 
ATOM      4  S   UNL     1      -1.611  12.123  22.334  0.00  0.00    +0.000 S 
ATOM      5  C   UNL     1      -1.709  11.514  20.660  0.00  0.00    +0.000 A 
ATOM      6  N   UNL     1      -0.887  10.641  20.157  0.00  0.00    +0.000 NA
ATOM      7  N   UNL     1      -2.799  12.138  19.989  0.00  0.00    +0.000 N 
ENDROOT
BRANCH   7   8
ATOM      8  C   UNL     1      -3.109  11.736  18.641  0.00  0.00    +0.000 A 
ATOM      9  C   UNL     1      -4.392  11.276  18.279  0.00  0.00    +0.000 A 
ATOM     10  C   UNL     1      -4.648  10.732  17.015  0.00  0.00    +0.000 A 
ATOM     11  C   UNL     1      -3.639  10.682  16.063  0.00  0.00    +0.000 A 
ATOM     12  C   UNL     1      -2.381  11.191  16.368  0.00  0.00    +0.000 A 
ATOM     13  C   UNL     1      -2.120  11.705  17.643  0.00  0.00    +0.000 A 
ENDBRANCH   7   8
BRANCH   6  14
ATOM     14  S   UNL     1       0.308   9.985  21.021  0.00  0.00    +0.000 S 
ATOM     15  O   UNL     1       1.210  11.031  21.450  0.00  0.00    +0.000 OA
ATOM     16  O   UNL     1      -0.268   9.053  21.968  0.00  0.00    +0.000 OA
BRANCH  14  17
ATOM     17  C   UNL     1       1.262   8.979  19.897  0.00  0.00    +0.000 A 
ATOM     18  C   UNL     1       1.551   9.392  18.597  0.00  0.00    +0.000 A 
ATOM     19  C   UNL     1       2.286   8.548  17.760  0.00  0.00    +0.000 A 
ATOM     20  C   UNL     1       2.730   7.306  18.223  0.00  0.00    +0.000 A 
ATOM     21  C   UNL     1       2.447   6.902  19.528  0.00  0.00    +0.000 A 
ATOM     22  C   UNL     1       1.713   7.738  20.369  0.00  0.00    +0.000 A 
ENDBRANCH  14  17
ENDBRANCH   6  14
BRANCH   1  23
ATOM     23  C   UNL     1      -5.372  14.668  20.939  0.00  0.00    +0.000 C 
ATOM     24  S   UNL     1      -5.198  16.340  20.676  0.00  0.00    +0.000 S 
BRANCH  23  26
ATOM     25  C   UNL     1      -7.277  13.290  21.868  0.00  0.00    +0.000 C 
ATOM     26  N   UNL     1      -6.132  14.192  22.032  0.00  0.00    +0.000 N 
ATOM     27  C   UNL     1      -5.941  14.753  23.361  0.00  0.00    +0.000 C 
ENDBRANCH  23  26
ENDBRANCH   1  23
TORSDOF 5
ENDMDL
MODEL 3
REMARK VINA RESULT:      -6.2      0.996      1.392
REMARK  Name = 
REMARK  7 active torsions:
REMARK  status: ('A' for Active; 'I' for Inactive)
REMARK    1  A    between atoms: C_1  and  N_2
REMARK    2  A    between atoms: N_2  and  C_3
REMARK    3  A    between atoms: N_2  and  C_4
REMARK    4  A    between atoms: C_4  and  N_6
REMARK    5  A    between atoms: N_11  and  S_12
REMARK    6  A    between atoms: S_12  and  C_15
REMARK    7  A    between atoms: N_21  and  C_22
REMARK                            x       y       z     vdW  Elec       q    Type
REMARK                         _______ _______ _______ _____ _____    ______ ____
ROOT
ATOM      1  N   UNL     1      -3.986  14.138  20.678  0.00  0.00    +0.000 NA
ATOM      2  C   UNL     1      -2.891  13.491  20.962  0.00  0.00    +0.000 A 
ATOM      3  S   UNL     1      -1.718  13.988  22.208  0.00  0.00    +0.000 S 
ATOM      4  S   UNL     1      -1.175  12.075  22.647  0.00  0.00    +0.000 S 
ATOM      5  C   UNL     1      -1.432  11.495  20.979  0.00  0.00    +0.000 A 
ATOM      6  N   UNL     1      -0.789  10.494  20.453  0.00  0.00    +0.000 NA
ATOM      7  N   UNL     1      -2.420  12.299  20.342  0.00  0.00    +0.000 N 
ENDROOT
BRANCH   7   8
ATOM      8  C   UNL     1      -2.838  11.959  19.006  0.00  0.00    +0.000 A 
ATOM      9  C   UNL     1      -4.173  11.609  18.712  0.00  0.00    +0.000 A 
ATOM     10  C   UNL     1      -4.544  11.121  17.454  0.00  0.00    +0.000 A 
ATOM     11  C   UNL     1      -3.600  11.020  16.442  0.00  0.00    +0.000 A 
ATOM     12  C   UNL     1      -2.290  11.421  16.682  0.00  0.00    +0.000 A 
ATOM     13  C   UNL     1      -1.915  11.878  17.950  0.00  0.00    +0.000 A 
ENDBRANCH   7   8
BRANCH   6  14
ATOM     14  S   UNL     1       0.302   9.640  21.279  0.00  0.00    +0.000 S 
ATOM     15  O   UNL     1       1.258  10.547  21.876  0.00  0.00    +0.000 OA
ATOM     16  O   UNL     1      -0.395   8.651  22.075  0.00  0.00    +0.000 OA
BRANCH  14  17
ATOM     17  C   UNL     1       1.236   8.702  20.082  0.00  0.00    +0.000 A 
ATOM     18  C   UNL     1       1.839   7.486  20.402  0.00  0.00    +0.000 A 
ATOM     19  C   UNL     1       2.574   6.811  19.423  0.00  0.00    +0.000 A 
ATOM     20  C   UNL     1       2.699   7.347  18.139  0.00  0.00    +0.000 A 
ATOM     21  C   UNL     1       2.084   8.558  17.821  0.00  0.00    +0.000 A 
ATOM     22  C   UNL     1       1.351   9.239  18.792  0.00  0.00    +0.000 A 
ENDBRANCH  14  17
ENDBRANCH   6  14
BRANCH   1  23
ATOM     23  C   UNL     1      -4.485  15.232  21.366  0.00  0.00    +0.000 C 
ATOM     24  S   UNL     1      -5.329  15.157  22.842  0.00  0.00    +0.000 S 
BRANCH  23  26
ATOM     25  C   UNL     1      -3.145  17.087  20.293  0.00  0.00    +0.000 C 
ATOM     26  N   UNL     1      -4.416  16.445  20.644  0.00  0.00    +0.000 N 
ATOM     27  C   UNL     1      -5.619  17.228  20.404  0.00  0.00    +0.000 C 
ENDBRANCH  23  26
ENDBRANCH   1  23
TORSDOF 5
ENDMDL
MODEL 4
REMARK VINA RESULT:      -6.1      5.996      9.267
REMARK  Name = 
REMARK  7 active torsions:
REMARK  status: ('A' for Active; 'I' for Inactive)
REMARK    1  A    between atoms: C_1  and  N_2
REMARK    2  A    between atoms: N_2  and  C_3
REMARK    3  A    between atoms: N_2  and  C_4
REMARK    4  A    between atoms: C_4  and  N_6
REMARK    5  A    between atoms: N_11  and  S_12
REMARK    6  A    between atoms: S_12  and  C_15
REMARK    7  A    between atoms: N_21  and  C_22
REMARK                            x       y       z     vdW  Elec       q    Type
REMARK                         _______ _______ _______ _____ _____    ______ ____
ROOT
ATOM      1  N   UNL     1       1.979   7.173  19.432  0.00  0.00    +0.000 NA
ATOM      2  C   UNL     1       2.945   7.028  18.568  0.00  0.00    +0.000 A 
ATOM      3  S   UNL     1       3.512   8.305  17.464  0.00  0.00    +0.000 S 
ATOM      4  S   UNL     1       5.433   7.628  17.457  0.00  0.00    +0.000 S 
ATOM      5  C   UNL     1       4.956   5.919  17.652  0.00  0.00    +0.000 A 
ATOM      6  N   UNL     1       5.660   4.917  17.216  0.00  0.00    +0.000 NA
ATOM      7  N   UNL     1       3.707   5.848  18.333  0.00  0.00    +0.000 N 
ENDROOT
BRANCH   7   8
ATOM      8  C   UNL     1       3.167   4.554  18.664  0.00  0.00    +0.000 A 
ATOM      9  C   UNL     1       2.185   3.933  17.864  0.00  0.00    +0.000 A 
ATOM     10  C   UNL     1       1.543   2.758  18.270  0.00  0.00    +0.000 A 
ATOM     11  C   UNL     1       1.904   2.146  19.463  0.00  0.00    +0.000 A 
ATOM     12  C   UNL     1       2.915   2.699  20.240  0.00  0.00    +0.000 A 
ATOM     13  C   UNL     1       3.533   3.891  19.847  0.00  0.00    +0.000 A 
ENDBRANCH   7   8
BRANCH   6  14
ATOM     14  S   UNL     1       7.076   5.117  16.470  0.00  0.00    +0.000 S 
ATOM     15  O   UNL     1       7.392   6.528  16.427  0.00  0.00    +0.000 OA
ATOM     16  O   UNL     1       8.016   4.151  17.000  0.00  0.00    +0.000 OA
BRANCH  14  17
ATOM     17  C   UNL     1       6.831   4.643  14.766  0.00  0.00    +0.000 A 
ATOM     18  C   UNL     1       7.678   5.080  13.747  0.00  0.00    +0.000 A 
ATOM     19  C   UNL     1       7.419   4.690  12.431  0.00  0.00    +0.000 A 
ATOM     20  C   UNL     1       6.327   3.867  12.140  0.00  0.00    +0.000 A 
ATOM     21  C   UNL     1       5.490   3.424  13.164  0.00  0.00    +0.000 A 
ATOM     22  C   UNL     1       5.740   3.811  14.480  0.00  0.00    +0.000 A 
ENDBRANCH  14  17
ENDBRANCH   6  14
BRANCH   1  23
ATOM     23  C   UNL     1       1.324   8.358  19.726  0.00  0.00    +0.000 C 
ATOM     24  S   UNL     1       1.195   9.692  18.677  0.00  0.00    +0.000 S 
BRANCH  23  26
ATOM     25  C   UNL     1      -0.453   8.196  21.517  0.00  0.00    +0.000 C 
ATOM     26  N   UNL     1       0.919   8.470  21.076  0.00  0.00    +0.000 N 
ATOM     27  C   UNL     1       1.801   9.078  22.062  0.00  0.00    +0.000 C 
ENDBRANCH  23  26
ENDBRANCH   1  23
TORSDOF 5
ENDMDL
MODEL 5
REMARK VINA RESULT:      -6.1      1.437      1.922
REMARK  Name = 
REMARK  7 active torsions:
REMARK  status: ('A' for Active; 'I' for Inactive)
REMARK    1  A    between atoms: C_1  and  N_2
REMARK    2  A    between atoms: N_2  and  C_3
REMARK    3  A    between atoms: N_2  and  C_4
REMARK    4  A    between atoms: C_4  and  N_6
REMARK    5  A    between atoms: N_11  and  S_12
REMARK    6  A    between atoms: S_12  and  C_15
REMARK    7  A    between atoms: N_21  and  C_22
REMARK                            x       y       z     vdW  Elec       q    Type
REMARK                         _______ _______ _______ _____ _____    ______ ____
ROOT
ATOM      1  N   UNL     1      -4.923  13.704  20.329  0.00  0.00    +0.000 NA
ATOM      2  C   UNL     1      -3.714  13.328  20.638  0.00  0.00    +0.000 A 
ATOM      3  S   UNL     1      -2.717  14.076  21.911  0.00  0.00    +0.000 S 
ATOM      4  S   UNL     1      -1.753  12.339  22.361  0.00  0.00    +0.000 S 
ATOM      5  C   UNL     1      -1.832  11.725  20.687  0.00  0.00    +0.000 A 
ATOM      6  N   UNL     1      -0.963  10.903  20.175  0.00  0.00    +0.000 NA
ATOM      7  N   UNL     1      -2.965  12.281  20.028  0.00  0.00    +0.000 N 
ENDROOT
BRANCH   7   8
ATOM      8  C   UNL     1      -3.264  11.861  18.683  0.00  0.00    +0.000 A 
ATOM      9  C   UNL     1      -4.570  11.499  18.290  0.00  0.00    +0.000 A 
ATOM     10  C   UNL     1      -4.831  10.936  17.036  0.00  0.00    +0.000 A 
ATOM     11  C   UNL     1      -3.799  10.768  16.122  0.00  0.00    +0.000 A 
ATOM     12  C   UNL     1      -2.513  11.178  16.456  0.00  0.00    +0.000 A 
ATOM     13  C   UNL     1      -2.249  11.711  17.723  0.00  0.00    +0.000 A 
ENDBRANCH   7   8
BRANCH   6  14
ATOM     14  S   UNL     1       0.278  10.322  21.025  0.00  0.00    +0.000 S 
ATOM     15  O   UNL     1       1.207  11.396  21.300  0.00  0.00    +0.000 OA
ATOM     16  O   UNL     1      -0.243   9.488  22.089  0.00  0.00    +0.000 OA
BRANCH  14  17
ATOM     17  C   UNL     1       1.162   9.206  19.948  0.00  0.00    +0.000 A 
ATOM     18  C   UNL     1       1.363   9.487  18.597  0.00  0.00    +0.000 A 
ATOM     19  C   UNL     1       2.045   8.561  17.802  0.00  0.00    +0.000 A 
ATOM     20  C   UNL     1       2.524   7.371  18.358  0.00  0.00    +0.000 A 
ATOM     21  C   UNL     1       2.330   7.101  19.712  0.00  0.00    +0.000 A 
ATOM     22  C   UNL     1       1.648   8.018  20.511  0.00  0.00    +0.000 A 
ENDBRANCH  14  17
ENDBRANCH   6  14
BRANCH   1  23
ATOM     23  C   UNL     1      -5.678  14.648  21.007  0.00  0.00    +0.000 C 
ATOM     24  S   UNL     1      -6.575  14.352  22.422  0.00  0.00    +0.000 S 
BRANCH  23  26
ATOM     25  C   UNL     1      -4.792  16.923  20.348  0.00  0.00    +0.000 C 
ATOM     26  N   UNL     1      -5.817  15.874  20.317  0.00  0.00    +0.000 N 
ATOM     27  C   UNL     1      -7.092  16.240  19.717  0.00  0.00    +0.000 C 
ENDBRANCH  23  26
ENDBRANCH   1  23
TORSDOF 5
ENDMDL
MODEL 6
REMARK VINA RESULT:      -6.1      5.252      8.025
REMARK  Name = 
REMARK  7 active torsions:
REMARK  status: ('A' for Active; 'I' for Inactive)
REMARK    1  A    between atoms: C_1  and  N_2
REMARK    2  A    between atoms: N_2  and  C_3
REMARK    3  A    between atoms: N_2  and  C_4
REMARK    4  A    between atoms: C_4  and  N_6
REMARK    5  A    between atoms: N_11  and  S_12
REMARK    6  A    between atoms: S_12  and  C_15
REMARK    7  A    between atoms: N_21  and  C_22
REMARK                            x       y       z     vdW  Elec       q    Type
REMARK                         _______ _______ _______ _____ _____    ______ ____
ROOT
ATOM      1  N   UNL     1       0.908   7.778  20.613  0.00  0.00    +0.000 NA
ATOM      2  C   UNL     1       1.638   7.507  19.567  0.00  0.00    +0.000 A 
ATOM      3  S   UNL     1       1.893   8.618  18.197  0.00  0.00    +0.000 S 
ATOM      4  S   UNL     1       3.770   7.926  17.814  0.00  0.00    +0.000 S 
ATOM      5  C   UNL     1       3.392   6.264  18.345  0.00  0.00    +0.000 A 
ATOM      6  N   UNL     1       3.991   5.204  17.888  0.00  0.00    +0.000 NA
ATOM      7  N   UNL     1       2.347   6.299  19.312  0.00  0.00    +0.000 N 
ENDROOT
BRANCH   7   8
ATOM      8  C   UNL     1       1.932   5.067  19.933  0.00  0.00    +0.000 A 
ATOM      9  C   UNL     1       2.394   4.686  21.211  0.00  0.00    +0.000 A 
ATOM     10  C   UNL     1       2.124   3.420  21.742  0.00  0.00    +0.000 A 
ATOM     11  C   UNL     1       1.342   2.521  21.031  0.00  0.00    +0.000 A 
ATOM     12  C   UNL     1       0.816   2.893  19.798  0.00  0.00    +0.000 A 
ATOM     13  C   UNL     1       1.114   4.147  19.255  0.00  0.00    +0.000 A 
ENDBRANCH   7   8
BRANCH   6  14
ATOM     14  S   UNL     1       5.179   5.286  16.800  0.00  0.00    +0.000 S 
ATOM     15  O   UNL     1       5.693   3.956  16.560  0.00  0.00    +0.000 OA
ATOM     16  O   UNL     1       4.744   6.132  15.707  0.00  0.00    +0.000 OA
BRANCH  14  17
ATOM     17  C   UNL     1       6.522   6.173  17.570  0.00  0.00    +0.000 A 
ATOM     18  C   UNL     1       7.205   5.667  18.676  0.00  0.00    +0.000 A 
ATOM     19  C   UNL     1       8.234   6.422  19.246  0.00  0.00    +0.000 A 
ATOM     20  C   UNL     1       8.578   7.666  18.710  0.00  0.00    +0.000 A 
ATOM     21  C   UNL     1       7.899   8.162  17.598  0.00  0.00    +0.000 A 
ATOM     22  C   UNL     1       6.869   7.417  17.025  0.00  0.00    +0.000 A 
ENDBRANCH  14  17
ENDBRANCH   6  14
BRANCH   1  23
ATOM     23  C   UNL     1       0.318   8.999  20.897  0.00  0.00    +0.000 C 
ATOM     24  S   UNL     1      -0.437  10.010  19.755  0.00  0.00    +0.000 S 
BRANCH  23  26
ATOM     25  C   UNL     1       1.850   9.285  22.887  0.00  0.00    +0.000 C 
ATOM     26  N   UNL     1       0.561   9.461  22.210  0.00  0.00    +0.000 N 
ATOM     27  C   UNL     1      -0.537   9.945  23.035  0.00  0.00    +0.000 C 
ENDBRANCH  23  26
ENDBRANCH   1  23
TORSDOF 5
ENDMDL
MODEL 7
REMARK VINA RESULT:      -6.0      5.763      9.180
REMARK  Name = 
REMARK  7 active torsions:
REMARK  status: ('A' for Active; 'I' for Inactive)
REMARK    1  A    between atoms: C_1  and  N_2
REMARK    2  A    between atoms: N_2  and  C_3
REMARK    3  A    between atoms: N_2  and  C_4
REMARK    4  A    between atoms: C_4  and  N_6
REMARK    5  A    between atoms: N_11  and  S_12
REMARK    6  A    between atoms: S_12  and  C_15
REMARK    7  A    between atoms: N_21  and  C_22
REMARK                            x       y       z     vdW  Elec       q    Type
REMARK                         _______ _______ _______ _____ _____    ______ ____
ROOT
ATOM      1  N   UNL     1       1.951   7.434  19.185  0.00  0.00    +0.000 NA
ATOM      2  C   UNL     1       2.941   7.219  18.363  0.00  0.00    +0.000 A 
ATOM      3  S   UNL     1       3.558   8.411  17.192  0.00  0.00    +0.000 S 
ATOM      4  S   UNL     1       5.470   7.716  17.292  0.00  0.00    +0.000 S 
ATOM      5  C   UNL     1       4.965   6.030  17.589  0.00  0.00    +0.000 A 
ATOM      6  N   UNL     1       5.670   4.992  17.245  0.00  0.00    +0.000 NA
ATOM      7  N   UNL     1       3.696   6.019  18.234  0.00  0.00    +0.000 N 
ENDROOT
BRANCH   7   8
ATOM      8  C   UNL     1       3.130   4.756  18.636  0.00  0.00    +0.000 A 
ATOM      9  C   UNL     1       2.182   4.080  17.840  0.00  0.00    +0.000 A 
ATOM     10  C   UNL     1       1.511   2.942  18.303  0.00  0.00    +0.000 A 
ATOM     11  C   UNL     1       1.810   2.422  19.555  0.00  0.00    +0.000 A 
ATOM     12  C   UNL     1       2.789   3.028  20.335  0.00  0.00    +0.000 A 
ATOM     13  C   UNL     1       3.435   4.184  19.883  0.00  0.00    +0.000 A 
ENDBRANCH   7   8
BRANCH   6  14
ATOM     14  S   UNL     1       7.110   5.125  16.531  0.00  0.00    +0.000 S 
ATOM     15  O   UNL     1       7.498   6.519  16.508  0.00  0.00    +0.000 OA
ATOM     16  O   UNL     1       7.988   4.108  17.073  0.00  0.00    +0.000 OA
BRANCH  14  17
ATOM     17  C   UNL     1       6.879   4.679  14.819  0.00  0.00    +0.000 A 
ATOM     18  C   UNL     1       5.898   3.772  14.416  0.00  0.00    +0.000 A 
ATOM     19  C   UNL     1       5.783   3.449  13.061  0.00  0.00    +0.000 A 
ATOM     20  C   UNL     1       6.637   4.031  12.121  0.00  0.00    +0.000 A 
ATOM     21  C   UNL     1       7.609   4.946  12.528  0.00  0.00    +0.000 A 
ATOM     22  C   UNL     1       7.732   5.272  13.878  0.00  0.00    +0.000 A 
ENDBRANCH  14  17
ENDBRANCH   6  14
BRANCH   1  23
ATOM     23  C   UNL     1       1.303   8.643  19.376  0.00  0.00    +0.000 C 
ATOM     24  S   UNL     1       0.809   9.696  18.134  0.00  0.00    +0.000 S 
BRANCH  23  26
ATOM     25  C   UNL     1       1.365   8.119  21.849  0.00  0.00    +0.000 C 
ATOM     26  N   UNL     1       1.246   9.057  20.727  0.00  0.00    +0.000 N 
ATOM     27  C   UNL     1       0.846  10.414  21.065  0.00  0.00    +0.000 C 
ENDBRANCH  23  26
ENDBRANCH   1  23
TORSDOF 5
ENDMDL
MODEL 8
REMARK VINA RESULT:      -6.0      4.910     10.094
REMARK  Name = 
REMARK  7 active torsions:
REMARK  status: ('A' for Active; 'I' for Inactive)
REMARK    1  A    between atoms: C_1  and  N_2
REMARK    2  A    between atoms: N_2  and  C_3
REMARK    3  A    between atoms: N_2  and  C_4
REMARK    4  A    between atoms: C_4  and  N_6
REMARK    5  A    between atoms: N_11  and  S_12
REMARK    6  A    between atoms: S_12  and  C_15
REMARK    7  A    between atoms: N_21  and  C_22
REMARK                            x       y       z     vdW  Elec       q    Type
REMARK                         _______ _______ _______ _____ _____    ______ ____
ROOT
ATOM      1  N   UNL     1       4.908   4.686  17.603  0.00  0.00    +0.000 NA
ATOM      2  C   UNL     1       4.428   5.858  17.912  0.00  0.00    +0.000 A 
ATOM      3  S   UNL     1       5.310   7.394  17.721  0.00  0.00    +0.000 S 
ATOM      4  S   UNL     1       3.620   8.470  17.352  0.00  0.00    +0.000 S 
ATOM      5  C   UNL     1       2.600   7.449  18.403  0.00  0.00    +0.000 A 
ATOM      6  N   UNL     1       1.536   7.877  19.015  0.00  0.00    +0.000 NA
ATOM      7  N   UNL     1       3.144   6.135  18.462  0.00  0.00    +0.000 N 
ENDROOT
BRANCH   7   8
ATOM      8  C   UNL     1       2.434   5.121  19.200  0.00  0.00    +0.000 A 
ATOM      9  C   UNL     1       2.617   4.948  20.589  0.00  0.00    +0.000 A 
ATOM     10  C   UNL     1       2.057   3.863  21.273  0.00  0.00    +0.000 A 
ATOM     11  C   UNL     1       1.258   2.952  20.596  0.00  0.00    +0.000 A 
ATOM     12  C   UNL     1       1.005   3.134  19.241  0.00  0.00    +0.000 A 
ATOM     13  C   UNL     1       1.592   4.201  18.552  0.00  0.00    +0.000 A 
ENDBRANCH   7   8
BRANCH   6  14
ATOM     14  S   UNL     1       1.001   9.392  18.860  0.00  0.00    +0.000 S 
ATOM     15  O   UNL     1       2.133  10.277  18.693  0.00  0.00    +0.000 OA
ATOM     16  O   UNL     1      -0.102   9.396  17.922  0.00  0.00    +0.000 OA
BRANCH  14  17
ATOM     17  C   UNL     1       0.282   9.847  20.429  0.00  0.00    +0.000 A 
ATOM     18  C   UNL     1       0.139   8.931  21.471  0.00  0.00    +0.000 A 
ATOM     19  C   UNL     1      -0.452   9.346  22.668  0.00  0.00    +0.000 A 
ATOM     20  C   UNL     1      -0.889  10.665  22.819  0.00  0.00    +0.000 A 
ATOM     21  C   UNL     1      -0.734  11.579  21.777  0.00  0.00    +0.000 A 
ATOM     22  C   UNL     1      -0.148  11.173  20.579  0.00  0.00    +0.000 A 
ENDBRANCH  14  17
ENDBRANCH   6  14
BRANCH   1  23
ATOM     23  C   UNL     1       6.114   4.446  16.965  0.00  0.00    +0.000 C 
ATOM     24  S   UNL     1       7.644   4.498  17.711  0.00  0.00    +0.000 S 
BRANCH  23  26
ATOM     25  C   UNL     1       7.015   4.892  14.645  0.00  0.00    +0.000 C 
ATOM     26  N   UNL     1       6.009   4.340  15.560  0.00  0.00    +0.000 N 
ATOM     27  C   UNL     1       4.778   3.864  14.947  0.00  0.00    +0.000 C 
ENDBRANCH  23  26
ENDBRANCH   1  23
TORSDOF 5
ENDMDL
MODEL 9
REMARK VINA RESULT:      -6.0      4.937     10.121
REMARK  Name = 
REMARK  7 active torsions:
REMARK  status: ('A' for Active; 'I' for Inactive)
REMARK    1  A    between atoms: C_1  and  N_2
REMARK    2  A    between atoms: N_2  and  C_3
REMARK    3  A    between atoms: N_2  and  C_4
REMARK    4  A    between atoms: C_4  and  N_6
REMARK    5  A    between atoms: N_11  and  S_12
REMARK    6  A    between atoms: S_12  and  C_15
REMARK    7  A    between atoms: N_21  and  C_22
REMARK                            x       y       z     vdW  Elec       q    Type
REMARK                         _______ _______ _______ _____ _____    ______ ____
ROOT
ATOM      1  N   UNL     1       4.975   4.699  17.484  0.00  0.00    +0.000 NA
ATOM      2  C   UNL     1       4.481   5.863  17.805  0.00  0.00    +0.000 A 
ATOM      3  S   UNL     1       5.332   7.414  17.595  0.00  0.00    +0.000 S 
ATOM      4  S   UNL     1       3.617   8.461  17.265  0.00  0.00    +0.000 S 
ATOM      5  C   UNL     1       2.638   7.422  18.338  0.00  0.00    +0.000 A 
ATOM      6  N   UNL     1       1.580   7.832  18.974  0.00  0.00    +0.000 NA
ATOM      7  N   UNL     1       3.205   6.117  18.384  0.00  0.00    +0.000 N 
ENDROOT
BRANCH   7   8
ATOM      8  C   UNL     1       2.530   5.091  19.136  0.00  0.00    +0.000 A 
ATOM      9  C   UNL     1       1.610   4.209  18.531  0.00  0.00    +0.000 A 
ATOM     10  C   UNL     1       0.833   3.324  19.287  0.00  0.00    +0.000 A 
ATOM     11  C   UNL     1       0.995   3.263  20.665  0.00  0.00    +0.000 A 
ATOM     12  C   UNL     1       1.942   4.072  21.282  0.00  0.00    +0.000 A 
ATOM     13  C   UNL     1       2.694   4.978  20.527  0.00  0.00    +0.000 A 
ENDBRANCH   7   8
BRANCH   6  14
ATOM     14  S   UNL     1       1.017   9.337  18.832  0.00  0.00    +0.000 S 
ATOM     15  O   UNL     1       2.132  10.245  18.676  0.00  0.00    +0.000 OA
ATOM     16  O   UNL     1      -0.085   9.328  17.892  0.00  0.00    +0.000 OA
BRANCH  14  17
ATOM     17  C   UNL     1       0.286   9.763  20.404  0.00  0.00    +0.000 A 
ATOM     18  C   UNL     1      -0.326  10.996  20.625  0.00  0.00    +0.000 A 
ATOM     19  C   UNL     1      -0.861  11.276  21.886  0.00  0.00    +0.000 A 
ATOM     20  C   UNL     1      -0.786  10.329  22.910  0.00  0.00    +0.000 A 
ATOM     21  C   UNL     1      -0.183   9.093  22.680  0.00  0.00    +0.000 A 
ATOM     22  C   UNL     1       0.356   8.806  21.426  0.00  0.00    +0.000 A 
ENDBRANCH  14  17
ENDBRANCH   6  14
BRANCH   1  23
ATOM     23  C   UNL     1       6.170   4.480  16.819  0.00  0.00    +0.000 C 
ATOM     24  S   UNL     1       7.705   4.441  17.552  0.00  0.00    +0.000 S 
BRANCH  23  26
ATOM     25  C   UNL     1       4.962   3.798  14.705  0.00  0.00    +0.000 C 
ATOM     26  N   UNL     1       6.052   4.482  15.410  0.00  0.00    +0.000 N 
ATOM     27  C   UNL     1       7.137   4.985  14.581  0.00  0.00    +0.000 C 
ENDBRANCH  23  26
ENDBRANCH   1  23
TORSDOF 5
ENDMDL
