MODEL 1
REMARK VINA RESULT:      -8.0      0.000      0.000
REMARK  Name = 
REMARK  10 active torsions:
REMARK  status: ('A' for Active; 'I' for Inactive)
REMARK    1  A    between atoms: C_1  and  O_2
REMARK    2  A    between atoms: O_2  and  C_3
REMARK    3  A    between atoms: C_6  and  O_7
REMARK    4  A    between atoms: O_7  and  C_8
REMARK    5  A    between atoms: C_9  and  C_10
REMARK    6  A    between atoms: C_10  and  C_11
REMARK    7  A    between atoms: C_14  and  C_15
REMARK    8  A    between atoms: C_15  and  C_16
REMARK    9  A    between atoms: C_16  and  C_17
REMARK   10  A    between atoms: C_24  and  C_25
REMARK                            x       y       z     vdW  Elec       q    Type
REMARK                         _______ _______ _______ _____ _____    ______ ____
ROOT
ATOM      1  C   UNL     1       7.834   7.074  18.205  0.00  0.00    +0.000 A 
ATOM      2  N   UNL     1       7.273   7.727  17.208  0.00  0.00    +0.000 NA
ATOM      3  N   UNL     1       7.723   9.027  17.293  0.00  0.00    +0.000 NA
ATOM      4  C   UNL     1       8.528   9.075  18.333  0.00  0.00    +0.000 A 
ATOM      5  O   UNL     1       8.656   7.864  18.964  0.00  0.00    +0.000 OA
ENDROOT
BRANCH   1   6
ATOM      6  C   UNL     1       7.722   5.640  18.564  0.00  0.00    +0.000 C 
BRANCH   6  11
ATOM      7  C   UNL     1       4.321   3.960  18.454  0.00  0.00    +0.000 A 
ATOM      8  C   UNL     1       4.221   3.558  17.127  0.00  0.00    +0.000 A 
ATOM      9  C   UNL     1       5.250   3.839  16.227  0.00  0.00    +0.000 A 
ATOM     10  C   UNL     1       6.398   4.538  16.627  0.00  0.00    +0.000 A 
ATOM     11  C   UNL     1       6.510   4.969  17.959  0.00  0.00    +0.000 A 
ATOM     12  C   UNL     1       5.453   4.665  18.857  0.00  0.00    +0.000 A 
BRANCH   7  14
ATOM     13  C   UNL     1       3.543   2.613  20.253  0.00  0.00    +0.000 C 
ATOM     14  O   UNL     1       3.276   3.587  19.252  0.00  0.00    +0.000 OA
ENDBRANCH   7  14
BRANCH  10  15
ATOM     15  O   UNL     1       7.347   4.600  15.645  0.00  0.00    +0.000 OA
ATOM     16  C   UNL     1       6.918   4.789  14.307  0.00  0.00    +0.000 C 
ENDBRANCH  10  15
ENDBRANCH   6  11
ENDBRANCH   1   6
BRANCH   4  17
ATOM     17  C   UNL     1       9.309  10.206  18.867  0.00  0.00    +0.000 C 
BRANCH  17  18
ATOM     18  C   UNL     1       8.795  11.549  18.349  0.00  0.00    +0.000 C 
BRANCH  18  19
ATOM     19  C   UNL     1       9.953  12.505  18.118  0.00  0.00    +0.000 C 
ATOM     20  O   UNL     1      10.808  12.239  17.271  0.00  0.00    +0.000 OA
ATOM     21  N   UNL     1      10.014  13.661  18.879  0.00  0.00    +0.000 N 
ATOM     22  C   UNL     1      11.069  14.636  18.587  0.00  0.00    +0.000 C 
ATOM     23  C   UNL     1      11.908  14.951  19.821  0.00  0.00    +0.000 C 
ATOM     24  C   UNL     1      11.059  15.316  21.035  0.00  0.00    +0.000 C 
ATOM     25  C   UNL     1       9.945  14.292  21.267  0.00  0.00    +0.000 C 
ATOM     26  C   UNL     1       9.114  14.002  20.004  0.00  0.00    +0.000 C 
BRANCH  26  27
ATOM     27  C   UNL     1       8.208  15.171  19.645  0.00  0.00    +0.000 A 
ATOM     28  N   UNL     1       7.964  15.592  18.418  0.00  0.00    +0.000 NA
ATOM     29  C   UNL     1       7.128  16.688  18.439  0.00  0.00    +0.000 A 
ATOM     30  C   UNL     1       6.752  17.115  19.691  0.00  0.00    +0.000 A 
ATOM     31  S   UNL     1       7.452  16.101  20.885  0.00  0.00    +0.000 S 
ENDBRANCH  26  27
ENDBRANCH  18  19
ENDBRANCH  17  18
ENDBRANCH   4  17
TORSDOF 8
ENDMDL
MODEL 2
REMARK VINA RESULT:      -7.9      2.037      2.471
REMARK  Name = 
REMARK  10 active torsions:
REMARK  status: ('A' for Active; 'I' for Inactive)
REMARK    1  A    between atoms: C_1  and  O_2
REMARK    2  A    between atoms: O_2  and  C_3
REMARK    3  A    between atoms: C_6  and  O_7
REMARK    4  A    between atoms: O_7  and  C_8
REMARK    5  A    between atoms: C_9  and  C_10
REMARK    6  A    between atoms: C_10  and  C_11
REMARK    7  A    between atoms: C_14  and  C_15
REMARK    8  A    between atoms: C_15  and  C_16
REMARK    9  A    between atoms: C_16  and  C_17
REMARK   10  A    between atoms: C_24  and  C_25
REMARK                            x       y       z     vdW  Elec       q    Type
REMARK                         _______ _______ _______ _____ _____    ______ ____
ROOT
ATOM      1  C   UNL     1       6.950   6.956  17.322  0.00  0.00    +0.000 A 
ATOM      2  N   UNL     1       7.724   6.556  18.310  0.00  0.00    +0.000 NA
ATOM      3  N   UNL     1       8.437   7.662  18.718  0.00  0.00    +0.000 NA
ATOM      4  C   UNL     1       8.046   8.660  17.953  0.00  0.00    +0.000 A 
ATOM      5  O   UNL     1       7.091   8.289  17.041  0.00  0.00    +0.000 OA
ENDROOT
BRANCH   1   6
ATOM      6  C   UNL     1       5.955   6.182  16.541  0.00  0.00    +0.000 C 
BRANCH   6  11
ATOM      7  C   UNL     1       3.515   3.768  18.162  0.00  0.00    +0.000 A 
ATOM      8  C   UNL     1       2.556   4.619  18.701  0.00  0.00    +0.000 A 
ATOM      9  C   UNL     1       2.688   6.001  18.568  0.00  0.00    +0.000 A 
ATOM     10  C   UNL     1       3.785   6.570  17.904  0.00  0.00    +0.000 A 
ATOM     11  C   UNL     1       4.773   5.729  17.368  0.00  0.00    +0.000 A 
ATOM     12  C   UNL     1       4.614   4.325  17.511  0.00  0.00    +0.000 A 
BRANCH   7  14
ATOM     13  C   UNL     1       1.925   2.070  18.653  0.00  0.00    +0.000 C 
ATOM     14  O   UNL     1       3.256   2.435  18.312  0.00  0.00    +0.000 OA
ENDBRANCH   7  14
BRANCH  10  15
ATOM     15  O   UNL     1       3.670   7.924  17.760  0.00  0.00    +0.000 OA
ATOM     16  C   UNL     1       2.370   8.486  17.693  0.00  0.00    +0.000 C 
ENDBRANCH  10  15
ENDBRANCH   6  11
ENDBRANCH   1   6
BRANCH   4  17
ATOM     17  C   UNL     1       8.456  10.076  17.971  0.00  0.00    +0.000 C 
BRANCH  17  18
ATOM     18  C   UNL     1       9.427  10.375  19.113  0.00  0.00    +0.000 C 
BRANCH  18  19
ATOM     19  C   UNL     1      10.396  11.473  18.709  0.00  0.00    +0.000 C 
ATOM     20  O   UNL     1      11.353  11.208  17.978  0.00  0.00    +0.000 OA
ATOM     21  N   UNL     1      10.172  12.755  19.183  0.00  0.00    +0.000 N 
ATOM     22  C   UNL     1      11.041  13.837  18.711  0.00  0.00    +0.000 C 
ATOM     23  C   UNL     1      11.700  14.582  19.867  0.00  0.00    +0.000 C 
ATOM     24  C   UNL     1      10.700  15.022  20.933  0.00  0.00    +0.000 C 
ATOM     25  C   UNL     1       9.787  13.868  21.355  0.00  0.00    +0.000 C 
ATOM     26  C   UNL     1       9.133  13.144  20.164  0.00  0.00    +0.000 C 
BRANCH  26  27
ATOM     27  C   UNL     1       8.053  13.993  19.511  0.00  0.00    +0.000 A 
ATOM     28  N   UNL     1       7.294  14.869  20.141  0.00  0.00    +0.000 NA
ATOM     29  C   UNL     1       6.396  15.448  19.269  0.00  0.00    +0.000 A 
ATOM     30  C   UNL     1       6.460  14.994  17.973  0.00  0.00    +0.000 A 
ATOM     31  S   UNL     1       7.698  13.814  17.832  0.00  0.00    +0.000 S 
ENDBRANCH  26  27
ENDBRANCH  18  19
ENDBRANCH  17  18
ENDBRANCH   4  17
TORSDOF 8
ENDMDL
MODEL 3
REMARK VINA RESULT:      -7.9      6.706      8.452
REMARK  Name = 
REMARK  10 active torsions:
REMARK  status: ('A' for Active; 'I' for Inactive)
REMARK    1  A    between atoms: C_1  and  O_2
REMARK    2  A    between atoms: O_2  and  C_3
REMARK    3  A    between atoms: C_6  and  O_7
REMARK    4  A    between atoms: O_7  and  C_8
REMARK    5  A    between atoms: C_9  and  C_10
REMARK    6  A    between atoms: C_10  and  C_11
REMARK    7  A    between atoms: C_14  and  C_15
REMARK    8  A    between atoms: C_15  and  C_16
REMARK    9  A    between atoms: C_16  and  C_17
REMARK   10  A    between atoms: C_24  and  C_25
REMARK                            x       y       z     vdW  Elec       q    Type
REMARK                         _______ _______ _______ _____ _____    ______ ____
ROOT
ATOM      1  C   UNL     1       3.117   5.525  18.420  0.00  0.00    +0.000 A 
ATOM      2  N   UNL     1       2.888   5.779  19.691  0.00  0.00    +0.000 NA
ATOM      3  N   UNL     1       2.403   7.067  19.750  0.00  0.00    +0.000 NA
ATOM      4  C   UNL     1       2.368   7.509  18.510  0.00  0.00    +0.000 A 
ATOM      5  O   UNL     1       2.802   6.578  17.602  0.00  0.00    +0.000 OA
ENDROOT
BRANCH   1   6
ATOM      6  C   UNL     1       3.612   4.279  17.789  0.00  0.00    +0.000 C 
BRANCH   6  11
ATOM      7  C   UNL     1       6.201   4.263  15.013  0.00  0.00    +0.000 A 
ATOM      8  C   UNL     1       7.387   4.505  15.699  0.00  0.00    +0.000 A 
ATOM      9  C   UNL     1       7.372   4.699  17.081  0.00  0.00    +0.000 A 
ATOM     10  C   UNL     1       6.175   4.667  17.810  0.00  0.00    +0.000 A 
ATOM     11  C   UNL     1       4.965   4.442  17.134  0.00  0.00    +0.000 A 
ATOM     12  C   UNL     1       5.006   4.242  15.729  0.00  0.00    +0.000 A 
BRANCH   7  14
ATOM     13  C   UNL     1       5.180   3.650  12.955  0.00  0.00    +0.000 C 
ATOM     14  O   UNL     1       6.344   4.041  13.673  0.00  0.00    +0.000 OA
ENDBRANCH   7  14
BRANCH  10  15
ATOM     15  O   UNL     1       6.377   4.743  19.160  0.00  0.00    +0.000 OA
ATOM     16  C   UNL     1       7.403   5.598  19.639  0.00  0.00    +0.000 C 
ENDBRANCH  10  15
ENDBRANCH   6  11
ENDBRANCH   1   6
BRANCH   4  17
ATOM     17  C   UNL     1       1.908   8.808  17.986  0.00  0.00    +0.000 C 
BRANCH  17  18
ATOM     18  C   UNL     1       1.093   9.584  19.021  0.00  0.00    +0.000 C 
BRANCH  18  19
ATOM     19  C   UNL     1       1.116  11.070  18.705  0.00  0.00    +0.000 C 
ATOM     20  O   UNL     1       2.160  11.599  18.319  0.00  0.00    +0.000 OA
ATOM     21  N   UNL     1      -0.054  11.794  18.865  0.00  0.00    +0.000 N 
ATOM     22  C   UNL     1      -0.065  13.204  18.460  0.00  0.00    +0.000 C 
ATOM     23  C   UNL     1      -0.501  14.118  19.600  0.00  0.00    +0.000 C 
ATOM     24  C   UNL     1      -1.799  13.662  20.260  0.00  0.00    +0.000 C 
ATOM     25  C   UNL     1      -1.753  12.175  20.618  0.00  0.00    +0.000 C 
ATOM     26  C   UNL     1      -1.316  11.280  19.444  0.00  0.00    +0.000 C 
BRANCH  26  27
ATOM     27  C   UNL     1      -2.401  11.172  18.383  0.00  0.00    +0.000 A 
ATOM     28  N   UNL     1      -3.611  11.690  18.482  0.00  0.00    +0.000 NA
ATOM     29  C   UNL     1      -4.360  11.387  17.364  0.00  0.00    +0.000 A 
ATOM     30  C   UNL     1      -3.722  10.616  16.421  0.00  0.00    +0.000 A 
ATOM     31  S   UNL     1      -2.122  10.273  16.937  0.00  0.00    +0.000 S 
ENDBRANCH  26  27
ENDBRANCH  18  19
ENDBRANCH  17  18
ENDBRANCH   4  17
TORSDOF 8
ENDMDL
MODEL 4
REMARK VINA RESULT:      -7.9      2.216      2.935
REMARK  Name = 
REMARK  10 active torsions:
REMARK  status: ('A' for Active; 'I' for Inactive)
REMARK    1  A    between atoms: C_1  and  O_2
REMARK    2  A    between atoms: O_2  and  C_3
REMARK    3  A    between atoms: C_6  and  O_7
REMARK    4  A    between atoms: O_7  and  C_8
REMARK    5  A    between atoms: C_9  and  C_10
REMARK    6  A    between atoms: C_10  and  C_11
REMARK    7  A    between atoms: C_14  and  C_15
REMARK    8  A    between atoms: C_15  and  C_16
REMARK    9  A    between atoms: C_16  and  C_17
REMARK   10  A    between atoms: C_24  and  C_25
REMARK                            x       y       z     vdW  Elec       q    Type
REMARK                         _______ _______ _______ _____ _____    ______ ____
ROOT
ATOM      1  C   UNL     1       6.904   6.772  17.704  0.00  0.00    +0.000 A 
ATOM      2  N   UNL     1       7.798   6.485  18.626  0.00  0.00    +0.000 NA
ATOM      3  N   UNL     1       8.562   7.619  18.795  0.00  0.00    +0.000 NA
ATOM      4  C   UNL     1       8.079   8.520  17.966  0.00  0.00    +0.000 A 
ATOM      5  O   UNL     1       7.013   8.057  17.239  0.00  0.00    +0.000 OA
ENDROOT
BRANCH   1   6
ATOM      6  C   UNL     1       5.814   5.927  17.161  0.00  0.00    +0.000 C 
BRANCH   6  11
ATOM      7  C   UNL     1       2.576   7.173  18.703  0.00  0.00    +0.000 A 
ATOM      8  C   UNL     1       2.314   6.216  19.678  0.00  0.00    +0.000 A 
ATOM      9  C   UNL     1       3.174   5.130  19.846  0.00  0.00    +0.000 A 
ATOM     10  C   UNL     1       4.309   4.966  19.040  0.00  0.00    +0.000 A 
ATOM     11  C   UNL     1       4.583   5.911  18.038  0.00  0.00    +0.000 A 
ATOM     12  C   UNL     1       3.696   7.010  17.890  0.00  0.00    +0.000 A 
BRANCH   7  14
ATOM     13  C   UNL     1       2.046   9.330  17.854  0.00  0.00    +0.000 C 
ATOM     14  O   UNL     1       1.693   8.214  18.663  0.00  0.00    +0.000 OA
ENDBRANCH   7  14
BRANCH  10  15
ATOM     15  O   UNL     1       5.095   3.922  19.442  0.00  0.00    +0.000 OA
ATOM     16  C   UNL     1       4.486   2.655  19.631  0.00  0.00    +0.000 C 
ENDBRANCH  10  15
ENDBRANCH   6  11
ENDBRANCH   1   6
BRANCH   4  17
ATOM     17  C   UNL     1       8.493   9.919  17.751  0.00  0.00    +0.000 C 
BRANCH  17  18
ATOM     18  C   UNL     1       9.205  10.497  18.974  0.00  0.00    +0.000 C 
BRANCH  18  19
ATOM     19  C   UNL     1      10.223  11.542  18.547  0.00  0.00    +0.000 C 
ATOM     20  O   UNL     1      11.131  11.233  17.773  0.00  0.00    +0.000 OA
ATOM     21  N   UNL     1      10.096  12.827  19.049  0.00  0.00    +0.000 N 
ATOM     22  C   UNL     1      11.011  13.863  18.559  0.00  0.00    +0.000 C 
ATOM     23  C   UNL     1      11.760  14.545  19.698  0.00  0.00    +0.000 C 
ATOM     24  C   UNL     1      10.833  15.026  20.811  0.00  0.00    +0.000 C 
ATOM     25  C   UNL     1       9.868  13.922  21.253  0.00  0.00    +0.000 C 
ATOM     26  C   UNL     1       9.124  13.260  20.079  0.00  0.00    +0.000 C 
BRANCH  26  27
ATOM     27  C   UNL     1       8.073  14.185  19.484  0.00  0.00    +0.000 A 
ATOM     28  N   UNL     1       7.519  15.205  20.112  0.00  0.00    +0.000 NA
ATOM     29  C   UNL     1       6.584  15.819  19.306  0.00  0.00    +0.000 A 
ATOM     30  C   UNL     1       6.412  15.250  18.067  0.00  0.00    +0.000 A 
ATOM     31  S   UNL     1       7.468  13.909  17.892  0.00  0.00    +0.000 S 
ENDBRANCH  26  27
ENDBRANCH  18  19
ENDBRANCH  17  18
ENDBRANCH   4  17
TORSDOF 8
ENDMDL
MODEL 5
REMARK VINA RESULT:      -7.9      1.857      2.652
REMARK  Name = 
REMARK  10 active torsions:
REMARK  status: ('A' for Active; 'I' for Inactive)
REMARK    1  A    between atoms: C_1  and  O_2
REMARK    2  A    between atoms: O_2  and  C_3
REMARK    3  A    between atoms: C_6  and  O_7
REMARK    4  A    between atoms: O_7  and  C_8
REMARK    5  A    between atoms: C_9  and  C_10
REMARK    6  A    between atoms: C_10  and  C_11
REMARK    7  A    between atoms: C_14  and  C_15
REMARK    8  A    between atoms: C_15  and  C_16
REMARK    9  A    between atoms: C_16  and  C_17
REMARK   10  A    between atoms: C_24  and  C_25
REMARK                            x       y       z     vdW  Elec       q    Type
REMARK                         _______ _______ _______ _____ _____    ______ ____
ROOT
ATOM      1  C   UNL     1       7.694   6.985  17.850  0.00  0.00    +0.000 A 
ATOM      2  N   UNL     1       7.216   7.863  16.994  0.00  0.00    +0.000 NA
ATOM      3  N   UNL     1       7.745   9.084  17.353  0.00  0.00    +0.000 NA
ATOM      4  C   UNL     1       8.511   8.865  18.401  0.00  0.00    +0.000 A 
ATOM      5  O   UNL     1       8.536   7.545  18.774  0.00  0.00    +0.000 OA
ENDROOT
BRANCH   1   6
ATOM      6  C   UNL     1       7.477   5.520  17.907  0.00  0.00    +0.000 C 
BRANCH   6  11
ATOM      7  C   UNL     1       3.859   5.180  19.002  0.00  0.00    +0.000 A 
ATOM      8  C   UNL     1       3.309   4.387  18.000  0.00  0.00    +0.000 A 
ATOM      9  C   UNL     1       4.097   3.958  16.931  0.00  0.00    +0.000 A 
ATOM     10  C   UNL     1       5.448   4.318  16.830  0.00  0.00    +0.000 A 
ATOM     11  C   UNL     1       6.018   5.132  17.822  0.00  0.00    +0.000 A 
ATOM     12  C   UNL     1       5.198   5.552  18.902  0.00  0.00    +0.000 A 
BRANCH   7  14
ATOM     13  C   UNL     1       2.194   6.653  19.847  0.00  0.00    +0.000 C 
ATOM     14  O   UNL     1       3.005   5.498  20.020  0.00  0.00    +0.000 OA
ENDBRANCH   7  14
BRANCH  10  15
ATOM     15  O   UNL     1       6.084   3.695  15.792  0.00  0.00    +0.000 OA
ATOM     16  C   UNL     1       5.761   4.093  14.470  0.00  0.00    +0.000 C 
ENDBRANCH  10  15
ENDBRANCH   6  11
ENDBRANCH   1   6
BRANCH   4  17
ATOM     17  C   UNL     1       9.342   9.806  19.173  0.00  0.00    +0.000 C 
BRANCH  17  18
ATOM     18  C   UNL     1       9.185  11.244  18.678  0.00  0.00    +0.000 C 
BRANCH  18  19
ATOM     19  C   UNL     1       9.099  12.202  19.855  0.00  0.00    +0.000 C 
ATOM     20  O   UNL     1       9.171  11.766  21.006  0.00  0.00    +0.000 OA
ATOM     21  N   UNL     1       8.940  13.552  19.593  0.00  0.00    +0.000 N 
ATOM     22  C   UNL     1       8.963  14.491  20.720  0.00  0.00    +0.000 C 
ATOM     23  C   UNL     1       7.708  15.354  20.766  0.00  0.00    +0.000 C 
ATOM     24  C   UNL     1       7.395  16.016  19.427  0.00  0.00    +0.000 C 
ATOM     25  C   UNL     1       7.431  15.002  18.280  0.00  0.00    +0.000 C 
ATOM     26  C   UNL     1       8.714  14.153  18.259  0.00  0.00    +0.000 C 
BRANCH  26  27
ATOM     27  C   UNL     1       9.921  14.966  17.813  0.00  0.00    +0.000 A 
ATOM     28  N   UNL     1       9.871  16.194  17.332  0.00  0.00    +0.000 NA
ATOM     29  C   UNL     1      11.134  16.633  16.995  0.00  0.00    +0.000 A 
ATOM     30  C   UNL     1      12.146  15.725  17.201  0.00  0.00    +0.000 A 
ATOM     31  S   UNL     1      11.502  14.276  17.858  0.00  0.00    +0.000 S 
ENDBRANCH  26  27
ENDBRANCH  18  19
ENDBRANCH  17  18
ENDBRANCH   4  17
TORSDOF 8
ENDMDL
MODEL 6
REMARK VINA RESULT:      -7.8      6.398      8.367
REMARK  Name = 
REMARK  10 active torsions:
REMARK  status: ('A' for Active; 'I' for Inactive)
REMARK    1  A    between atoms: C_1  and  O_2
REMARK    2  A    between atoms: O_2  and  C_3
REMARK    3  A    between atoms: C_6  and  O_7
REMARK    4  A    between atoms: O_7  and  C_8
REMARK    5  A    between atoms: C_9  and  C_10
REMARK    6  A    between atoms: C_10  and  C_11
REMARK    7  A    between atoms: C_14  and  C_15
REMARK    8  A    between atoms: C_15  and  C_16
REMARK    9  A    between atoms: C_16  and  C_17
REMARK   10  A    between atoms: C_24  and  C_25
REMARK                            x       y       z     vdW  Elec       q    Type
REMARK                         _______ _______ _______ _____ _____    ______ ____
ROOT
ATOM      1  C   UNL     1       2.392   6.207  19.097  0.00  0.00    +0.000 A 
ATOM      2  N   UNL     1       1.916   5.395  20.017  0.00  0.00    +0.000 NA
ATOM      3  N   UNL     1       1.447   6.194  21.037  0.00  0.00    +0.000 NA
ATOM      4  C   UNL     1       1.667   7.438  20.666  0.00  0.00    +0.000 A 
ATOM      5  O   UNL     1       2.262   7.529  19.434  0.00  0.00    +0.000 OA
ENDROOT
BRANCH   1   6
ATOM      6  C   UNL     1       2.986   5.881  17.779  0.00  0.00    +0.000 C 
BRANCH   6  11
ATOM      7  C   UNL     1       6.619   6.890  17.342  0.00  0.00    +0.000 A 
ATOM      8  C   UNL     1       7.301   5.715  17.641  0.00  0.00    +0.000 A 
ATOM      9  C   UNL     1       6.597   4.569  18.012  0.00  0.00    +0.000 A 
ATOM     10  C   UNL     1       5.198   4.569  18.103  0.00  0.00    +0.000 A 
ATOM     11  C   UNL     1       4.492   5.750  17.823  0.00  0.00    +0.000 A 
ATOM     12  C   UNL     1       5.230   6.902  17.442  0.00  0.00    +0.000 A 
BRANCH   7  14
ATOM     13  C   UNL     1       8.163   8.592  17.956  0.00  0.00    +0.000 C 
ATOM     14  O   UNL     1       7.409   7.932  16.946  0.00  0.00    +0.000 OA
ENDBRANCH   7  14
BRANCH  10  15
ATOM     15  O   UNL     1       4.685   3.326  18.348  0.00  0.00    +0.000 OA
ATOM     16  C   UNL     1       4.460   2.944  19.695  0.00  0.00    +0.000 C 
ENDBRANCH  10  15
ENDBRANCH   6  11
ENDBRANCH   1   6
BRANCH   4  17
ATOM     17  C   UNL     1       1.338   8.698  21.357  0.00  0.00    +0.000 C 
BRANCH  17  18
ATOM     18  C   UNL     1      -0.164   8.840  21.602  0.00  0.00    +0.000 C 
BRANCH  18  19
ATOM     19  C   UNL     1      -0.444  10.044  22.486  0.00  0.00    +0.000 C 
ATOM     20  O   UNL     1      -0.415   9.923  23.712  0.00  0.00    +0.000 OA
ATOM     21  N   UNL     1      -0.729  11.255  21.877  0.00  0.00    +0.000 N 
ATOM     22  C   UNL     1      -0.895  12.441  22.723  0.00  0.00    +0.000 C 
ATOM     23  C   UNL     1      -2.237  13.124  22.486  0.00  0.00    +0.000 C 
ATOM     24  C   UNL     1      -2.515  13.384  21.008  0.00  0.00    +0.000 C 
ATOM     25  C   UNL     1      -2.282  12.128  20.165  0.00  0.00    +0.000 C 
ATOM     26  C   UNL     1      -0.915  11.468  20.424  0.00  0.00    +0.000 C 
BRANCH  26  27
ATOM     27  C   UNL     1       0.226  12.288  19.840  0.00  0.00    +0.000 A 
ATOM     28  N   UNL     1       1.454  12.327  20.322  0.00  0.00    +0.000 NA
ATOM     29  C   UNL     1       2.237  13.187  19.581  0.00  0.00    +0.000 A 
ATOM     30  C   UNL     1       1.594  13.821  18.544  0.00  0.00    +0.000 A 
ATOM     31  S   UNL     1      -0.043  13.312  18.478  0.00  0.00    +0.000 S 
ENDBRANCH  26  27
ENDBRANCH  18  19
ENDBRANCH  17  18
ENDBRANCH   4  17
TORSDOF 8
ENDMDL
MODEL 7
REMARK VINA RESULT:      -7.8      7.193     11.160
REMARK  Name = 
REMARK  10 active torsions:
REMARK  status: ('A' for Active; 'I' for Inactive)
REMARK    1  A    between atoms: C_1  and  O_2
REMARK    2  A    between atoms: O_2  and  C_3
REMARK    3  A    between atoms: C_6  and  O_7
REMARK    4  A    between atoms: O_7  and  C_8
REMARK    5  A    between atoms: C_9  and  C_10
REMARK    6  A    between atoms: C_10  and  C_11
REMARK    7  A    between atoms: C_14  and  C_15
REMARK    8  A    between atoms: C_15  and  C_16
REMARK    9  A    between atoms: C_16  and  C_17
REMARK   10  A    between atoms: C_24  and  C_25
REMARK                            x       y       z     vdW  Elec       q    Type
REMARK                         _______ _______ _______ _____ _____    ______ ____
ROOT
ATOM      1  C   UNL     1       0.851   9.865  20.030  0.00  0.00    +0.000 A 
ATOM      2  N   UNL     1       0.927   9.682  21.332  0.00  0.00    +0.000 NA
ATOM      3  N   UNL     1       1.382   8.395  21.518  0.00  0.00    +0.000 NA
ATOM      4  C   UNL     1       1.554   7.883  20.317  0.00  0.00    +0.000 A 
ATOM      5  O   UNL     1       1.242   8.765  19.314  0.00  0.00    +0.000 OA
ENDROOT
BRANCH   1   6
ATOM      6  C   UNL     1       0.451  11.078  19.278  0.00  0.00    +0.000 C 
BRANCH   6  11
ATOM      7  C   UNL     1      -2.619  10.281  17.192  0.00  0.00    +0.000 A 
ATOM      8  C   UNL     1      -3.610  11.040  17.805  0.00  0.00    +0.000 A 
ATOM      9  C   UNL     1      -3.310  11.815  18.926  0.00  0.00    +0.000 A 
ATOM     10  C   UNL     1      -2.017  11.846  19.468  0.00  0.00    +0.000 A 
ATOM     11  C   UNL     1      -1.006  11.073  18.874  0.00  0.00    +0.000 A 
ATOM     12  C   UNL     1      -1.334  10.296  17.732  0.00  0.00    +0.000 A 
BRANCH   7  14
ATOM     13  C   UNL     1      -2.969  10.302  14.840  0.00  0.00    +0.000 C 
ATOM     14  O   UNL     1      -3.018   9.601  16.077  0.00  0.00    +0.000 OA
ENDBRANCH   7  14
BRANCH  10  15
ATOM     15  O   UNL     1      -1.889  12.761  20.475  0.00  0.00    +0.000 OA
ATOM     16  C   UNL     1      -2.938  13.695  20.673  0.00  0.00    +0.000 C 
ENDBRANCH  10  15
ENDBRANCH   6  11
ENDBRANCH   1   6
BRANCH   4  17
ATOM     17  C   UNL     1       2.052   6.552  19.923  0.00  0.00    +0.000 C 
BRANCH  17  18
ATOM     18  C   UNL     1       2.280   6.452  18.414  0.00  0.00    +0.000 C 
BRANCH  18  19
ATOM     19  C   UNL     1       2.101   5.017  17.947  0.00  0.00    +0.000 C 
ATOM     20  O   UNL     1       1.049   4.676  17.404  0.00  0.00    +0.000 OA
ATOM     21  N   UNL     1       3.141   4.125  18.152  0.00  0.00    +0.000 N 
ATOM     22  C   UNL     1       3.015   2.768  17.610  0.00  0.00    +0.000 C 
ATOM     23  C   UNL     1       3.194   1.706  18.689  0.00  0.00    +0.000 C 
ATOM     24  C   UNL     1       4.455   1.917  19.522  0.00  0.00    +0.000 C 
ATOM     25  C   UNL     1       4.561   3.359  20.024  0.00  0.00    +0.000 C 
ATOM     26  C   UNL     1       4.383   4.405  18.908  0.00  0.00    +0.000 C 
BRANCH  26  27
ATOM     27  C   UNL     1       5.589   4.451  17.981  0.00  0.00    +0.000 A 
ATOM     28  N   UNL     1       6.848   4.424  18.375  0.00  0.00    +0.000 NA
ATOM     29  C   UNL     1       7.696   4.512  17.291  0.00  0.00    +0.000 A 
ATOM     30  C   UNL     1       7.077   4.628  16.069  0.00  0.00    +0.000 A 
ATOM     31  S   UNL     1       5.374   4.608  16.277  0.00  0.00    +0.000 S 
ENDBRANCH  26  27
ENDBRANCH  18  19
ENDBRANCH  17  18
ENDBRANCH   4  17
TORSDOF 8
ENDMDL
MODEL 8
REMARK VINA RESULT:      -7.8      1.379      2.186
REMARK  Name = 
REMARK  10 active torsions:
REMARK  status: ('A' for Active; 'I' for Inactive)
REMARK    1  A    between atoms: C_1  and  O_2
REMARK    2  A    between atoms: O_2  and  C_3
REMARK    3  A    between atoms: C_6  and  O_7
REMARK    4  A    between atoms: O_7  and  C_8
REMARK    5  A    between atoms: C_9  and  C_10
REMARK    6  A    between atoms: C_10  and  C_11
REMARK    7  A    between atoms: C_14  and  C_15
REMARK    8  A    between atoms: C_15  and  C_16
REMARK    9  A    between atoms: C_16  and  C_17
REMARK   10  A    between atoms: C_24  and  C_25
REMARK                            x       y       z     vdW  Elec       q    Type
REMARK                         _______ _______ _______ _____ _____    ______ ____
ROOT
ATOM      1  C   UNL     1       7.880   7.191  18.131  0.00  0.00    +0.000 A 
ATOM      2  N   UNL     1       7.468   7.849  17.067  0.00  0.00    +0.000 NA
ATOM      3  N   UNL     1       7.854   9.159  17.246  0.00  0.00    +0.000 NA
ATOM      4  C   UNL     1       8.477   9.209  18.405  0.00  0.00    +0.000 A 
ATOM      5  O   UNL     1       8.541   7.989  19.027  0.00  0.00    +0.000 OA
ENDROOT
BRANCH   1   6
ATOM      6  C   UNL     1       7.760   5.747  18.443  0.00  0.00    +0.000 C 
BRANCH   6  11
ATOM      7  C   UNL     1       4.274   4.256  18.268  0.00  0.00    +0.000 A 
ATOM      8  C   UNL     1       4.214   3.771  16.966  0.00  0.00    +0.000 A 
ATOM      9  C   UNL     1       5.299   3.933  16.105  0.00  0.00    +0.000 A 
ATOM     10  C   UNL     1       6.466   4.592  16.517  0.00  0.00    +0.000 A 
ATOM     11  C   UNL     1       6.540   5.105  17.822  0.00  0.00    +0.000 A 
ATOM     12  C   UNL     1       5.425   4.923  18.682  0.00  0.00    +0.000 A 
BRANCH   7  14
ATOM     13  C   UNL     1       3.060   4.700  20.265  0.00  0.00    +0.000 C 
ATOM     14  O   UNL     1       3.171   3.997  19.033  0.00  0.00    +0.000 OA
ENDBRANCH   7  14
BRANCH  10  15
ATOM     15  O   UNL     1       7.463   4.534  15.583  0.00  0.00    +0.000 OA
ATOM     16  C   UNL     1       7.144   4.854  14.239  0.00  0.00    +0.000 C 
ENDBRANCH  10  15
ENDBRANCH   6  11
ENDBRANCH   1   6
BRANCH   4  17
ATOM     17  C   UNL     1       9.122  10.351  19.078  0.00  0.00    +0.000 C 
BRANCH  17  18
ATOM     18  C   UNL     1       9.755  11.320  18.078  0.00  0.00    +0.000 C 
BRANCH  18  19
ATOM     19  C   UNL     1       8.819  12.486  17.808  0.00  0.00    +0.000 C 
ATOM     20  O   UNL     1       7.885  12.352  17.014  0.00  0.00    +0.000 OA
ATOM     21  N   UNL     1       9.048  13.680  18.471  0.00  0.00    +0.000 N 
ATOM     22  C   UNL     1       8.088  14.774  18.295  0.00  0.00    +0.000 C 
ATOM     23  C   UNL     1       8.763  16.050  17.805  0.00  0.00    +0.000 C 
ATOM     24  C   UNL     1       9.979  16.434  18.642  0.00  0.00    +0.000 C 
ATOM     25  C   UNL     1      10.925  15.246  18.835  0.00  0.00    +0.000 C 
ATOM     26  C   UNL     1      10.212  13.977  19.337  0.00  0.00    +0.000 C 
BRANCH  26  27
ATOM     27  C   UNL     1       9.792  14.106  20.793  0.00  0.00    +0.000 A 
ATOM     28  N   UNL     1      10.193  15.057  21.617  0.00  0.00    +0.000 NA
ATOM     29  C   UNL     1       9.653  14.869  22.872  0.00  0.00    +0.000 A 
ATOM     30  C   UNL     1       8.855  13.758  23.008  0.00  0.00    +0.000 A 
ATOM     31  S   UNL     1       8.757  12.926  21.511  0.00  0.00    +0.000 S 
ENDBRANCH  26  27
ENDBRANCH  18  19
ENDBRANCH  17  18
ENDBRANCH   4  17
TORSDOF 8
ENDMDL
MODEL 9
REMARK VINA RESULT:      -7.7      5.615      7.628
REMARK  Name = 
REMARK  10 active torsions:
REMARK  status: ('A' for Active; 'I' for Inactive)
REMARK    1  A    between atoms: C_1  and  O_2
REMARK    2  A    between atoms: O_2  and  C_3
REMARK    3  A    between atoms: C_6  and  O_7
REMARK    4  A    between atoms: O_7  and  C_8
REMARK    5  A    between atoms: C_9  and  C_10
REMARK    6  A    between atoms: C_10  and  C_11
REMARK    7  A    between atoms: C_14  and  C_15
REMARK    8  A    between atoms: C_15  and  C_16
REMARK    9  A    between atoms: C_16  and  C_17
REMARK   10  A    between atoms: C_24  and  C_25
REMARK                            x       y       z     vdW  Elec       q    Type
REMARK                         _______ _______ _______ _____ _____    ______ ____
ROOT
ATOM      1  C   UNL     1       3.052   5.786  18.983  0.00  0.00    +0.000 A 
ATOM      2  N   UNL     1       3.141   6.910  18.304  0.00  0.00    +0.000 NA
ATOM      3  N   UNL     1       2.379   7.836  18.981  0.00  0.00    +0.000 NA
ATOM      4  C   UNL     1       1.880   7.213  20.029  0.00  0.00    +0.000 A 
ATOM      5  O   UNL     1       2.271   5.901  20.103  0.00  0.00    +0.000 OA
ENDROOT
BRANCH   1   6
ATOM      6  C   UNL     1       3.701   4.479  18.720  0.00  0.00    +0.000 C 
BRANCH   6  11
ATOM      7  C   UNL     1       5.736   4.203  15.528  0.00  0.00    +0.000 A 
ATOM      8  C   UNL     1       7.019   4.525  15.955  0.00  0.00    +0.000 A 
ATOM      9  C   UNL     1       7.253   4.859  17.289  0.00  0.00    +0.000 A 
ATOM     10  C   UNL     1       6.212   4.891  18.227  0.00  0.00    +0.000 A 
ATOM     11  C   UNL     1       4.905   4.587  17.813  0.00  0.00    +0.000 A 
ATOM     12  C   UNL     1       4.693   4.244  16.451  0.00  0.00    +0.000 A 
BRANCH   7  14
ATOM     13  C   UNL     1       6.668   4.293  13.341  0.00  0.00    +0.000 C 
ATOM     14  O   UNL     1       5.636   3.846  14.212  0.00  0.00    +0.000 OA
ENDBRANCH   7  14
BRANCH  10  15
ATOM     15  O   UNL     1       6.656   5.108  19.501  0.00  0.00    +0.000 OA
ATOM     16  C   UNL     1       7.933   5.699  19.677  0.00  0.00    +0.000 C 
ENDBRANCH  10  15
ENDBRANCH   6  11
ENDBRANCH   1   6
BRANCH   4  17
ATOM     17  C   UNL     1       1.020   7.729  21.110  0.00  0.00    +0.000 C 
BRANCH  17  18
ATOM     18  C   UNL     1       1.534   9.059  21.662  0.00  0.00    +0.000 C 
BRANCH  18  19
ATOM     19  C   UNL     1       0.371   9.986  21.974  0.00  0.00    +0.000 C 
ATOM     20  O   UNL     1      -0.339   9.768  22.958  0.00  0.00    +0.000 OA
ATOM     21  N   UNL     1       0.141  11.060  21.131  0.00  0.00    +0.000 N 
ATOM     22  C   UNL     1      -0.912  12.016  21.487  0.00  0.00    +0.000 C 
ATOM     23  C   UNL     1      -1.933  12.179  20.366  0.00  0.00    +0.000 C 
ATOM     24  C   UNL     1      -1.286  12.459  19.013  0.00  0.00    +0.000 C 
ATOM     25  C   UNL     1      -0.164  11.463  18.712  0.00  0.00    +0.000 C 
ATOM     26  C   UNL     1       0.853  11.328  19.861  0.00  0.00    +0.000 C 
BRANCH  26  27
ATOM     27  C   UNL     1       1.737  12.561  19.978  0.00  0.00    +0.000 A 
ATOM     28  N   UNL     1       2.158  13.086  21.113  0.00  0.00    +0.000 NA
ATOM     29  C   UNL     1       2.915  14.214  20.874  0.00  0.00    +0.000 A 
ATOM     30  C   UNL     1       3.051  14.559  19.550  0.00  0.00    +0.000 A 
ATOM     31  S   UNL     1       2.221  13.425  18.565  0.00  0.00    +0.000 S 
ENDBRANCH  26  27
ENDBRANCH  18  19
ENDBRANCH  17  18
ENDBRANCH   4  17
TORSDOF 8
ENDMDL
