MODEL 1
REMARK VINA RESULT:      -7.6      0.000      0.000
REMARK  Name = 
REMARK  6 active torsions:
REMARK  status: ('A' for Active; 'I' for Inactive)
REMARK    1  A    between atoms: C_2  and  O_3
REMARK    2  A    between atoms: C_2  and  C_13
REMARK    3  A    between atoms: O_3  and  C_4
REMARK    4  A    between atoms: C_4  and  C_5
REMARK    5  A    between atoms: C_5  and  O_6
REMARK    6  A    between atoms: O_6  and  C_7
REMARK                            x       y       z     vdW  Elec       q    Type
REMARK                         _______ _______ _______ _____ _____    ______ ____
ROOT
ATOM      1  O   UNL     1       6.521   4.800  19.365  0.00  0.00    +0.000 OA
ATOM      2  C   UNL     1       5.468   4.415  18.877  0.00  0.00    +0.000 C 
ENDROOT
BRANCH   2   3
ATOM      3  C   UNL     1       4.582   3.470  19.480  0.00  0.00    +0.000 A 
ATOM      4  N   UNL     1       4.830   2.130  19.361  0.00  0.00    +0.000 N 
ATOM      5  N   UNL     1       3.725   1.454  18.981  0.00  0.00    +0.000 NA
ATOM      6  C   UNL     1       2.728   2.302  19.278  0.00  0.00    +0.000 A 
ATOM      7  C   UNL     1       1.339   2.170  19.076  0.00  0.00    +0.000 A 
ATOM      8  C   UNL     1       0.583   3.197  19.679  0.00  0.00    +0.000 A 
ATOM      9  C   UNL     1       1.161   4.272  20.424  0.00  0.00    +0.000 A 
ATOM     10  C   UNL     1       2.553   4.512  20.501  0.00  0.00    +0.000 A 
ATOM     11  C   UNL     1       3.271   3.479  19.890  0.00  0.00    +0.000 A 
ATOM     12  H   UNL     1       5.733   1.676  19.275  0.00  0.00    +0.000 HD
ENDBRANCH   2   3
BRANCH   2  13
ATOM     13  O   UNL     1       5.105   4.560  17.566  0.00  0.00    +0.000 OA
BRANCH  13  14
ATOM     14  C   UNL     1       4.552   5.825  17.159  0.00  0.00    +0.000 C 
BRANCH  14  15
ATOM     15  C   UNL     1       5.333   6.514  16.025  0.00  0.00    +0.000 C 
BRANCH  15  16
ATOM     16  O   UNL     1       6.390   5.604  15.696  0.00  0.00    +0.000 OA
BRANCH  16  17
ATOM     17  C   UNL     1       6.438   5.009  14.474  0.00  0.00    +0.000 A 
ATOM     18  C   UNL     1       7.507   5.429  13.676  0.00  0.00    +0.000 A 
ATOM     19  C   UNL     1       7.749   4.858  12.422  0.00  0.00    +0.000 A 
ATOM     20  C   UNL     1       6.915   3.851  11.959  0.00  0.00    +0.000 A 
ATOM     21  C   UNL     1       5.848   3.416  12.750  0.00  0.00    +0.000 A 
ATOM     22  C   UNL     1       5.603   3.999  14.005  0.00  0.00    +0.000 A 
ENDBRANCH  16  17
ENDBRANCH  15  16
ENDBRANCH  14  15
ENDBRANCH  13  14
ENDBRANCH   2  13
TORSDOF 6
ENDMDL
MODEL 2
REMARK VINA RESULT:      -7.5      2.800      5.232
REMARK  Name = 
REMARK  6 active torsions:
REMARK  status: ('A' for Active; 'I' for Inactive)
REMARK    1  A    between atoms: C_2  and  O_3
REMARK    2  A    between atoms: C_2  and  C_13
REMARK    3  A    between atoms: O_3  and  C_4
REMARK    4  A    between atoms: C_4  and  C_5
REMARK    5  A    between atoms: C_5  and  O_6
REMARK    6  A    between atoms: O_6  and  C_7
REMARK                            x       y       z     vdW  Elec       q    Type
REMARK                         _______ _______ _______ _____ _____    ______ ____
ROOT
ATOM      1  O   UNL     1       6.319   5.323  19.773  0.00  0.00    +0.000 OA
ATOM      2  C   UNL     1       5.453   4.753  19.125  0.00  0.00    +0.000 C 
ENDROOT
BRANCH   2   3
ATOM      3  C   UNL     1       4.629   3.691  19.612  0.00  0.00    +0.000 A 
ATOM      4  N   UNL     1       5.007   2.391  19.419  0.00  0.00    +0.000 N 
ATOM      5  N   UNL     1       3.991   1.647  18.932  0.00  0.00    +0.000 NA
ATOM      6  C   UNL     1       2.905   2.379  19.228  0.00  0.00    +0.000 A 
ATOM      7  C   UNL     1       1.547   2.138  18.940  0.00  0.00    +0.000 A 
ATOM      8  C   UNL     1       0.668   3.047  19.567  0.00  0.00    +0.000 A 
ATOM      9  C   UNL     1       1.106   4.114  20.414  0.00  0.00    +0.000 A 
ATOM     10  C   UNL     1       2.463   4.471  20.584  0.00  0.00    +0.000 A 
ATOM     11  C   UNL     1       3.304   3.553  19.947  0.00  0.00    +0.000 A 
ATOM     12  H   UNL     1       5.952   2.027  19.354  0.00  0.00    +0.000 HD
ENDBRANCH   2   3
BRANCH   2  13
ATOM     13  O   UNL     1       5.327   4.795  17.764  0.00  0.00    +0.000 OA
BRANCH  13  14
ATOM     14  C   UNL     1       4.104   5.323  17.219  0.00  0.00    +0.000 C 
BRANCH  14  15
ATOM     15  C   UNL     1       3.882   6.819  17.512  0.00  0.00    +0.000 C 
BRANCH  15  16
ATOM     16  O   UNL     1       2.905   6.850  18.560  0.00  0.00    +0.000 OA
BRANCH  16  17
ATOM     17  C   UNL     1       2.160   7.967  18.782  0.00  0.00    +0.000 A 
ATOM     18  C   UNL     1       1.675   8.079  20.088  0.00  0.00    +0.000 A 
ATOM     19  C   UNL     1       0.958   9.207  20.505  0.00  0.00    +0.000 A 
ATOM     20  C   UNL     1       0.726  10.237  19.606  0.00  0.00    +0.000 A 
ATOM     21  C   UNL     1       1.213  10.140  18.300  0.00  0.00    +0.000 A 
ATOM     22  C   UNL     1       1.924   9.003  17.883  0.00  0.00    +0.000 A 
ENDBRANCH  16  17
ENDBRANCH  15  16
ENDBRANCH  14  15
ENDBRANCH  13  14
ENDBRANCH   2  13
TORSDOF 6
ENDMDL
MODEL 3
REMARK VINA RESULT:      -7.5      0.884      1.359
REMARK  Name = 
REMARK  6 active torsions:
REMARK  status: ('A' for Active; 'I' for Inactive)
REMARK    1  A    between atoms: C_2  and  O_3
REMARK    2  A    between atoms: C_2  and  C_13
REMARK    3  A    between atoms: O_3  and  C_4
REMARK    4  A    between atoms: C_4  and  C_5
REMARK    5  A    between atoms: C_5  and  O_6
REMARK    6  A    between atoms: O_6  and  C_7
REMARK                            x       y       z     vdW  Elec       q    Type
REMARK                         _______ _______ _______ _____ _____    ______ ____
ROOT
ATOM      1  O   UNL     1       6.517   4.796  19.292  0.00  0.00    +0.000 OA
ATOM      2  C   UNL     1       5.330   4.797  18.998  0.00  0.00    +0.000 C 
ENDROOT
BRANCH   2   3
ATOM      3  C   UNL     1       4.483   3.646  19.008  0.00  0.00    +0.000 A 
ATOM      4  N   UNL     1       4.495   2.780  17.949  0.00  0.00    +0.000 N 
ATOM      5  N   UNL     1       3.244   2.491  17.532  0.00  0.00    +0.000 NA
ATOM      6  C   UNL     1       2.483   2.833  18.583  0.00  0.00    +0.000 A 
ATOM      7  C   UNL     1       1.082   2.794  18.735  0.00  0.00    +0.000 A 
ATOM      8  C   UNL     1       0.651   3.068  20.051  0.00  0.00    +0.000 A 
ATOM      9  C   UNL     1       1.542   3.359  21.131  0.00  0.00    +0.000 A 
ATOM     10  C   UNL     1       2.932   3.563  20.966  0.00  0.00    +0.000 A 
ATOM     11  C   UNL     1       3.323   3.288  19.652  0.00  0.00    +0.000 A 
ATOM     12  H   UNL     1       5.275   2.569  17.336  0.00  0.00    +0.000 HD
ENDBRANCH   2   3
BRANCH   2  13
ATOM     13  O   UNL     1       4.684   5.792  18.318  0.00  0.00    +0.000 OA
BRANCH  13  14
ATOM     14  C   UNL     1       5.459   6.598  17.412  0.00  0.00    +0.000 C 
BRANCH  14  15
ATOM     15  C   UNL     1       5.129   6.362  15.926  0.00  0.00    +0.000 C 
BRANCH  15  16
ATOM     16  O   UNL     1       5.543   5.016  15.663  0.00  0.00    +0.000 OA
BRANCH  16  17
ATOM     17  C   UNL     1       6.154   4.693  14.491  0.00  0.00    +0.000 A 
ATOM     18  C   UNL     1       5.429   3.802  13.695  0.00  0.00    +0.000 A 
ATOM     19  C   UNL     1       5.877   3.430  12.423  0.00  0.00    +0.000 A 
ATOM     20  C   UNL     1       7.065   3.958  11.937  0.00  0.00    +0.000 A 
ATOM     21  C   UNL     1       7.795   4.856  12.720  0.00  0.00    +0.000 A 
ATOM     22  C   UNL     1       7.346   5.220  14.001  0.00  0.00    +0.000 A 
ENDBRANCH  16  17
ENDBRANCH  15  16
ENDBRANCH  14  15
ENDBRANCH  13  14
ENDBRANCH   2  13
TORSDOF 6
ENDMDL
MODEL 4
REMARK VINA RESULT:      -7.4      2.752      6.153
REMARK  Name = 
REMARK  6 active torsions:
REMARK  status: ('A' for Active; 'I' for Inactive)
REMARK    1  A    between atoms: C_2  and  O_3
REMARK    2  A    between atoms: C_2  and  C_13
REMARK    3  A    between atoms: O_3  and  C_4
REMARK    4  A    between atoms: C_4  and  C_5
REMARK    5  A    between atoms: C_5  and  O_6
REMARK    6  A    between atoms: O_6  and  C_7
REMARK                            x       y       z     vdW  Elec       q    Type
REMARK                         _______ _______ _______ _____ _____    ______ ____
ROOT
ATOM      1  O   UNL     1       1.999   2.309  17.138  0.00  0.00    +0.000 OA
ATOM      2  C   UNL     1       2.576   3.299  17.565  0.00  0.00    +0.000 C 
ENDROOT
BRANCH   2   3
ATOM      3  C   UNL     1       3.992   3.421  17.716  0.00  0.00    +0.000 A 
ATOM      4  N   UNL     1       4.630   2.757  18.728  0.00  0.00    +0.000 N 
ATOM      5  N   UNL     1       5.469   3.572  19.402  0.00  0.00    +0.000 NA
ATOM      6  C   UNL     1       5.657   4.593  18.552  0.00  0.00    +0.000 A 
ATOM      7  C   UNL     1       6.410   5.774  18.709  0.00  0.00    +0.000 A 
ATOM      8  C   UNL     1       6.515   6.536  17.526  0.00  0.00    +0.000 A 
ATOM      9  C   UNL     1       5.918   6.155  16.283  0.00  0.00    +0.000 A 
ATOM     10  C   UNL     1       5.028   5.065  16.145  0.00  0.00    +0.000 A 
ATOM     11  C   UNL     1       4.944   4.336  17.335  0.00  0.00    +0.000 A 
ATOM     12  H   UNL     1       4.362   1.875  19.151  0.00  0.00    +0.000 HD
ENDBRANCH   2   3
BRANCH   2  13
ATOM     13  O   UNL     1       1.987   4.320  18.258  0.00  0.00    +0.000 OA
BRANCH  13  14
ATOM     14  C   UNL     1       1.585   4.066  19.616  0.00  0.00    +0.000 C 
BRANCH  14  15
ATOM     15  C   UNL     1       1.984   5.175  20.607  0.00  0.00    +0.000 C 
BRANCH  15  16
ATOM     16  O   UNL     1       2.849   6.043  19.863  0.00  0.00    +0.000 OA
BRANCH  16  17
ATOM     17  C   UNL     1       2.379   7.206  19.336  0.00  0.00    +0.000 A 
ATOM     18  C   UNL     1       1.619   7.971  20.226  0.00  0.00    +0.000 A 
ATOM     19  C   UNL     1       1.128   9.232  19.869  0.00  0.00    +0.000 A 
ATOM     20  C   UNL     1       1.403   9.737  18.607  0.00  0.00    +0.000 A 
ATOM     21  C   UNL     1       2.168   8.986  17.710  0.00  0.00    +0.000 A 
ATOM     22  C   UNL     1       2.651   7.716  18.070  0.00  0.00    +0.000 A 
ENDBRANCH  16  17
ENDBRANCH  15  16
ENDBRANCH  14  15
ENDBRANCH  13  14
ENDBRANCH   2  13
TORSDOF 6
ENDMDL
MODEL 5
REMARK VINA RESULT:      -7.3      4.554      6.050
REMARK  Name = 
REMARK  6 active torsions:
REMARK  status: ('A' for Active; 'I' for Inactive)
REMARK    1  A    between atoms: C_2  and  O_3
REMARK    2  A    between atoms: C_2  and  C_13
REMARK    3  A    between atoms: O_3  and  C_4
REMARK    4  A    between atoms: C_4  and  C_5
REMARK    5  A    between atoms: C_5  and  O_6
REMARK    6  A    between atoms: O_6  and  C_7
REMARK                            x       y       z     vdW  Elec       q    Type
REMARK                         _______ _______ _______ _____ _____    ______ ____
ROOT
ATOM      1  O   UNL     1       6.721   4.589  15.769  0.00  0.00    +0.000 OA
ATOM      2  C   UNL     1       6.656   5.382  16.697  0.00  0.00    +0.000 C 
ENDROOT
BRANCH   2   3
ATOM      3  C   UNL     1       5.890   5.188  17.888  0.00  0.00    +0.000 A 
ATOM      4  N   UNL     1       6.302   4.281  18.825  0.00  0.00    +0.000 N 
ATOM      5  N   UNL     1       5.290   3.473  19.209  0.00  0.00    +0.000 NA
ATOM      6  C   UNL     1       4.195   4.152  18.834  0.00  0.00    +0.000 A 
ATOM      7  C   UNL     1       2.834   3.799  18.937  0.00  0.00    +0.000 A 
ATOM      8  C   UNL     1       1.954   4.848  18.594  0.00  0.00    +0.000 A 
ATOM      9  C   UNL     1       2.392   6.145  18.179  0.00  0.00    +0.000 A 
ATOM     10  C   UNL     1       3.743   6.467  17.914  0.00  0.00    +0.000 A 
ATOM     11  C   UNL     1       4.585   5.406  18.260  0.00  0.00    +0.000 A 
ATOM     12  H   UNL     1       7.254   4.004  19.037  0.00  0.00    +0.000 HD
ENDBRANCH   2   3
BRANCH   2  13
ATOM     13  O   UNL     1       7.028   6.696  16.642  0.00  0.00    +0.000 OA
BRANCH  13  14
ATOM     14  C   UNL     1       7.745   7.238  17.766  0.00  0.00    +0.000 C 
BRANCH  14  15
ATOM     15  C   UNL     1       7.921   8.768  17.718  0.00  0.00    +0.000 C 
BRANCH  15  16
ATOM     16  O   UNL     1       8.682   9.090  18.889  0.00  0.00    +0.000 OA
BRANCH  16  17
ATOM     17  C   UNL     1       9.331  10.282  18.989  0.00  0.00    +0.000 A 
ATOM     18  C   UNL     1       9.490  10.737  20.301  0.00  0.00    +0.000 A 
ATOM     19  C   UNL     1      10.206  11.905  20.586  0.00  0.00    +0.000 A 
ATOM     20  C   UNL     1      10.773  12.627  19.546  0.00  0.00    +0.000 A 
ATOM     21  C   UNL     1      10.628  12.178  18.231  0.00  0.00    +0.000 A 
ATOM     22  C   UNL     1       9.901  11.010  17.948  0.00  0.00    +0.000 A 
ENDBRANCH  16  17
ENDBRANCH  15  16
ENDBRANCH  14  15
ENDBRANCH  13  14
ENDBRANCH   2  13
TORSDOF 6
ENDMDL
MODEL 6
REMARK VINA RESULT:      -7.3      1.759      2.363
REMARK  Name = 
REMARK  6 active torsions:
REMARK  status: ('A' for Active; 'I' for Inactive)
REMARK    1  A    between atoms: C_2  and  O_3
REMARK    2  A    between atoms: C_2  and  C_13
REMARK    3  A    between atoms: O_3  and  C_4
REMARK    4  A    between atoms: C_4  and  C_5
REMARK    5  A    between atoms: C_5  and  O_6
REMARK    6  A    between atoms: O_6  and  C_7
REMARK                            x       y       z     vdW  Elec       q    Type
REMARK                         _______ _______ _______ _____ _____    ______ ____
ROOT
ATOM      1  O   UNL     1       6.635   5.440  19.947  0.00  0.00    +0.000 OA
ATOM      2  C   UNL     1       6.060   4.870  19.031  0.00  0.00    +0.000 C 
ENDROOT
BRANCH   2   3
ATOM      3  C   UNL     1       4.642   4.744  18.906  0.00  0.00    +0.000 A 
ATOM      4  N   UNL     1       3.921   5.724  18.281  0.00  0.00    +0.000 N 
ATOM      5  N   UNL     1       2.846   6.089  19.010  0.00  0.00    +0.000 NA
ATOM      6  C   UNL     1       2.679   5.057  19.852  0.00  0.00    +0.000 A 
ATOM      7  C   UNL     1       1.735   4.875  20.882  0.00  0.00    +0.000 A 
ATOM      8  C   UNL     1       1.756   3.579  21.441  0.00  0.00    +0.000 A 
ATOM      9  C   UNL     1       2.648   2.546  21.012  0.00  0.00    +0.000 A 
ATOM     10  C   UNL     1       3.706   2.756  20.098  0.00  0.00    +0.000 A 
ATOM     11  C   UNL     1       3.658   4.048  19.567  0.00  0.00    +0.000 A 
ATOM     12  H   UNL     1       4.232   6.333  17.531  0.00  0.00    +0.000 HD
ENDBRANCH   2   3
BRANCH   2  13
ATOM     13  O   UNL     1       6.641   3.997  18.153  0.00  0.00    +0.000 OA
BRANCH  13  14
ATOM     14  C   UNL     1       7.526   4.539  17.156  0.00  0.00    +0.000 C 
BRANCH  14  15
ATOM     15  C   UNL     1       6.946   5.744  16.392  0.00  0.00    +0.000 C 
BRANCH  15  16
ATOM     16  O   UNL     1       7.598   5.723  15.116  0.00  0.00    +0.000 OA
BRANCH  16  17
ATOM     17  C   UNL     1       7.126   4.938  14.109  0.00  0.00    +0.000 A 
ATOM     18  C   UNL     1       5.881   4.359  14.371  0.00  0.00    +0.000 A 
ATOM     19  C   UNL     1       5.218   3.589  13.409  0.00  0.00    +0.000 A 
ATOM     20  C   UNL     1       5.804   3.398  12.167  0.00  0.00    +0.000 A 
ATOM     21  C   UNL     1       7.045   3.978  11.890  0.00  0.00    +0.000 A 
ATOM     22  C   UNL     1       7.712   4.743  12.862  0.00  0.00    +0.000 A 
ENDBRANCH  16  17
ENDBRANCH  15  16
ENDBRANCH  14  15
ENDBRANCH  13  14
ENDBRANCH   2  13
TORSDOF 6
ENDMDL
MODEL 7
REMARK VINA RESULT:      -7.2      1.598      2.160
REMARK  Name = 
REMARK  6 active torsions:
REMARK  status: ('A' for Active; 'I' for Inactive)
REMARK    1  A    between atoms: C_2  and  O_3
REMARK    2  A    between atoms: C_2  and  C_13
REMARK    3  A    between atoms: O_3  and  C_4
REMARK    4  A    between atoms: C_4  and  C_5
REMARK    5  A    between atoms: C_5  and  O_6
REMARK    6  A    between atoms: O_6  and  C_7
REMARK                            x       y       z     vdW  Elec       q    Type
REMARK                         _______ _______ _______ _____ _____    ______ ____
ROOT
ATOM      1  O   UNL     1       4.085   6.280  18.025  0.00  0.00    +0.000 OA
ATOM      2  C   UNL     1       4.369   5.092  18.079  0.00  0.00    +0.000 C 
ENDROOT
BRANCH   2   3
ATOM      3  C   UNL     1       3.426   4.031  18.245  0.00  0.00    +0.000 A 
ATOM      4  N   UNL     1       2.498   3.784  17.270  0.00  0.00    +0.000 N 
ATOM      5  N   UNL     1       1.258   3.658  17.788  0.00  0.00    +0.000 NA
ATOM      6  C   UNL     1       1.490   3.408  19.086  0.00  0.00    +0.000 A 
ATOM      7  C   UNL     1       0.582   3.219  20.147  0.00  0.00    +0.000 A 
ATOM      8  C   UNL     1       1.196   2.801  21.346  0.00  0.00    +0.000 A 
ATOM      9  C   UNL     1       2.604   2.588  21.482  0.00  0.00    +0.000 A 
ATOM     10  C   UNL     1       3.546   2.927  20.484  0.00  0.00    +0.000 A 
ATOM     11  C   UNL     1       2.904   3.341  19.313  0.00  0.00    +0.000 A 
ATOM     12  H   UNL     1       2.597   3.939  16.273  0.00  0.00    +0.000 HD
ENDBRANCH   2   3
BRANCH   2  13
ATOM     13  O   UNL     1       5.619   4.587  18.308  0.00  0.00    +0.000 OA
BRANCH  13  14
ATOM     14  C   UNL     1       6.748   5.403  17.949  0.00  0.00    +0.000 C 
BRANCH  14  15
ATOM     15  C   UNL     1       7.560   4.861  16.757  0.00  0.00    +0.000 C 
BRANCH  15  16
ATOM     16  O   UNL     1       7.055   5.563  15.615  0.00  0.00    +0.000 OA
BRANCH  16  17
ATOM     17  C   UNL     1       6.908   4.929  14.420  0.00  0.00    +0.000 A 
ATOM     18  C   UNL     1       5.741   4.166  14.318  0.00  0.00    +0.000 A 
ATOM     19  C   UNL     1       5.397   3.515  13.129  0.00  0.00    +0.000 A 
ATOM     20  C   UNL     1       6.228   3.630  12.024  0.00  0.00    +0.000 A 
ATOM     21  C   UNL     1       7.393   4.396  12.110  0.00  0.00    +0.000 A 
ATOM     22  C   UNL     1       7.740   5.041  13.309  0.00  0.00    +0.000 A 
ENDBRANCH  16  17
ENDBRANCH  15  16
ENDBRANCH  14  15
ENDBRANCH  13  14
ENDBRANCH   2  13
TORSDOF 6
ENDMDL
MODEL 8
REMARK VINA RESULT:      -7.2      2.231      7.093
REMARK  Name = 
REMARK  6 active torsions:
REMARK  status: ('A' for Active; 'I' for Inactive)
REMARK    1  A    between atoms: C_2  and  O_3
REMARK    2  A    between atoms: C_2  and  C_13
REMARK    3  A    between atoms: O_3  and  C_4
REMARK    4  A    between atoms: C_4  and  C_5
REMARK    5  A    between atoms: C_5  and  O_6
REMARK    6  A    between atoms: O_6  and  C_7
REMARK                            x       y       z     vdW  Elec       q    Type
REMARK                         _______ _______ _______ _____ _____    ______ ____
ROOT
ATOM      1  O   UNL     1       4.927   7.101  15.491  0.00  0.00    +0.000 OA
ATOM      2  C   UNL     1       5.300   5.987  15.828  0.00  0.00    +0.000 C 
ENDROOT
BRANCH   2   3
ATOM      3  C   UNL     1       6.295   5.216  15.152  0.00  0.00    +0.000 A 
ATOM      4  N   UNL     1       7.618   5.542  15.284  0.00  0.00    +0.000 N 
ATOM      5  N   UNL     1       8.237   5.592  14.085  0.00  0.00    +0.000 NA
ATOM      6  C   UNL     1       7.416   4.895  13.285  0.00  0.00    +0.000 A 
ATOM      7  C   UNL     1       7.510   4.629  11.904  0.00  0.00    +0.000 A 
ATOM      8  C   UNL     1       6.547   3.708  11.441  0.00  0.00    +0.000 A 
ATOM      9  C   UNL     1       5.564   3.100  12.284  0.00  0.00    +0.000 A 
ATOM     10  C   UNL     1       5.349   3.474  13.631  0.00  0.00    +0.000 A 
ATOM     11  C   UNL     1       6.317   4.389  14.055  0.00  0.00    +0.000 A 
ATOM     12  H   UNL     1       8.069   5.972  16.084  0.00  0.00    +0.000 HD
ENDBRANCH   2   3
BRANCH   2  13
ATOM     13  O   UNL     1       4.637   5.158  16.691  0.00  0.00    +0.000 OA
BRANCH  13  14
ATOM     14  C   UNL     1       5.418   4.223  17.456  0.00  0.00    +0.000 C 
BRANCH  14  15
ATOM     15  C   UNL     1       5.435   4.511  18.970  0.00  0.00    +0.000 C 
BRANCH  15  16
ATOM     16  O   UNL     1       4.905   3.328  19.578  0.00  0.00    +0.000 OA
BRANCH  16  17
ATOM     17  C   UNL     1       3.562   3.122  19.643  0.00  0.00    +0.000 A 
ATOM     18  C   UNL     1       2.866   4.112  20.344  0.00  0.00    +0.000 A 
ATOM     19  C   UNL     1       1.470   4.095  20.436  0.00  0.00    +0.000 A 
ATOM     20  C   UNL     1       0.758   3.078  19.817  0.00  0.00    +0.000 A 
ATOM     21  C   UNL     1       1.442   2.087  19.107  0.00  0.00    +0.000 A 
ATOM     22  C   UNL     1       2.844   2.102  19.025  0.00  0.00    +0.000 A 
ENDBRANCH  16  17
ENDBRANCH  15  16
ENDBRANCH  14  15
ENDBRANCH  13  14
ENDBRANCH   2  13
TORSDOF 6
ENDMDL
MODEL 9
REMARK VINA RESULT:      -7.2      2.489      3.532
REMARK  Name = 
REMARK  6 active torsions:
REMARK  status: ('A' for Active; 'I' for Inactive)
REMARK    1  A    between atoms: C_2  and  O_3
REMARK    2  A    between atoms: C_2  and  C_13
REMARK    3  A    between atoms: O_3  and  C_4
REMARK    4  A    between atoms: C_4  and  C_5
REMARK    5  A    between atoms: C_5  and  O_6
REMARK    6  A    between atoms: O_6  and  C_7
REMARK                            x       y       z     vdW  Elec       q    Type
REMARK                         _______ _______ _______ _____ _____    ______ ____
ROOT
ATOM      1  O   UNL     1       1.059   6.853  21.251  0.00  0.00    +0.000 OA
ATOM      2  C   UNL     1       1.699   6.262  20.393  0.00  0.00    +0.000 C 
ENDROOT
BRANCH   2   3
ATOM      3  C   UNL     1       1.697   4.846  20.200  0.00  0.00    +0.000 A 
ATOM      4  N   UNL     1       1.710   4.009  21.282  0.00  0.00    +0.000 N 
ATOM      5  N   UNL     1       2.646   3.045  21.151  0.00  0.00    +0.000 NA
ATOM      6  C   UNL     1       2.900   3.040  19.833  0.00  0.00    +0.000 A 
ATOM      7  C   UNL     1       3.819   2.269  19.094  0.00  0.00    +0.000 A 
ATOM      8  C   UNL     1       3.680   2.415  17.697  0.00  0.00    +0.000 A 
ATOM      9  C   UNL     1       2.705   3.263  17.083  0.00  0.00    +0.000 A 
ATOM     10  C   UNL     1       1.887   4.164  17.803  0.00  0.00    +0.000 A 
ATOM     11  C   UNL     1       2.053   3.995  19.181  0.00  0.00    +0.000 A 
ATOM     12  H   UNL     1       1.314   4.183  22.199  0.00  0.00    +0.000 HD
ENDBRANCH   2   3
BRANCH   2  13
ATOM     13  O   UNL     1       2.749   6.784  19.689  0.00  0.00    +0.000 OA
BRANCH  13  14
ATOM     14  C   UNL     1       2.449   7.593  18.538  0.00  0.00    +0.000 C 
BRANCH  14  15
ATOM     15  C   UNL     1       3.533   7.555  17.445  0.00  0.00    +0.000 C 
BRANCH  15  16
ATOM     16  O   UNL     1       4.637   6.864  18.042  0.00  0.00    +0.000 OA
BRANCH  16  17
ATOM     17  C   UNL     1       5.386   5.991  17.315  0.00  0.00    +0.000 A 
ATOM     18  C   UNL     1       5.079   5.974  15.951  0.00  0.00    +0.000 A 
ATOM     19  C   UNL     1       5.809   5.192  15.049  0.00  0.00    +0.000 A 
ATOM     20  C   UNL     1       6.862   4.419  15.514  0.00  0.00    +0.000 A 
ATOM     21  C   UNL     1       7.184   4.433  16.874  0.00  0.00    +0.000 A 
ATOM     22  C   UNL     1       6.443   5.213  17.778  0.00  0.00    +0.000 A 
ENDBRANCH  16  17
ENDBRANCH  15  16
ENDBRANCH  14  15
ENDBRANCH  13  14
ENDBRANCH   2  13
TORSDOF 6
ENDMDL
