MODEL 1
REMARK VINA RESULT:      -7.7      0.000      0.000
REMARK  Name = 
REMARK  12 active torsions:
REMARK  status: ('A' for Active; 'I' for Inactive)
REMARK    1  A    between atoms: C_1  and  C_2
REMARK    2  A    between atoms: C_2  and  C_3
REMARK    3  A    between atoms: C_2  and  O_4
REMARK    4  A    between atoms: O_4  and  C_5
REMARK    5  A    between atoms: C_10  and  O_11
REMARK    6  A    between atoms: O_11  and  C_12
REMARK    7  A    between atoms: C_12  and  C_13
REMARK    8  A    between atoms: C_13  and  N_14
REMARK    9  A    between atoms: C_17  and  C_18
REMARK   10  A    between atoms: C_18  and  N_19
REMARK   11  A    between atoms: N_19  and  S_20
REMARK   12  A    between atoms: S_20  and  C_23
REMARK                            x       y       z     vdW  Elec       q    Type
REMARK                         _______ _______ _______ _____ _____    ______ ____
ROOT
ATOM      1  N   UNL     1       7.201   6.871  17.104  0.00  0.00    +0.000 NA
ATOM      2  C   UNL     1       7.556   5.454  17.192  0.00  0.00    +0.000 C 
ATOM      3  C   UNL     1       6.845   4.620  16.125  0.00  0.00    +0.000 C 
ATOM      4  C   UNL     1       5.320   4.787  16.156  0.00  0.00    +0.000 C 
ATOM      5  C   UNL     1       5.024   6.285  16.036  0.00  0.00    +0.000 C 
ATOM      6  C   UNL     1       5.750   7.084  17.131  0.00  0.00    +0.000 C 
ENDROOT
BRANCH   1   7
ATOM      7  C   UNL     1       7.964   7.681  18.087  0.00  0.00    +0.000 C 
BRANCH   7   8
ATOM      8  C   UNL     1       8.281   9.159  17.768  0.00  0.00    +0.000 C 
BRANCH   8   9
ATOM      9  O   UNL     1       8.481   9.912  18.975  0.00  0.00    +0.000 OA
BRANCH   9  15
ATOM     10  C   UNL     1      10.070  11.336  20.258  0.00  0.00    +0.000 A 
ATOM     11  C   UNL     1      11.214  12.152  20.175  0.00  0.00    +0.000 A 
ATOM     12  C   UNL     1      11.790  12.461  18.940  0.00  0.00    +0.000 A 
ATOM     13  C   UNL     1      11.271  11.907  17.782  0.00  0.00    +0.000 A 
ATOM     14  C   UNL     1      10.185  11.032  17.862  0.00  0.00    +0.000 A 
ATOM     15  C   UNL     1       9.577  10.731  19.093  0.00  0.00    +0.000 A 
BRANCH  10  16
ATOM     16  O   UNL     1       9.428  11.114  21.445  0.00  0.00    +0.000 OA
BRANCH  16  18
ATOM     17  C   UNL     1       8.260  13.230  21.267  0.00  0.00    +0.000 C 
ATOM     18  C   UNL     1       8.982  12.253  22.195  0.00  0.00    +0.000 C 
ATOM     19  C   UNL     1       8.085  11.742  23.319  0.00  0.00    +0.000 C 
ENDBRANCH  16  18
ENDBRANCH  10  16
ENDBRANCH   9  15
ENDBRANCH   8   9
ENDBRANCH   7   8
ENDBRANCH   1   7
BRANCH   4  20
ATOM     20  C   UNL     1       4.620   4.272  17.425  0.00  0.00    +0.000 C 
BRANCH  20  21
ATOM     21  N   UNL     1       3.211   4.656  17.504  0.00  0.00    +0.000 NA
ATOM     22  H   UNL     1       2.553   4.213  16.865  0.00  0.00    +0.000 HD
BRANCH  21  23
ATOM     23  S   UNL     1       2.571   4.695  19.071  0.00  0.00    +0.000 S 
ATOM     24  O   UNL     1       1.328   3.952  19.017  0.00  0.00    +0.000 OA
ATOM     25  O   UNL     1       3.618   4.362  20.010  0.00  0.00    +0.000 OA
BRANCH  23  26
ATOM     26  C   UNL     1       2.144   6.409  19.257  0.00  0.00    +0.000 A 
ATOM     27  C   UNL     1       1.707   6.853  20.512  0.00  0.00    +0.000 A 
ATOM     28  C   UNL     1       1.383   8.203  20.678  0.00  0.00    +0.000 A 
ATOM     29  C   UNL     1       1.509   9.072  19.599  0.00  0.00    +0.000 A 
ATOM     30  F   UNL     1       1.203  10.365  19.762  0.00  0.00    +0.000 F 
ATOM     31  C   UNL     1       1.949   8.624  18.359  0.00  0.00    +0.000 A 
ATOM     32  C   UNL     1       2.271   7.280  18.180  0.00  0.00    +0.000 A 
ENDBRANCH  23  26
ENDBRANCH  21  23
ENDBRANCH  20  21
ENDBRANCH   4  20
TORSDOF 10
ENDMDL
MODEL 2
REMARK VINA RESULT:      -7.6      4.115      7.272
REMARK  Name = 
REMARK  12 active torsions:
REMARK  status: ('A' for Active; 'I' for Inactive)
REMARK    1  A    between atoms: C_1  and  C_2
REMARK    2  A    between atoms: C_2  and  C_3
REMARK    3  A    between atoms: C_2  and  O_4
REMARK    4  A    between atoms: O_4  and  C_5
REMARK    5  A    between atoms: C_10  and  O_11
REMARK    6  A    between atoms: O_11  and  C_12
REMARK    7  A    between atoms: C_12  and  C_13
REMARK    8  A    between atoms: C_13  and  N_14
REMARK    9  A    between atoms: C_17  and  C_18
REMARK   10  A    between atoms: C_18  and  N_19
REMARK   11  A    between atoms: N_19  and  S_20
REMARK   12  A    between atoms: S_20  and  C_23
REMARK                            x       y       z     vdW  Elec       q    Type
REMARK                         _______ _______ _______ _____ _____    ______ ____
ROOT
ATOM      1  N   UNL     1       2.123   2.767  20.177  0.00  0.00    +0.000 NA
ATOM      2  C   UNL     1       1.477   2.924  18.873  0.00  0.00    +0.000 C 
ATOM      3  C   UNL     1       2.066   1.977  17.825  0.00  0.00    +0.000 C 
ATOM      4  C   UNL     1       3.587   2.117  17.684  0.00  0.00    +0.000 C 
ATOM      5  C   UNL     1       4.194   1.917  19.076  0.00  0.00    +0.000 C 
ATOM      6  C   UNL     1       3.581   2.894  20.094  0.00  0.00    +0.000 C 
ENDROOT
BRANCH   1   7
ATOM      7  C   UNL     1       1.482   3.627  21.203  0.00  0.00    +0.000 C 
BRANCH   7   8
ATOM      8  C   UNL     1       1.059   5.065  20.829  0.00  0.00    +0.000 C 
BRANCH   8   9
ATOM      9  O   UNL     1       2.197   5.941  20.794  0.00  0.00    +0.000 OA
BRANCH   9  15
ATOM     10  C   UNL     1       1.538   8.129  19.804  0.00  0.00    +0.000 A 
ATOM     11  C   UNL     1       1.747   9.023  18.738  0.00  0.00    +0.000 A 
ATOM     12  C   UNL     1       2.575   8.682  17.665  0.00  0.00    +0.000 A 
ATOM     13  C   UNL     1       3.253   7.475  17.676  0.00  0.00    +0.000 A 
ATOM     14  C   UNL     1       3.114   6.616  18.769  0.00  0.00    +0.000 A 
ATOM     15  C   UNL     1       2.265   6.931  19.844  0.00  0.00    +0.000 A 
BRANCH  10  16
ATOM     16  O   UNL     1       0.647   8.399  20.806  0.00  0.00    +0.000 OA
BRANCH  16  18
ATOM     17  C   UNL     1      -0.331  10.609  20.623  0.00  0.00    +0.000 C 
ATOM     18  C   UNL     1       0.653   9.715  21.378  0.00  0.00    +0.000 C 
ATOM     19  C   UNL     1       0.301   9.577  22.856  0.00  0.00    +0.000 C 
ENDBRANCH  16  18
ENDBRANCH  10  16
ENDBRANCH   9  15
ENDBRANCH   8   9
ENDBRANCH   7   8
ENDBRANCH   1   7
BRANCH   4  20
ATOM     20  C   UNL     1       4.083   3.470  17.147  0.00  0.00    +0.000 C 
BRANCH  20  21
ATOM     21  N   UNL     1       5.529   3.511  16.929  0.00  0.00    +0.000 NA
ATOM     22  H   UNL     1       6.014   2.636  16.738  0.00  0.00    +0.000 HD
BRANCH  21  23
ATOM     23  S   UNL     1       6.054   4.718  15.864  0.00  0.00    +0.000 S 
ATOM     24  O   UNL     1       7.037   4.094  15.002  0.00  0.00    +0.000 OA
ATOM     25  O   UNL     1       4.899   5.403  15.331  0.00  0.00    +0.000 OA
BRANCH  23  26
ATOM     26  C   UNL     1       6.935   5.815  16.949  0.00  0.00    +0.000 A 
ATOM     27  C   UNL     1       7.024   7.168  16.596  0.00  0.00    +0.000 A 
ATOM     28  C   UNL     1       7.700   8.047  17.448  0.00  0.00    +0.000 A 
ATOM     29  C   UNL     1       8.260   7.560  18.625  0.00  0.00    +0.000 A 
ATOM     30  F   UNL     1       8.902   8.404  19.442  0.00  0.00    +0.000 F 
ATOM     31  C   UNL     1       8.161   6.217  18.969  0.00  0.00    +0.000 A 
ATOM     32  C   UNL     1       7.494   5.331  18.127  0.00  0.00    +0.000 A 
ENDBRANCH  23  26
ENDBRANCH  21  23
ENDBRANCH  20  21
ENDBRANCH   4  20
TORSDOF 10
ENDMDL
MODEL 3
REMARK VINA RESULT:      -7.6      3.830      6.424
REMARK  Name = 
REMARK  12 active torsions:
REMARK  status: ('A' for Active; 'I' for Inactive)
REMARK    1  A    between atoms: C_1  and  C_2
REMARK    2  A    between atoms: C_2  and  C_3
REMARK    3  A    between atoms: C_2  and  O_4
REMARK    4  A    between atoms: O_4  and  C_5
REMARK    5  A    between atoms: C_10  and  O_11
REMARK    6  A    between atoms: O_11  and  C_12
REMARK    7  A    between atoms: C_12  and  C_13
REMARK    8  A    between atoms: C_13  and  N_14
REMARK    9  A    between atoms: C_17  and  C_18
REMARK   10  A    between atoms: C_18  and  N_19
REMARK   11  A    between atoms: N_19  and  S_20
REMARK   12  A    between atoms: S_20  and  C_23
REMARK                            x       y       z     vdW  Elec       q    Type
REMARK                         _______ _______ _______ _____ _____    ______ ____
ROOT
ATOM      1  N   UNL     1       2.978   1.879  19.045  0.00  0.00    +0.000 NA
ATOM      2  C   UNL     1       3.532   2.768  20.068  0.00  0.00    +0.000 C 
ATOM      3  C   UNL     1       2.672   2.788  21.334  0.00  0.00    +0.000 C 
ATOM      4  C   UNL     1       1.207   3.150  21.054  0.00  0.00    +0.000 C 
ATOM      5  C   UNL     1       0.691   2.168  19.998  0.00  0.00    +0.000 C 
ATOM      6  C   UNL     1       1.577   2.186  18.741  0.00  0.00    +0.000 C 
ENDROOT
BRANCH   1   7
ATOM      7  C   UNL     1       3.868   1.802  17.860  0.00  0.00    +0.000 C 
BRANCH   7   8
ATOM      8  C   UNL     1       3.983   3.021  16.918  0.00  0.00    +0.000 C 
BRANCH   8   9
ATOM      9  O   UNL     1       5.270   3.648  17.047  0.00  0.00    +0.000 OA
BRANCH   9  15
ATOM     10  C   UNL     1       7.045   4.911  15.842  0.00  0.00    +0.000 A 
ATOM     11  C   UNL     1       7.617   5.183  14.585  0.00  0.00    +0.000 A 
ATOM     12  C   UNL     1       7.046   4.685  13.411  0.00  0.00    +0.000 A 
ATOM     13  C   UNL     1       5.937   3.858  13.483  0.00  0.00    +0.000 A 
ATOM     14  C   UNL     1       5.411   3.518  14.731  0.00  0.00    +0.000 A 
ATOM     15  C   UNL     1       5.957   4.031  15.921  0.00  0.00    +0.000 A 
BRANCH  10  16
ATOM     16  O   UNL     1       7.525   5.479  16.990  0.00  0.00    +0.000 OA
BRANCH  16  18
ATOM     17  C   UNL     1       5.930   7.299  17.122  0.00  0.00    +0.000 C 
ATOM     18  C   UNL     1       7.406   6.901  17.141  0.00  0.00    +0.000 C 
ATOM     19  C   UNL     1       8.098   7.286  18.444  0.00  0.00    +0.000 C 
ENDBRANCH  16  18
ENDBRANCH  10  16
ENDBRANCH   9  15
ENDBRANCH   8   9
ENDBRANCH   7   8
ENDBRANCH   1   7
BRANCH   4  20
ATOM     20  C   UNL     1       0.963   4.574  20.528  0.00  0.00    +0.000 C 
BRANCH  20  21
ATOM     21  N   UNL     1       2.111   5.462  20.709  0.00  0.00    +0.000 NA
ATOM     22  H   UNL     1       2.872   5.152  21.310  0.00  0.00    +0.000 HD
BRANCH  21  23
ATOM     23  S   UNL     1       2.727   6.131  19.280  0.00  0.00    +0.000 S 
ATOM     24  O   UNL     1       4.158   6.241  19.472  0.00  0.00    +0.000 OA
ATOM     25  O   UNL     1       2.160   5.425  18.154  0.00  0.00    +0.000 OA
BRANCH  23  26
ATOM     26  C   UNL     1       2.068   7.780  19.327  0.00  0.00    +0.000 A 
ATOM     27  C   UNL     1       2.140   8.558  18.163  0.00  0.00    +0.000 A 
ATOM     28  C   UNL     1       1.611   9.852  18.179  0.00  0.00    +0.000 A 
ATOM     29  C   UNL     1       1.021  10.333  19.344  0.00  0.00    +0.000 A 
ATOM     30  F   UNL     1       0.511  11.570  19.356  0.00  0.00    +0.000 F 
ATOM     31  C   UNL     1       0.950   9.552  20.493  0.00  0.00    +0.000 A 
ATOM     32  C   UNL     1       1.477   8.263  20.490  0.00  0.00    +0.000 A 
ENDBRANCH  23  26
ENDBRANCH  21  23
ENDBRANCH  20  21
ENDBRANCH   4  20
TORSDOF 10
ENDMDL
MODEL 4
REMARK VINA RESULT:      -7.5      1.617      2.851
REMARK  Name = 
REMARK  12 active torsions:
REMARK  status: ('A' for Active; 'I' for Inactive)
REMARK    1  A    between atoms: C_1  and  C_2
REMARK    2  A    between atoms: C_2  and  C_3
REMARK    3  A    between atoms: C_2  and  O_4
REMARK    4  A    between atoms: O_4  and  C_5
REMARK    5  A    between atoms: C_10  and  O_11
REMARK    6  A    between atoms: O_11  and  C_12
REMARK    7  A    between atoms: C_12  and  C_13
REMARK    8  A    between atoms: C_13  and  N_14
REMARK    9  A    between atoms: C_17  and  C_18
REMARK   10  A    between atoms: C_18  and  N_19
REMARK   11  A    between atoms: N_19  and  S_20
REMARK   12  A    between atoms: S_20  and  C_23
REMARK                            x       y       z     vdW  Elec       q    Type
REMARK                         _______ _______ _______ _____ _____    ______ ____
ROOT
ATOM      1  N   UNL     1       7.434   7.235  17.365  0.00  0.00    +0.000 NA
ATOM      2  C   UNL     1       7.802   6.439  18.537  0.00  0.00    +0.000 C 
ATOM      3  C   UNL     1       7.800   4.940  18.234  0.00  0.00    +0.000 C 
ATOM      4  C   UNL     1       6.463   4.450  17.659  0.00  0.00    +0.000 C 
ATOM      5  C   UNL     1       6.157   5.308  16.427  0.00  0.00    +0.000 C 
ATOM      6  C   UNL     1       6.161   6.805  16.778  0.00  0.00    +0.000 C 
ENDROOT
BRANCH   1   7
ATOM      7  C   UNL     1       7.528   8.689  17.649  0.00  0.00    +0.000 C 
BRANCH   7   8
ATOM      8  C   UNL     1       8.607   9.202  18.628  0.00  0.00    +0.000 C 
BRANCH   8   9
ATOM      9  O   UNL     1       9.154  10.452  18.177  0.00  0.00    +0.000 OA
BRANCH   9  15
ATOM     10  C   UNL     1       9.639  12.814  18.799  0.00  0.00    +0.000 A 
ATOM     11  C   UNL     1       9.826  13.711  19.867  0.00  0.00    +0.000 A 
ATOM     12  C   UNL     1       9.857  13.259  21.190  0.00  0.00    +0.000 A 
ATOM     13  C   UNL     1       9.638  11.920  21.464  0.00  0.00    +0.000 A 
ATOM     14  C   UNL     1       9.371  11.036  20.416  0.00  0.00    +0.000 A 
ATOM     15  C   UNL     1       9.362  11.468  19.078  0.00  0.00    +0.000 A 
BRANCH  10  16
ATOM     16  O   UNL     1       9.715  13.221  17.496  0.00  0.00    +0.000 OA
BRANCH  16  18
ATOM     17  C   UNL     1      11.346  14.926  16.944  0.00  0.00    +0.000 C 
ATOM     18  C   UNL     1      11.016  13.434  16.930  0.00  0.00    +0.000 C 
ATOM     19  C   UNL     1      12.012  12.607  17.739  0.00  0.00    +0.000 C 
ENDBRANCH  16  18
ENDBRANCH  10  16
ENDBRANCH   9  15
ENDBRANCH   8   9
ENDBRANCH   7   8
ENDBRANCH   1   7
BRANCH   4  20
ATOM     20  C   UNL     1       5.257   4.546  18.607  0.00  0.00    +0.000 C 
BRANCH  20  21
ATOM     21  N   UNL     1       4.567   3.270  18.796  0.00  0.00    +0.000 NA
ATOM     22  H   UNL     1       4.813   2.704  19.606  0.00  0.00    +0.000 HD
BRANCH  21  23
ATOM     23  S   UNL     1       2.885   3.337  18.616  0.00  0.00    +0.000 S 
ATOM     24  O   UNL     1       2.625   3.180  17.200  0.00  0.00    +0.000 OA
ATOM     25  O   UNL     1       2.277   2.473  19.602  0.00  0.00    +0.000 OA
BRANCH  23  26
ATOM     26  C   UNL     1       2.532   5.029  19.026  0.00  0.00    +0.000 A 
ATOM     27  C   UNL     1       2.689   6.000  18.027  0.00  0.00    +0.000 A 
ATOM     28  C   UNL     1       2.400   7.335  18.329  0.00  0.00    +0.000 A 
ATOM     29  C   UNL     1       1.958   7.664  19.607  0.00  0.00    +0.000 A 
ATOM     30  F   UNL     1       1.677   8.941  19.892  0.00  0.00    +0.000 F 
ATOM     31  C   UNL     1       1.800   6.693  20.589  0.00  0.00    +0.000 A 
ATOM     32  C   UNL     1       2.089   5.361  20.302  0.00  0.00    +0.000 A 
ENDBRANCH  23  26
ENDBRANCH  21  23
ENDBRANCH  20  21
ENDBRANCH   4  20
TORSDOF 10
ENDMDL
MODEL 5
REMARK VINA RESULT:      -7.5      1.278      1.717
REMARK  Name = 
REMARK  12 active torsions:
REMARK  status: ('A' for Active; 'I' for Inactive)
REMARK    1  A    between atoms: C_1  and  C_2
REMARK    2  A    between atoms: C_2  and  C_3
REMARK    3  A    between atoms: C_2  and  O_4
REMARK    4  A    between atoms: O_4  and  C_5
REMARK    5  A    between atoms: C_10  and  O_11
REMARK    6  A    between atoms: O_11  and  C_12
REMARK    7  A    between atoms: C_12  and  C_13
REMARK    8  A    between atoms: C_13  and  N_14
REMARK    9  A    between atoms: C_17  and  C_18
REMARK   10  A    between atoms: C_18  and  N_19
REMARK   11  A    between atoms: N_19  and  S_20
REMARK   12  A    between atoms: S_20  and  C_23
REMARK                            x       y       z     vdW  Elec       q    Type
REMARK                         _______ _______ _______ _____ _____    ______ ____
ROOT
ATOM      1  N   UNL     1       7.384   6.921  17.074  0.00  0.00    +0.000 NA
ATOM      2  C   UNL     1       7.251   5.902  18.117  0.00  0.00    +0.000 C 
ATOM      3  C   UNL     1       7.491   4.492  17.571  0.00  0.00    +0.000 C 
ATOM      4  C   UNL     1       6.585   4.153  16.379  0.00  0.00    +0.000 C 
ATOM      5  C   UNL     1       6.795   5.244  15.324  0.00  0.00    +0.000 C 
ATOM      6  C   UNL     1       6.536   6.642  15.911  0.00  0.00    +0.000 C 
ENDROOT
BRANCH   1   7
ATOM      7  C   UNL     1       7.238   8.288  17.635  0.00  0.00    +0.000 C 
BRANCH   7   8
ATOM      8  C   UNL     1       8.479   9.202  17.737  0.00  0.00    +0.000 C 
BRANCH   8   9
ATOM      9  O   UNL     1       8.730   9.574  19.102  0.00  0.00    +0.000 OA
BRANCH   9  15
ATOM     10  C   UNL     1       9.607  11.432  20.509  0.00  0.00    +0.000 A 
ATOM     11  C   UNL     1      10.582  12.441  20.611  0.00  0.00    +0.000 A 
ATOM     12  C   UNL     1      11.459  12.705  19.554  0.00  0.00    +0.000 A 
ATOM     13  C   UNL     1      11.415  11.921  18.413  0.00  0.00    +0.000 A 
ATOM     14  C   UNL     1      10.504  10.865  18.336  0.00  0.00    +0.000 A 
ATOM     15  C   UNL     1       9.597  10.603  19.378  0.00  0.00    +0.000 A 
BRANCH  10  16
ATOM     16  O   UNL     1       8.671  11.234  21.486  0.00  0.00    +0.000 OA
BRANCH  16  18
ATOM     17  C   UNL     1       7.525  13.276  22.108  0.00  0.00    +0.000 C 
ATOM     18  C   UNL     1       8.553  12.223  22.519  0.00  0.00    +0.000 C 
ATOM     19  C   UNL     1       8.169  11.502  23.807  0.00  0.00    +0.000 C 
ENDBRANCH  16  18
ENDBRANCH  10  16
ENDBRANCH   9  15
ENDBRANCH   8   9
ENDBRANCH   7   8
ENDBRANCH   1   7
BRANCH   4  20
ATOM     20  C   UNL     1       5.080   4.082  16.686  0.00  0.00    +0.000 C 
BRANCH  20  21
ATOM     21  N   UNL     1       4.772   3.325  17.898  0.00  0.00    +0.000 NA
ATOM     22  H   UNL     1       5.266   3.564  18.756  0.00  0.00    +0.000 HD
BRANCH  21  23
ATOM     23  S   UNL     1       3.120   3.121  18.210  0.00  0.00    +0.000 S 
ATOM     24  O   UNL     1       2.469   3.078  16.917  0.00  0.00    +0.000 OA
ATOM     25  O   UNL     1       2.957   2.064  19.181  0.00  0.00    +0.000 OA
BRANCH  23  26
ATOM     26  C   UNL     1       2.688   4.674  18.958  0.00  0.00    +0.000 A 
ATOM     27  C   UNL     1       2.898   5.847  18.221  0.00  0.00    +0.000 A 
ATOM     28  C   UNL     1       2.547   7.076  18.790  0.00  0.00    +0.000 A 
ATOM     29  C   UNL     1       1.993   7.103  20.066  0.00  0.00    +0.000 A 
ATOM     30  F   UNL     1       1.653   8.280  20.606  0.00  0.00    +0.000 F 
ATOM     31  C   UNL     1       1.783   5.933  20.787  0.00  0.00    +0.000 A 
ATOM     32  C   UNL     1       2.132   4.703  20.233  0.00  0.00    +0.000 A 
ENDBRANCH  23  26
ENDBRANCH  21  23
ENDBRANCH  20  21
ENDBRANCH   4  20
TORSDOF 10
ENDMDL
MODEL 6
REMARK VINA RESULT:      -7.4      5.534      7.893
REMARK  Name = 
REMARK  12 active torsions:
REMARK  status: ('A' for Active; 'I' for Inactive)
REMARK    1  A    between atoms: C_1  and  C_2
REMARK    2  A    between atoms: C_2  and  C_3
REMARK    3  A    between atoms: C_2  and  O_4
REMARK    4  A    between atoms: O_4  and  C_5
REMARK    5  A    between atoms: C_10  and  O_11
REMARK    6  A    between atoms: O_11  and  C_12
REMARK    7  A    between atoms: C_12  and  C_13
REMARK    8  A    between atoms: C_13  and  N_14
REMARK    9  A    between atoms: C_17  and  C_18
REMARK   10  A    between atoms: C_18  and  N_19
REMARK   11  A    between atoms: N_19  and  S_20
REMARK   12  A    between atoms: S_20  and  C_23
REMARK                            x       y       z     vdW  Elec       q    Type
REMARK                         _______ _______ _______ _____ _____    ______ ____
ROOT
ATOM      1  N   UNL     1       2.383   6.847  18.348  0.00  0.00    +0.000 NA
ATOM      2  C   UNL     1       3.078   5.953  17.421  0.00  0.00    +0.000 C 
ATOM      3  C   UNL     1       2.855   4.481  17.771  0.00  0.00    +0.000 C 
ATOM      4  C   UNL     1       3.241   4.148  19.219  0.00  0.00    +0.000 C 
ATOM      5  C   UNL     1       2.461   5.101  20.128  0.00  0.00    +0.000 C 
ATOM      6  C   UNL     1       2.720   6.569  19.748  0.00  0.00    +0.000 C 
ENDROOT
BRANCH   1   7
ATOM      7  C   UNL     1       2.535   8.268  17.944  0.00  0.00    +0.000 C 
BRANCH   7   8
ATOM      8  C   UNL     1       1.304   9.200  17.977  0.00  0.00    +0.000 C 
BRANCH   8   9
ATOM      9  O   UNL     1       1.512  10.290  18.890  0.00  0.00    +0.000 OA
BRANCH   9  15
ATOM     10  C   UNL     1       0.152  11.091  20.816  0.00  0.00    +0.000 A 
ATOM     11  C   UNL     1      -1.019  11.772  21.198  0.00  0.00    +0.000 A 
ATOM     12  C   UNL     1      -1.961  12.174  20.247  0.00  0.00    +0.000 A 
ATOM     13  C   UNL     1      -1.714  11.960  18.902  0.00  0.00    +0.000 A 
ATOM     14  C   UNL     1      -0.517  11.357  18.508  0.00  0.00    +0.000 A 
ATOM     15  C   UNL     1       0.430  10.923  19.452  0.00  0.00    +0.000 A 
BRANCH  10  16
ATOM     16  O   UNL     1       1.030  10.594  21.739  0.00  0.00    +0.000 OA
BRANCH  16  18
ATOM     17  C   UNL     1      -0.203   9.625  23.587  0.00  0.00    +0.000 C 
ATOM     18  C   UNL     1       0.702   9.356  22.385  0.00  0.00    +0.000 C 
ATOM     19  C   UNL     1       0.040   8.456  21.346  0.00  0.00    +0.000 C 
ENDBRANCH  16  18
ENDBRANCH  10  16
ENDBRANCH   9  15
ENDBRANCH   8   9
ENDBRANCH   7   8
ENDBRANCH   1   7
BRANCH   4  20
ATOM     20  C   UNL     1       4.734   4.293  19.559  0.00  0.00    +0.000 C 
BRANCH  20  21
ATOM     21  N   UNL     1       5.618   3.732  18.538  0.00  0.00    +0.000 NA
ATOM     22  H   UNL     1       5.201   3.191  17.783  0.00  0.00    +0.000 HD
BRANCH  21  23
ATOM     23  S   UNL     1       6.769   4.811  17.922  0.00  0.00    +0.000 S 
ATOM     24  O   UNL     1       6.254   6.140  18.181  0.00  0.00    +0.000 OA
ATOM     25  O   UNL     1       8.079   4.400  18.372  0.00  0.00    +0.000 OA
BRANCH  23  26
ATOM     26  C   UNL     1       6.638   4.535  16.172  0.00  0.00    +0.000 A 
ATOM     27  C   UNL     1       5.618   3.694  15.706  0.00  0.00    +0.000 A 
ATOM     28  C   UNL     1       5.493   3.480  14.330  0.00  0.00    +0.000 A 
ATOM     29  C   UNL     1       6.375   4.111  13.459  0.00  0.00    +0.000 A 
ATOM     30  F   UNL     1       6.250   3.909  12.141  0.00  0.00    +0.000 F 
ATOM     31  C   UNL     1       7.380   4.948  13.930  0.00  0.00    +0.000 A 
ATOM     32  C   UNL     1       7.518   5.166  15.299  0.00  0.00    +0.000 A 
ENDBRANCH  23  26
ENDBRANCH  21  23
ENDBRANCH  20  21
ENDBRANCH   4  20
TORSDOF 10
ENDMDL
MODEL 7
REMARK VINA RESULT:      -7.2      5.567      8.271
REMARK  Name = 
REMARK  12 active torsions:
REMARK  status: ('A' for Active; 'I' for Inactive)
REMARK    1  A    between atoms: C_1  and  C_2
REMARK    2  A    between atoms: C_2  and  C_3
REMARK    3  A    between atoms: C_2  and  O_4
REMARK    4  A    between atoms: O_4  and  C_5
REMARK    5  A    between atoms: C_10  and  O_11
REMARK    6  A    between atoms: O_11  and  C_12
REMARK    7  A    between atoms: C_12  and  C_13
REMARK    8  A    between atoms: C_13  and  N_14
REMARK    9  A    between atoms: C_17  and  C_18
REMARK   10  A    between atoms: C_18  and  N_19
REMARK   11  A    between atoms: N_19  and  S_20
REMARK   12  A    between atoms: S_20  and  C_23
REMARK                            x       y       z     vdW  Elec       q    Type
REMARK                         _______ _______ _______ _____ _____    ______ ____
ROOT
ATOM      1  N   UNL     1       1.912   6.445  19.602  0.00  0.00    +0.000 NA
ATOM      2  C   UNL     1       2.706   6.253  18.387  0.00  0.00    +0.000 C 
ATOM      3  C   UNL     1       2.747   4.785  17.958  0.00  0.00    +0.000 C 
ATOM      4  C   UNL     1       3.247   3.853  19.070  0.00  0.00    +0.000 C 
ATOM      5  C   UNL     1       2.359   4.091  20.295  0.00  0.00    +0.000 C 
ATOM      6  C   UNL     1       2.352   5.576  20.697  0.00  0.00    +0.000 C 
ENDROOT
BRANCH   1   7
ATOM      7  C   UNL     1       1.807   7.883  19.956  0.00  0.00    +0.000 C 
BRANCH   7   8
ATOM      8  C   UNL     1       1.664   8.932  18.830  0.00  0.00    +0.000 C 
BRANCH   8   9
ATOM      9  O   UNL     1       1.161  10.174  19.348  0.00  0.00    +0.000 OA
BRANCH   9  15
ATOM     10  C   UNL     1      -0.960  11.401  19.791  0.00  0.00    +0.000 A 
ATOM     11  C   UNL     1      -2.244  11.700  19.299  0.00  0.00    +0.000 A 
ATOM     12  C   UNL     1      -2.729  11.096  18.136  0.00  0.00    +0.000 A 
ATOM     13  C   UNL     1      -1.914  10.238  17.417  0.00  0.00    +0.000 A 
ATOM     14  C   UNL     1      -0.609   9.997  17.854  0.00  0.00    +0.000 A 
ATOM     15  C   UNL     1      -0.114  10.577  19.035  0.00  0.00    +0.000 A 
BRANCH  10  16
ATOM     16  O   UNL     1      -0.512  11.898  20.984  0.00  0.00    +0.000 OA
BRANCH  16  18
ATOM     17  C   UNL     1      -1.198  13.144  22.945  0.00  0.00    +0.000 C 
ATOM     18  C   UNL     1      -1.029  13.161  21.426  0.00  0.00    +0.000 C 
ATOM     19  C   UNL     1      -0.063  14.244  20.958  0.00  0.00    +0.000 C 
ENDBRANCH  16  18
ENDBRANCH  10  16
ENDBRANCH   9  15
ENDBRANCH   8   9
ENDBRANCH   7   8
ENDBRANCH   1   7
BRANCH   4  20
ATOM     20  C   UNL     1       4.707   4.059  19.505  0.00  0.00    +0.000 C 
BRANCH  20  21
ATOM     21  N   UNL     1       5.677   3.580  18.520  0.00  0.00    +0.000 NA
ATOM     22  H   UNL     1       5.345   2.979  17.768  0.00  0.00    +0.000 HD
BRANCH  21  23
ATOM     23  S   UNL     1       6.715   4.768  17.906  0.00  0.00    +0.000 S 
ATOM     24  O   UNL     1       6.090   6.041  18.203  0.00  0.00    +0.000 OA
ATOM     25  O   UNL     1       8.065   4.467  18.323  0.00  0.00    +0.000 OA
BRANCH  23  26
ATOM     26  C   UNL     1       6.575   4.516  16.153  0.00  0.00    +0.000 A 
ATOM     27  C   UNL     1       5.495   3.760  15.675  0.00  0.00    +0.000 A 
ATOM     28  C   UNL     1       5.362   3.567  14.297  0.00  0.00    +0.000 A 
ATOM     29  C   UNL     1       6.296   4.134  13.435  0.00  0.00    +0.000 A 
ATOM     30  F   UNL     1       6.164   3.951  12.116  0.00  0.00    +0.000 F 
ATOM     31  C   UNL     1       7.361   4.886  13.918  0.00  0.00    +0.000 A 
ATOM     32  C   UNL     1       7.507   5.083  15.290  0.00  0.00    +0.000 A 
ENDBRANCH  23  26
ENDBRANCH  21  23
ENDBRANCH  20  21
ENDBRANCH   4  20
TORSDOF 10
ENDMDL
MODEL 8
REMARK VINA RESULT:      -7.2      5.675      8.277
REMARK  Name = 
REMARK  12 active torsions:
REMARK  status: ('A' for Active; 'I' for Inactive)
REMARK    1  A    between atoms: C_1  and  C_2
REMARK    2  A    between atoms: C_2  and  C_3
REMARK    3  A    between atoms: C_2  and  O_4
REMARK    4  A    between atoms: O_4  and  C_5
REMARK    5  A    between atoms: C_10  and  O_11
REMARK    6  A    between atoms: O_11  and  C_12
REMARK    7  A    between atoms: C_12  and  C_13
REMARK    8  A    between atoms: C_13  and  N_14
REMARK    9  A    between atoms: C_17  and  C_18
REMARK   10  A    between atoms: C_18  and  N_19
REMARK   11  A    between atoms: N_19  and  S_20
REMARK   12  A    between atoms: S_20  and  C_23
REMARK                            x       y       z     vdW  Elec       q    Type
REMARK                         _______ _______ _______ _____ _____    ______ ____
ROOT
ATOM      1  N   UNL     1       2.028   5.542  19.368  0.00  0.00    +0.000 NA
ATOM      2  C   UNL     1       2.216   4.890  18.072  0.00  0.00    +0.000 C 
ATOM      3  C   UNL     1       2.122   3.366  18.181  0.00  0.00    +0.000 C 
ATOM      4  C   UNL     1       3.093   2.781  19.215  0.00  0.00    +0.000 C 
ATOM      5  C   UNL     1       2.822   3.491  20.545  0.00  0.00    +0.000 C 
ATOM      6  C   UNL     1       2.936   5.017  20.393  0.00  0.00    +0.000 C 
ENDROOT
BRANCH   1   7
ATOM      7  C   UNL     1       2.034   7.021  19.233  0.00  0.00    +0.000 C 
BRANCH   7   8
ATOM      8  C   UNL     1       1.722   7.896  20.467  0.00  0.00    +0.000 C 
BRANCH   8   9
ATOM      9  O   UNL     1       1.157   9.156  20.072  0.00  0.00    +0.000 OA
BRANCH   9  15
ATOM     10  C   UNL     1      -0.152  11.147  20.796  0.00  0.00    +0.000 A 
ATOM     11  C   UNL     1      -0.953  11.693  21.816  0.00  0.00    +0.000 A 
ATOM     12  C   UNL     1      -1.144  11.014  23.022  0.00  0.00    +0.000 A 
ATOM     13  C   UNL     1      -0.594   9.755  23.197  0.00  0.00    +0.000 A 
ATOM     14  C   UNL     1       0.136   9.171  22.159  0.00  0.00    +0.000 A 
ATOM     15  C   UNL     1       0.360   9.851  20.949  0.00  0.00    +0.000 A 
BRANCH  10  16
ATOM     16  O   UNL     1       0.136  11.845  19.656  0.00  0.00    +0.000 OA
BRANCH  16  18
ATOM     17  C   UNL     1      -0.229  14.002  18.613  0.00  0.00    +0.000 C 
ATOM     18  C   UNL     1      -0.874  12.712  19.121  0.00  0.00    +0.000 C 
ATOM     19  C   UNL     1      -1.601  11.948  18.019  0.00  0.00    +0.000 C 
ENDBRANCH  16  18
ENDBRANCH  10  16
ENDBRANCH   9  15
ENDBRANCH   8   9
ENDBRANCH   7   8
ENDBRANCH   1   7
BRANCH   4  20
ATOM     20  C   UNL     1       4.587   2.946  18.892  0.00  0.00    +0.000 C 
BRANCH  20  21
ATOM     21  N   UNL     1       4.840   3.337  17.506  0.00  0.00    +0.000 NA
ATOM     22  H   UNL     1       4.041   3.468  16.888  0.00  0.00    +0.000 HD
BRANCH  21  23
ATOM     23  S   UNL     1       5.944   4.606  17.314  0.00  0.00    +0.000 S 
ATOM     24  O   UNL     1       5.191   5.828  17.511  0.00  0.00    +0.000 OA
ATOM     25  O   UNL     1       7.131   4.310  18.083  0.00  0.00    +0.000 OA
BRANCH  23  26
ATOM     26  C   UNL     1       6.329   4.507  15.583  0.00  0.00    +0.000 A 
ATOM     27  C   UNL     1       5.466   3.779  14.751  0.00  0.00    +0.000 A 
ATOM     28  C   UNL     1       5.747   3.706  13.383  0.00  0.00    +0.000 A 
ATOM     29  C   UNL     1       6.868   4.360  12.881  0.00  0.00    +0.000 A 
ATOM     30  F   UNL     1       7.132   4.292  11.570  0.00  0.00    +0.000 F 
ATOM     31  C   UNL     1       7.715   5.083  13.713  0.00  0.00    +0.000 A 
ATOM     32  C   UNL     1       7.448   5.161  15.078  0.00  0.00    +0.000 A 
ENDBRANCH  23  26
ENDBRANCH  21  23
ENDBRANCH  20  21
ENDBRANCH   4  20
TORSDOF 10
ENDMDL
MODEL 9
REMARK VINA RESULT:      -7.2      1.619      1.888
REMARK  Name = 
REMARK  12 active torsions:
REMARK  status: ('A' for Active; 'I' for Inactive)
REMARK    1  A    between atoms: C_1  and  C_2
REMARK    2  A    between atoms: C_2  and  C_3
REMARK    3  A    between atoms: C_2  and  O_4
REMARK    4  A    between atoms: O_4  and  C_5
REMARK    5  A    between atoms: C_10  and  O_11
REMARK    6  A    between atoms: O_11  and  C_12
REMARK    7  A    between atoms: C_12  and  C_13
REMARK    8  A    between atoms: C_13  and  N_14
REMARK    9  A    between atoms: C_17  and  C_18
REMARK   10  A    between atoms: C_18  and  N_19
REMARK   11  A    between atoms: N_19  and  S_20
REMARK   12  A    between atoms: S_20  and  C_23
REMARK                            x       y       z     vdW  Elec       q    Type
REMARK                         _______ _______ _______ _____ _____    ______ ____
ROOT
ATOM      1  N   UNL     1       7.158   6.911  17.010  0.00  0.00    +0.000 NA
ATOM      2  C   UNL     1       7.330   5.458  17.047  0.00  0.00    +0.000 C 
ATOM      3  C   UNL     1       6.644   4.771  15.864  0.00  0.00    +0.000 C 
ATOM      4  C   UNL     1       5.155   5.126  15.751  0.00  0.00    +0.000 C 
ATOM      5  C   UNL     1       5.055   6.654  15.693  0.00  0.00    +0.000 C 
ATOM      6  C   UNL     1       5.749   7.302  16.903  0.00  0.00    +0.000 C 
ENDROOT
BRANCH   1   7
ATOM      7  C   UNL     1       7.903   7.570  18.112  0.00  0.00    +0.000 C 
BRANCH   7   8
ATOM      8  C   UNL     1       8.250   9.072  18.000  0.00  0.00    +0.000 C 
BRANCH   8   9
ATOM      9  O   UNL     1       8.894   9.539  19.196  0.00  0.00    +0.000 OA
BRANCH   9  15
ATOM     10  C   UNL     1       9.403  11.771  20.175  0.00  0.00    +0.000 A 
ATOM     11  C   UNL     1      10.115  12.972  20.001  0.00  0.00    +0.000 A 
ATOM     12  C   UNL     1      10.827  13.224  18.825  0.00  0.00    +0.000 A 
ATOM     13  C   UNL     1      10.889  12.254  17.838  0.00  0.00    +0.000 A 
ATOM     14  C   UNL     1      10.251  11.027  18.037  0.00  0.00    +0.000 A 
ATOM     15  C   UNL     1       9.510  10.767  19.203  0.00  0.00    +0.000 A 
BRANCH  10  16
ATOM     16  O   UNL     1       8.613  11.555  21.270  0.00  0.00    +0.000 OA
BRANCH  16  18
ATOM     17  C   UNL     1       7.432  13.470  22.168  0.00  0.00    +0.000 C 
ATOM     18  C   UNL     1       8.630  12.534  22.319  0.00  0.00    +0.000 C 
ATOM     19  C   UNL     1       8.623  11.785  23.649  0.00  0.00    +0.000 C 
ENDBRANCH  16  18
ENDBRANCH  10  16
ENDBRANCH   9  15
ENDBRANCH   8   9
ENDBRANCH   7   8
ENDBRANCH   1   7
BRANCH   4  20
ATOM     20  C   UNL     1       4.266   4.644  16.909  0.00  0.00    +0.000 C 
BRANCH  20  21
ATOM     21  N   UNL     1       4.772   3.437  17.563  0.00  0.00    +0.000 NA
ATOM     22  H   UNL     1       5.564   2.956  17.141  0.00  0.00    +0.000 HD
BRANCH  21  23
ATOM     23  S   UNL     1       4.990   3.572  19.236  0.00  0.00    +0.000 S 
ATOM     24  O   UNL     1       4.813   2.239  19.774  0.00  0.00    +0.000 OA
ATOM     25  O   UNL     1       6.186   4.343  19.489  0.00  0.00    +0.000 OA
BRANCH  23  26
ATOM     26  C   UNL     1       3.569   4.521  19.722  0.00  0.00    +0.000 A 
ATOM     27  C   UNL     1       2.471   3.842  20.266  0.00  0.00    +0.000 A 
ATOM     28  C   UNL     1       1.351   4.577  20.668  0.00  0.00    +0.000 A 
ATOM     29  C   UNL     1       1.358   5.961  20.526  0.00  0.00    +0.000 A 
ATOM     30  F   UNL     1       0.287   6.663  20.917  0.00  0.00    +0.000 F 
ATOM     31  C   UNL     1       2.454   6.627  19.990  0.00  0.00    +0.000 A 
ATOM     32  C   UNL     1       3.574   5.906  19.582  0.00  0.00    +0.000 A 
ENDBRANCH  23  26
ENDBRANCH  21  23
ENDBRANCH  20  21
ENDBRANCH   4  20
TORSDOF 10
ENDMDL
