MODEL 1
REMARK VINA RESULT:      -9.5      0.000      0.000
REMARK  Name = 
REMARK  3 active torsions:
REMARK  status: ('A' for Active; 'I' for Inactive)
REMARK    1  A    between atoms: C_1  and  C_2
REMARK    2  A    between atoms: C_4  and  C_5
REMARK    3  A    between atoms: C_9  and  C_10
REMARK                            x       y       z     vdW  Elec       q    Type
REMARK                         _______ _______ _______ _____ _____    ______ ____
ROOT
ATOM      1  C   UNL     1       1.664   7.740  20.068  0.00  0.00    +0.000 A 
ATOM      2  C   UNL     1       1.636   8.790  19.146  0.00  0.00    +0.000 A 
ATOM      3  N   UNL     1       1.111  10.052  19.381  0.00  0.00    +0.000 NA
ATOM      4  C   UNL     1       0.537  10.305  20.596  0.00  0.00    +0.000 A 
ATOM      5  C   UNL     1       0.509   9.298  21.544  0.00  0.00    +0.000 A 
ATOM      6  C   UNL     1       1.079   8.049  21.278  0.00  0.00    +0.000 A 
ATOM      7  C   UNL     1       0.011   9.455  22.936  0.00  0.00    +0.000 C 
ATOM      8  C   UNL     1      -0.967  10.579  23.113  0.00  0.00    +0.000 C 
ATOM      9  C   UNL     1      -0.784  11.747  22.162  0.00  0.00    +0.000 C 
ATOM     10  N   UNL     1       0.001  11.588  20.941  0.00  0.00    +0.000 N 
ATOM     11  C   UNL     1       0.112  12.784  20.222  0.00  0.00    +0.000 C 
ATOM     12  N   UNL     1       0.766  12.719  19.027  0.00  0.00    +0.000 N 
ATOM     13  O   UNL     1      -0.346  13.849  20.601  0.00  0.00    +0.000 OA
ATOM     14  H   UNL     1       0.300  12.058  18.420  0.00  0.00    +0.000 HD
ATOM     15  H   UNL     1       1.675  12.286  19.137  0.00  0.00    +0.000 HD
ENDROOT
BRANCH   1  20
ATOM     16  C   UNL     1       4.070   5.002  18.945  0.00  0.00    +0.000 A 
ATOM     17  C   UNL     1       3.513   3.950  19.666  0.00  0.00    +0.000 A 
ATOM     18  N   UNL     1       2.448   4.060  20.505  0.00  0.00    +0.000 NA
ATOM     19  C   UNL     1       1.862   5.279  20.615  0.00  0.00    +0.000 A 
ATOM     20  C   UNL     1       2.271   6.406  19.918  0.00  0.00    +0.000 A 
ATOM     21  C   UNL     1       3.424   6.238  19.112  0.00  0.00    +0.000 A 
BRANCH  16  25
ATOM     22  C   UNL     1       6.031   4.020  14.396  0.00  0.00    +0.000 C 
ATOM     23  C   UNL     1       6.182   4.345  15.854  0.00  0.00    +0.000 A 
ATOM     24  C   UNL     1       5.068   4.526  16.670  0.00  0.00    +0.000 A 
ATOM     25  C   UNL     1       5.228   4.838  18.034  0.00  0.00    +0.000 A 
ATOM     26  C   UNL     1       6.544   4.953  18.498  0.00  0.00    +0.000 A 
ATOM     27  C   UNL     1       7.600   4.753  17.622  0.00  0.00    +0.000 A 
ATOM     28  N   UNL     1       7.448   4.454  16.316  0.00  0.00    +0.000 NA
ENDBRANCH  16  25
ENDBRANCH   1  20
TORSDOF 2
ENDMDL
MODEL 2
REMARK VINA RESULT:      -9.1      1.719      2.643
REMARK  Name = 
REMARK  3 active torsions:
REMARK  status: ('A' for Active; 'I' for Inactive)
REMARK    1  A    between atoms: C_1  and  C_2
REMARK    2  A    between atoms: C_4  and  C_5
REMARK    3  A    between atoms: C_9  and  C_10
REMARK                            x       y       z     vdW  Elec       q    Type
REMARK                         _______ _______ _______ _____ _____    ______ ____
ROOT
ATOM      1  C   UNL     1       2.028   6.796  19.465  0.00  0.00    +0.000 A 
ATOM      2  C   UNL     1       1.625   6.854  20.802  0.00  0.00    +0.000 A 
ATOM      3  N   UNL     1       1.130   7.980  21.444  0.00  0.00    +0.000 NA
ATOM      4  C   UNL     1       1.051   9.150  20.743  0.00  0.00    +0.000 A 
ATOM      5  C   UNL     1       1.459   9.166  19.422  0.00  0.00    +0.000 A 
ATOM      6  C   UNL     1       1.922   8.001  18.801  0.00  0.00    +0.000 A 
ATOM      7  C   UNL     1       1.339  10.334  18.509  0.00  0.00    +0.000 C 
ATOM      8  C   UNL     1       1.274  11.657  19.213  0.00  0.00    +0.000 C 
ATOM      9  C   UNL     1       0.652  11.619  20.596  0.00  0.00    +0.000 C 
ATOM     10  N   UNL     1       0.521  10.353  21.312  0.00  0.00    +0.000 N 
ATOM     11  C   UNL     1      -0.131  10.504  22.543  0.00  0.00    +0.000 C 
ATOM     12  N   UNL     1      -0.234   9.387  23.319  0.00  0.00    +0.000 N 
ATOM     13  O   UNL     1      -0.586  11.561  22.944  0.00  0.00    +0.000 OA
ATOM     14  H   UNL     1       0.689   9.026  23.521  0.00  0.00    +0.000 HD
ATOM     15  H   UNL     1      -0.640   8.621  22.794  0.00  0.00    +0.000 HD
ENDROOT
BRANCH   1  20
ATOM     16  C   UNL     1       4.133   4.652  17.115  0.00  0.00    +0.000 A 
ATOM     17  C   UNL     1       3.456   3.449  17.298  0.00  0.00    +0.000 A 
ATOM     18  N   UNL     1       2.402   3.268  18.137  0.00  0.00    +0.000 NA
ATOM     19  C   UNL     1       1.951   4.354  18.816  0.00  0.00    +0.000 A 
ATOM     20  C   UNL     1       2.487   5.627  18.697  0.00  0.00    +0.000 A 
ATOM     21  C   UNL     1       3.623   5.731  17.857  0.00  0.00    +0.000 A 
BRANCH  16  25
ATOM     22  C   UNL     1       6.422   3.724  12.711  0.00  0.00    +0.000 C 
ATOM     23  C   UNL     1       6.394   4.348  14.076  0.00  0.00    +0.000 A 
ATOM     24  C   UNL     1       5.287   4.208  14.909  0.00  0.00    +0.000 A 
ATOM     25  C   UNL     1       5.275   4.808  16.184  0.00  0.00    +0.000 A 
ATOM     26  C   UNL     1       6.417   5.534  16.543  0.00  0.00    +0.000 A 
ATOM     27  C   UNL     1       7.480   5.623  15.658  0.00  0.00    +0.000 A 
ATOM     28  N   UNL     1       7.492   5.049  14.437  0.00  0.00    +0.000 NA
ENDBRANCH  16  25
ENDBRANCH   1  20
TORSDOF 2
ENDMDL
MODEL 3
REMARK VINA RESULT:      -8.9      1.693      2.863
REMARK  Name = 
REMARK  3 active torsions:
REMARK  status: ('A' for Active; 'I' for Inactive)
REMARK    1  A    between atoms: C_1  and  C_2
REMARK    2  A    between atoms: C_4  and  C_5
REMARK    3  A    between atoms: C_9  and  C_10
REMARK                            x       y       z     vdW  Elec       q    Type
REMARK                         _______ _______ _______ _____ _____    ______ ____
ROOT
ATOM      1  C   UNL     1       3.256   7.069  18.344  0.00  0.00    +0.000 A 
ATOM      2  C   UNL     1       2.995   8.232  17.612  0.00  0.00    +0.000 A 
ATOM      3  N   UNL     1       2.141   9.253  18.004  0.00  0.00    +0.000 NA
ATOM      4  C   UNL     1       1.461   9.120  19.182  0.00  0.00    +0.000 A 
ATOM      5  C   UNL     1       1.656   7.980  19.940  0.00  0.00    +0.000 A 
ATOM      6  C   UNL     1       2.551   6.988  19.526  0.00  0.00    +0.000 A 
ATOM      7  C   UNL     1       1.065   7.742  21.285  0.00  0.00    +0.000 C 
ATOM      8  C   UNL     1      -0.185   8.527  21.551  0.00  0.00    +0.000 C 
ATOM      9  C   UNL     1      -0.273   9.860  20.831  0.00  0.00    +0.000 C 
ATOM     10  N   UNL     1       0.586  10.137  19.683  0.00  0.00    +0.000 N 
ATOM     11  C   UNL     1       0.409  11.435  19.189  0.00  0.00    +0.000 C 
ATOM     12  N   UNL     1       1.115  11.763  18.069  0.00  0.00    +0.000 N 
ATOM     13  O   UNL     1      -0.334  12.258  19.694  0.00  0.00    +0.000 OA
ATOM     14  H   UNL     1       0.874  11.130  17.317  0.00  0.00    +0.000 HD
ATOM     15  H   UNL     1       2.100  11.561  18.193  0.00  0.00    +0.000 HD
ENDROOT
BRANCH   1  20
ATOM     16  C   UNL     1       5.626   4.843  16.351  0.00  0.00    +0.000 A 
ATOM     17  C   UNL     1       6.052   4.031  17.399  0.00  0.00    +0.000 A 
ATOM     18  N   UNL     1       5.661   4.164  18.695  0.00  0.00    +0.000 NA
ATOM     19  C   UNL     1       4.757   5.137  18.978  0.00  0.00    +0.000 A 
ATOM     20  C   UNL     1       4.203   5.986  18.032  0.00  0.00    +0.000 A 
ATOM     21  C   UNL     1       4.702   5.836  16.715  0.00  0.00    +0.000 A 
BRANCH  16  25
ATOM     22  C   UNL     1       5.001   2.952  11.710  0.00  0.00    +0.000 C 
ATOM     23  C   UNL     1       5.791   3.734  12.720  0.00  0.00    +0.000 A 
ATOM     24  C   UNL     1       5.322   3.915  14.018  0.00  0.00    +0.000 A 
ATOM     25  C   UNL     1       6.072   4.659  14.950  0.00  0.00    +0.000 A 
ATOM     26  C   UNL     1       7.284   5.190  14.493  0.00  0.00    +0.000 A 
ATOM     27  C   UNL     1       7.683   4.962  13.185  0.00  0.00    +0.000 A 
ATOM     28  N   UNL     1       6.966   4.250  12.293  0.00  0.00    +0.000 NA
ENDBRANCH  16  25
ENDBRANCH   1  20
TORSDOF 2
ENDMDL
MODEL 4
REMARK VINA RESULT:      -8.8      1.041      2.067
REMARK  Name = 
REMARK  3 active torsions:
REMARK  status: ('A' for Active; 'I' for Inactive)
REMARK    1  A    between atoms: C_1  and  C_2
REMARK    2  A    between atoms: C_4  and  C_5
REMARK    3  A    between atoms: C_9  and  C_10
REMARK                            x       y       z     vdW  Elec       q    Type
REMARK                         _______ _______ _______ _____ _____    ______ ____
ROOT
ATOM      1  C   UNL     1       1.711   7.407  20.323  0.00  0.00    +0.000 A 
ATOM      2  C   UNL     1       1.122   7.796  21.530  0.00  0.00    +0.000 A 
ATOM      3  N   UNL     1       0.586   9.048  21.795  0.00  0.00    +0.000 NA
ATOM      4  C   UNL     1       0.655  10.008  20.825  0.00  0.00    +0.000 A 
ATOM      5  C   UNL     1       1.250   9.694  19.616  0.00  0.00    +0.000 A 
ATOM      6  C   UNL     1       1.750   8.410  19.377  0.00  0.00    +0.000 A 
ATOM      7  C   UNL     1       1.309  10.599  18.437  0.00  0.00    +0.000 C 
ATOM      8  C   UNL     1       1.197  12.055  18.778  0.00  0.00    +0.000 C 
ATOM      9  C   UNL     1       0.381  12.365  20.020  0.00  0.00    +0.000 C 
ATOM     10  N   UNL     1       0.097  11.316  20.996  0.00  0.00    +0.000 N 
ATOM     11  C   UNL     1      -0.718  11.770  22.040  0.00  0.00    +0.000 C 
ATOM     12  N   UNL     1      -0.977  10.881  23.042  0.00  0.00    +0.000 N 
ATOM     13  O   UNL     1      -1.183  12.895  22.098  0.00  0.00    +0.000 OA
ATOM     14  H   UNL     1      -0.108  10.579  23.462  0.00  0.00    +0.000 HD
ATOM     15  H   UNL     1      -1.333  10.010  22.667  0.00  0.00    +0.000 HD
ENDROOT
BRANCH   1  20
ATOM     16  C   UNL     1       3.967   4.749  18.778  0.00  0.00    +0.000 A 
ATOM     17  C   UNL     1       3.305   3.627  19.269  0.00  0.00    +0.000 A 
ATOM     18  N   UNL     1       2.214   3.661  20.080  0.00  0.00    +0.000 NA
ATOM     19  C   UNL     1       1.710   4.880  20.400  0.00  0.00    +0.000 A 
ATOM     20  C   UNL     1       2.229   6.082  19.943  0.00  0.00    +0.000 A 
ATOM     21  C   UNL     1       3.402   5.978  19.156  0.00  0.00    +0.000 A 
BRANCH  16  25
ATOM     22  C   UNL     1       6.070   3.996  14.248  0.00  0.00    +0.000 C 
ATOM     23  C   UNL     1       6.173   4.285  15.718  0.00  0.00    +0.000 A 
ATOM     24  C   UNL     1       5.035   4.388  16.514  0.00  0.00    +0.000 A 
ATOM     25  C   UNL     1       5.151   4.668  17.889  0.00  0.00    +0.000 A 
ATOM     26  C   UNL     1       6.450   4.833  18.386  0.00  0.00    +0.000 A 
ATOM     27  C   UNL     1       7.532   4.711  17.528  0.00  0.00    +0.000 A 
ATOM     28  N   UNL     1       7.422   4.442  16.211  0.00  0.00    +0.000 NA
ENDBRANCH  16  25
ENDBRANCH   1  20
TORSDOF 2
ENDMDL
MODEL 5
REMARK VINA RESULT:      -8.8      4.066      8.598
REMARK  Name = 
REMARK  3 active torsions:
REMARK  status: ('A' for Active; 'I' for Inactive)
REMARK    1  A    between atoms: C_1  and  C_2
REMARK    2  A    between atoms: C_4  and  C_5
REMARK    3  A    between atoms: C_9  and  C_10
REMARK                            x       y       z     vdW  Elec       q    Type
REMARK                         _______ _______ _______ _____ _____    ______ ____
ROOT
ATOM      1  C   UNL     1       2.155   8.272  18.677  0.00  0.00    +0.000 A 
ATOM      2  C   UNL     1       3.055   8.397  17.614  0.00  0.00    +0.000 A 
ATOM      3  N   UNL     1       3.932   7.413  17.183  0.00  0.00    +0.000 NA
ATOM      4  C   UNL     1       3.963   6.224  17.857  0.00  0.00    +0.000 A 
ATOM      5  C   UNL     1       3.115   6.046  18.936  0.00  0.00    +0.000 A 
ATOM      6  C   UNL     1       2.222   7.052  19.318  0.00  0.00    +0.000 A 
ATOM      7  C   UNL     1       2.966   4.779  19.700  0.00  0.00    +0.000 C 
ATOM      8  C   UNL     1       4.158   3.872  19.619  0.00  0.00    +0.000 C 
ATOM      9  C   UNL     1       4.959   3.976  18.335  0.00  0.00    +0.000 C 
ATOM     10  N   UNL     1       4.810   5.138  17.464  0.00  0.00    +0.000 N 
ATOM     11  C   UNL     1       5.579   5.031  16.298  0.00  0.00    +0.000 C 
ATOM     12  N   UNL     1       5.563   6.103  15.456  0.00  0.00    +0.000 N 
ATOM     13  O   UNL     1       6.251   4.054  16.017  0.00  0.00    +0.000 OA
ATOM     14  H   UNL     1       5.890   6.925  15.945  0.00  0.00    +0.000 HD
ATOM     15  H   UNL     1       4.611   6.369  15.230  0.00  0.00    +0.000 HD
ENDROOT
BRANCH   1  20
ATOM     16  C   UNL     1      -1.031  10.366  18.754  0.00  0.00    +0.000 A 
ATOM     17  C   UNL     1      -0.833  10.970  19.993  0.00  0.00    +0.000 A 
ATOM     18  N   UNL     1       0.225  10.732  20.814  0.00  0.00    +0.000 NA
ATOM     19  C   UNL     1       1.178   9.872  20.372  0.00  0.00    +0.000 A 
ATOM     20  C   UNL     1       1.145   9.238  19.140  0.00  0.00    +0.000 A 
ATOM     21  C   UNL     1      -0.014   9.479  18.362  0.00  0.00    +0.000 A 
BRANCH  16  25
ATOM     22  C   UNL     1      -3.426  10.122  14.314  0.00  0.00    +0.000 C 
ATOM     23  C   UNL     1      -3.346  10.566  15.746  0.00  0.00    +0.000 A 
ATOM     24  C   UNL     1      -2.249  10.241  16.541  0.00  0.00    +0.000 A 
ATOM     25  C   UNL     1      -2.195  10.659  17.885  0.00  0.00    +0.000 A 
ATOM     26  C   UNL     1      -3.288  11.400  18.353  0.00  0.00    +0.000 A 
ATOM     27  C   UNL     1      -4.340  11.686  17.497  0.00  0.00    +0.000 A 
ATOM     28  N   UNL     1      -4.392  11.286  16.210  0.00  0.00    +0.000 NA
ENDBRANCH  16  25
ENDBRANCH   1  20
TORSDOF 2
ENDMDL
MODEL 6
REMARK VINA RESULT:      -8.5      4.046      8.808
REMARK  Name = 
REMARK  3 active torsions:
REMARK  status: ('A' for Active; 'I' for Inactive)
REMARK    1  A    between atoms: C_1  and  C_2
REMARK    2  A    between atoms: C_4  and  C_5
REMARK    3  A    between atoms: C_9  and  C_10
REMARK                            x       y       z     vdW  Elec       q    Type
REMARK                         _______ _______ _______ _____ _____    ______ ____
ROOT
ATOM      1  C   UNL     1       2.124   8.280  18.653  0.00  0.00    +0.000 A 
ATOM      2  C   UNL     1       3.043   8.400  17.606  0.00  0.00    +0.000 A 
ATOM      3  N   UNL     1       3.931   7.415  17.199  0.00  0.00    +0.000 NA
ATOM      4  C   UNL     1       3.952   6.231  17.882  0.00  0.00    +0.000 A 
ATOM      5  C   UNL     1       3.084   6.059  18.945  0.00  0.00    +0.000 A 
ATOM      6  C   UNL     1       2.182   7.065  19.304  0.00  0.00    +0.000 A 
ATOM      7  C   UNL     1       2.924   4.796  19.715  0.00  0.00    +0.000 C 
ATOM      8  C   UNL     1       4.120   3.892  19.663  0.00  0.00    +0.000 C 
ATOM      9  C   UNL     1       4.945   3.989  18.394  0.00  0.00    +0.000 C 
ATOM     10  N   UNL     1       4.809   5.145  17.511  0.00  0.00    +0.000 N 
ATOM     11  C   UNL     1       5.600   5.032  16.362  0.00  0.00    +0.000 C 
ATOM     12  N   UNL     1       5.597   6.098  15.512  0.00  0.00    +0.000 N 
ATOM     13  O   UNL     1       6.280   4.055  16.100  0.00  0.00    +0.000 OA
ATOM     14  H   UNL     1       5.913   6.925  16.001  0.00  0.00    +0.000 HD
ATOM     15  H   UNL     1       4.649   6.360  15.266  0.00  0.00    +0.000 HD
ENDROOT
BRANCH   1  20
ATOM     16  C   UNL     1      -1.063  10.374  18.650  0.00  0.00    +0.000 A 
ATOM     17  C   UNL     1      -0.896  10.979  19.893  0.00  0.00    +0.000 A 
ATOM     18  N   UNL     1       0.142  10.742  20.740  0.00  0.00    +0.000 NA
ATOM     19  C   UNL     1       1.105   9.882  20.323  0.00  0.00    +0.000 A 
ATOM     20  C   UNL     1       1.103   9.246  19.090  0.00  0.00    +0.000 A 
ATOM     21  C   UNL     1      -0.037   9.486  18.285  0.00  0.00    +0.000 A 
BRANCH  16  25
ATOM     22  C   UNL     1      -5.640  12.327  17.791  0.00  0.00    +0.000 C 
ATOM     23  C   UNL     1      -4.418  11.583  17.336  0.00  0.00    +0.000 A 
ATOM     24  C   UNL     1      -3.349  11.359  18.200  0.00  0.00    +0.000 A 
ATOM     25  C   UNL     1      -2.206  10.666  17.753  0.00  0.00    +0.000 A 
ATOM     26  C   UNL     1      -2.220  10.233  16.422  0.00  0.00    +0.000 A 
ATOM     27  C   UNL     1      -3.326  10.493  15.627  0.00  0.00    +0.000 A 
ATOM     28  N   UNL     1      -4.420  11.156  16.054  0.00  0.00    +0.000 NA
ENDBRANCH  16  25
ENDBRANCH   1  20
TORSDOF 2
ENDMDL
MODEL 7
REMARK VINA RESULT:      -8.4      3.578      8.879
REMARK  Name = 
REMARK  3 active torsions:
REMARK  status: ('A' for Active; 'I' for Inactive)
REMARK    1  A    between atoms: C_1  and  C_2
REMARK    2  A    between atoms: C_4  and  C_5
REMARK    3  A    between atoms: C_9  and  C_10
REMARK                            x       y       z     vdW  Elec       q    Type
REMARK                         _______ _______ _______ _____ _____    ______ ____
ROOT
ATOM      1  C   UNL     1       2.353   7.141  18.894  0.00  0.00    +0.000 A 
ATOM      2  C   UNL     1       3.207   6.476  18.009  0.00  0.00    +0.000 A 
ATOM      3  N   UNL     1       3.529   5.128  18.063  0.00  0.00    +0.000 NA
ATOM      4  C   UNL     1       3.007   4.372  19.075  0.00  0.00    +0.000 A 
ATOM      5  C   UNL     1       2.174   4.977  19.999  0.00  0.00    +0.000 A 
ATOM      6  C   UNL     1       1.849   6.332  19.890  0.00  0.00    +0.000 A 
ATOM      7  C   UNL     1       1.456   4.265  21.090  0.00  0.00    +0.000 C 
ATOM      8  C   UNL     1       2.093   2.970  21.498  0.00  0.00    +0.000 C 
ATOM      9  C   UNL     1       2.850   2.250  20.398  0.00  0.00    +0.000 C 
ATOM     10  N   UNL     1       3.254   2.965  19.191  0.00  0.00    +0.000 N 
ATOM     11  C   UNL     1       3.885   2.128  18.263  0.00  0.00    +0.000 C 
ATOM     12  N   UNL     1       4.366   2.721  17.133  0.00  0.00    +0.000 N 
ATOM     13  O   UNL     1       4.029   0.927  18.421  0.00  0.00    +0.000 OA
ATOM     14  H   UNL     1       5.038   3.435  17.383  0.00  0.00    +0.000 HD
ATOM     15  H   UNL     1       3.646   3.272  16.682  0.00  0.00    +0.000 HD
ENDROOT
BRANCH   1  20
ATOM     16  C   UNL     1       0.629  10.384  19.921  0.00  0.00    +0.000 A 
ATOM     17  C   UNL     1       1.103  11.188  18.888  0.00  0.00    +0.000 A 
ATOM     18  N   UNL     1       1.954  10.777  17.910  0.00  0.00    +0.000 NA
ATOM     19  C   UNL     1       2.337   9.475  17.922  0.00  0.00    +0.000 A 
ATOM     20  C   UNL     1       1.906   8.543  18.853  0.00  0.00    +0.000 A 
ATOM     21  C   UNL     1       1.073   9.051  19.881  0.00  0.00    +0.000 A 
BRANCH  16  25
ATOM     22  C   UNL     1      -2.942  13.564  21.545  0.00  0.00    +0.000 C 
ATOM     23  C   UNL     1      -2.007  12.410  21.763  0.00  0.00    +0.000 A 
ATOM     24  C   UNL     1      -1.169  11.960  20.745  0.00  0.00    +0.000 A 
ATOM     25  C   UNL     1      -0.305  10.870  20.965  0.00  0.00    +0.000 A 
ATOM     26  C   UNL     1      -0.347  10.286  22.237  0.00  0.00    +0.000 A 
ATOM     27  C   UNL     1      -1.207  10.795  23.197  0.00  0.00    +0.000 A 
ATOM     28  N   UNL     1      -2.035  11.839  22.988  0.00  0.00    +0.000 NA
ENDBRANCH  16  25
ENDBRANCH   1  20
TORSDOF 2
ENDMDL
MODEL 8
REMARK VINA RESULT:      -8.3      2.106      3.477
REMARK  Name = 
REMARK  3 active torsions:
REMARK  status: ('A' for Active; 'I' for Inactive)
REMARK    1  A    between atoms: C_1  and  C_2
REMARK    2  A    between atoms: C_4  and  C_5
REMARK    3  A    between atoms: C_9  and  C_10
REMARK                            x       y       z     vdW  Elec       q    Type
REMARK                         _______ _______ _______ _____ _____    ______ ____
ROOT
ATOM      1  C   UNL     1       1.300   9.161  19.160  0.00  0.00    +0.000 A 
ATOM      2  C   UNL     1       0.637  10.165  18.448  0.00  0.00    +0.000 A 
ATOM      3  N   UNL     1      -0.209  11.117  18.999  0.00  0.00    +0.000 NA
ATOM      4  C   UNL     1      -0.457  11.071  20.342  0.00  0.00    +0.000 A 
ATOM      5  C   UNL     1       0.149  10.084  21.100  0.00  0.00    +0.000 A 
ATOM      6  C   UNL     1       1.021   9.163  20.511  0.00  0.00    +0.000 A 
ATOM      7  C   UNL     1       0.054   9.970  22.580  0.00  0.00    +0.000 C 
ATOM      8  C   UNL     1      -1.163  10.623  23.166  0.00  0.00    +0.000 C 
ATOM      9  C   UNL     1      -1.689  11.817  22.392  0.00  0.00    +0.000 C 
ATOM     10  N   UNL     1      -1.288  12.032  21.005  0.00  0.00    +0.000 N 
ATOM     11  C   UNL     1      -1.820  13.213  20.474  0.00  0.00    +0.000 C 
ATOM     12  N   UNL     1      -1.562  13.462  19.159  0.00  0.00    +0.000 N 
ATOM     13  O   UNL     1      -2.495  14.000  21.115  0.00  0.00    +0.000 OA
ATOM     14  H   UNL     1      -1.918  12.703  18.592  0.00  0.00    +0.000 HD
ATOM     15  H   UNL     1      -0.568  13.405  18.970  0.00  0.00    +0.000 HD
ENDROOT
BRANCH   1  20
ATOM     16  C   UNL     1       3.215   5.882  18.806  0.00  0.00    +0.000 A 
ATOM     17  C   UNL     1       3.998   6.235  17.710  0.00  0.00    +0.000 A 
ATOM     18  N   UNL     1       3.935   7.429  17.062  0.00  0.00    +0.000 NA
ATOM     19  C   UNL     1       3.072   8.359  17.545  0.00  0.00    +0.000 A 
ATOM     20  C   UNL     1       2.268   8.171  18.659  0.00  0.00    +0.000 A 
ATOM     21  C   UNL     1       2.335   6.885  19.248  0.00  0.00    +0.000 A 
BRANCH  16  25
ATOM     22  C   UNL     1       1.467   2.406  22.026  0.00  0.00    +0.000 C 
ATOM     23  C   UNL     1       2.498   2.903  21.054  0.00  0.00    +0.000 A 
ATOM     24  C   UNL     1       2.346   4.125  20.405  0.00  0.00    +0.000 A 
ATOM     25  C   UNL     1       3.320   4.572  19.490  0.00  0.00    +0.000 A 
ATOM     26  C   UNL     1       4.417   3.726  19.283  0.00  0.00    +0.000 A 
ATOM     27  C   UNL     1       4.496   2.525  19.972  0.00  0.00    +0.000 A 
ATOM     28  N   UNL     1       3.565   2.097  20.848  0.00  0.00    +0.000 NA
ENDBRANCH  16  25
ENDBRANCH   1  20
TORSDOF 2
ENDMDL
MODEL 9
REMARK VINA RESULT:      -8.2      4.060      8.901
REMARK  Name = 
REMARK  3 active torsions:
REMARK  status: ('A' for Active; 'I' for Inactive)
REMARK    1  A    between atoms: C_1  and  C_2
REMARK    2  A    between atoms: C_4  and  C_5
REMARK    3  A    between atoms: C_9  and  C_10
REMARK                            x       y       z     vdW  Elec       q    Type
REMARK                         _______ _______ _______ _____ _____    ______ ____
ROOT
ATOM      1  C   UNL     1       1.925   8.204  18.729  0.00  0.00    +0.000 A 
ATOM      2  C   UNL     1       1.728   7.140  19.614  0.00  0.00    +0.000 A 
ATOM      3  N   UNL     1       2.454   5.957  19.623  0.00  0.00    +0.000 NA
ATOM      4  C   UNL     1       3.426   5.780  18.679  0.00  0.00    +0.000 A 
ATOM      5  C   UNL     1       3.654   6.787  17.757  0.00  0.00    +0.000 A 
ATOM      6  C   UNL     1       2.921   7.978  17.802  0.00  0.00    +0.000 A 
ATOM      7  C   UNL     1       4.739   6.779  16.740  0.00  0.00    +0.000 C 
ATOM      8  C   UNL     1       5.229   5.408  16.379  0.00  0.00    +0.000 C 
ATOM      9  C   UNL     1       5.123   4.375  17.486  0.00  0.00    +0.000 C 
ATOM     10  N   UNL     1       4.250   4.609  18.632  0.00  0.00    +0.000 N 
ATOM     11  C   UNL     1       4.328   3.580  19.579  0.00  0.00    +0.000 C 
ATOM     12  N   UNL     1       3.492   3.672  20.652  0.00  0.00    +0.000 N 
ATOM     13  O   UNL     1       5.083   2.627  19.484  0.00  0.00    +0.000 OA
ATOM     14  H   UNL     1       2.532   3.701  20.333  0.00  0.00    +0.000 HD
ATOM     15  H   UNL     1       3.581   4.576  21.101  0.00  0.00    +0.000 HD
ENDROOT
BRANCH   1  20
ATOM     16  C   UNL     1      -0.772  10.838  18.155  0.00  0.00    +0.000 A 
ATOM     17  C   UNL     1      -0.105  11.921  18.721  0.00  0.00    +0.000 A 
ATOM     18  N   UNL     1       1.125  11.862  19.298  0.00  0.00    +0.000 NA
ATOM     19  C   UNL     1       1.766  10.665  19.283  0.00  0.00    +0.000 A 
ATOM     20  C   UNL     1       1.252   9.513  18.708  0.00  0.00    +0.000 A 
ATOM     21  C   UNL     1      -0.059   9.628  18.183  0.00  0.00    +0.000 A 
BRANCH  16  25
ATOM     22  C   UNL     1      -3.914  10.169  14.258  0.00  0.00    +0.000 C 
ATOM     23  C   UNL     1      -3.625  10.650  15.651  0.00  0.00    +0.000 A 
ATOM     24  C   UNL     1      -2.362  10.498  16.218  0.00  0.00    +0.000 A 
ATOM     25  C   UNL     1      -2.111  10.947  17.529  0.00  0.00    +0.000 A 
ATOM     26  C   UNL     1      -3.187  11.537  18.203  0.00  0.00    +0.000 A 
ATOM     27  C   UNL     1      -4.414  11.654  17.567  0.00  0.00    +0.000 A 
ATOM     28  N   UNL     1      -4.654  11.225  16.312  0.00  0.00    +0.000 NA
ENDBRANCH  16  25
ENDBRANCH   1  20
TORSDOF 2
ENDMDL
