MODEL 1
REMARK VINA RESULT:      -4.4      0.000      0.000
REMARK  Name = 
REMARK  5 active torsions:
REMARK  status: ('A' for Active; 'I' for Inactive)
REMARK    1  A    between atoms: C_1  and  N_2
REMARK    2  A    between atoms: N_2  and  C_3
REMARK    3  A    between atoms: N_2  and  C_4
REMARK    4  A    between atoms: C_4  and  C_5
REMARK    5  A    between atoms: C_5  and  C_6
REMARK                            x       y       z     vdW  Elec       q    Type
REMARK                         _______ _______ _______ _____ _____    ______ ____
ROOT
ATOM      1  C   UNL     1       5.579   4.266  17.051  0.00  0.00    +0.000 A 
ATOM      2  C   UNL     1       6.332   4.617  15.951  0.00  0.00    +0.000 A 
ATOM      3  N   UNL     1       7.611   4.795  16.337  0.00  0.00    +0.000 NA
ATOM      4  C   UNL     1       7.610   4.544  17.664  0.00  0.00    +0.000 A 
ATOM      5  N   UNL     1       6.386   4.222  18.123  0.00  0.00    +0.000 N 
ATOM      6  H   UNL     1       6.127   3.982  19.106  0.00  0.00    +0.000 HD
ENDROOT
BRANCH   1   7
ATOM      7  C   UNL     1       4.110   3.970  17.066  0.00  0.00    +0.000 C 
BRANCH   7   8
ATOM      8  C   UNL     1       3.733   2.998  18.199  0.00  0.00    +0.000 C 
BRANCH   8  10
ATOM      9  C   UNL     1       2.976   4.869  19.605  0.00  0.00    +0.000 C 
ATOM     10  N   UNL     1       3.771   3.628  19.541  0.00  0.00    +0.000 NA
ATOM     11  C   UNL     1       3.259   2.679  20.543  0.00  0.00    +0.000 C 
ENDBRANCH   8  10
ENDBRANCH   7   8
ENDBRANCH   1   7
TORSDOF 3
ENDMDL
MODEL 2
REMARK VINA RESULT:      -4.3      1.454      2.068
REMARK  Name = 
REMARK  5 active torsions:
REMARK  status: ('A' for Active; 'I' for Inactive)
REMARK    1  A    between atoms: C_1  and  N_2
REMARK    2  A    between atoms: N_2  and  C_3
REMARK    3  A    between atoms: N_2  and  C_4
REMARK    4  A    between atoms: C_4  and  C_5
REMARK    5  A    between atoms: C_5  and  C_6
REMARK                            x       y       z     vdW  Elec       q    Type
REMARK                         _______ _______ _______ _____ _____    ______ ____
ROOT
ATOM      1  C   UNL     1       6.256   5.042  17.761  0.00  0.00    +0.000 A 
ATOM      2  C   UNL     1       6.858   6.162  17.230  0.00  0.00    +0.000 A 
ATOM      3  N   UNL     1       7.353   5.856  16.014  0.00  0.00    +0.000 NA
ATOM      4  C   UNL     1       7.038   4.556  15.830  0.00  0.00    +0.000 A 
ATOM      5  N   UNL     1       6.372   4.037  16.879  0.00  0.00    +0.000 N 
ATOM      6  H   UNL     1       6.017   3.060  16.975  0.00  0.00    +0.000 HD
ENDROOT
BRANCH   1   7
ATOM      7  C   UNL     1       5.572   4.946  19.092  0.00  0.00    +0.000 C 
BRANCH   7   8
ATOM      8  C   UNL     1       4.758   3.646  19.225  0.00  0.00    +0.000 C 
BRANCH   8  10
ATOM      9  C   UNL     1       3.337   2.053  18.003  0.00  0.00    +0.000 C 
ATOM     10  N   UNL     1       3.786   3.452  18.122  0.00  0.00    +0.000 NA
ATOM     11  C   UNL     1       2.614   4.315  18.343  0.00  0.00    +0.000 C 
ENDBRANCH   8  10
ENDBRANCH   7   8
ENDBRANCH   1   7
TORSDOF 3
ENDMDL
MODEL 3
REMARK VINA RESULT:      -4.3      0.915      1.419
REMARK  Name = 
REMARK  5 active torsions:
REMARK  status: ('A' for Active; 'I' for Inactive)
REMARK    1  A    between atoms: C_1  and  N_2
REMARK    2  A    between atoms: N_2  and  C_3
REMARK    3  A    between atoms: N_2  and  C_4
REMARK    4  A    between atoms: C_4  and  C_5
REMARK    5  A    between atoms: C_5  and  C_6
REMARK                            x       y       z     vdW  Elec       q    Type
REMARK                         _______ _______ _______ _____ _____    ______ ____
ROOT
ATOM      1  C   UNL     1       5.628   4.733  17.344  0.00  0.00    +0.000 A 
ATOM      2  C   UNL     1       6.390   4.547  16.211  0.00  0.00    +0.000 A 
ATOM      3  N   UNL     1       7.687   4.456  16.567  0.00  0.00    +0.000 NA
ATOM      4  C   UNL     1       7.686   4.587  17.911  0.00  0.00    +0.000 A 
ATOM      5  N   UNL     1       6.446   4.758  18.408  0.00  0.00    +0.000 N 
ATOM      6  H   UNL     1       6.183   4.877  19.411  0.00  0.00    +0.000 HD
ENDROOT
BRANCH   1   7
ATOM      7  C   UNL     1       4.137   4.876  17.400  0.00  0.00    +0.000 C 
BRANCH   7   8
ATOM      8  C   UNL     1       3.526   4.061  18.555  0.00  0.00    +0.000 C 
BRANCH   8  10
ATOM      9  C   UNL     1       4.372   2.390  20.149  0.00  0.00    +0.000 C 
ATOM     10  N   UNL     1       4.163   2.733  18.730  0.00  0.00    +0.000 NA
ATOM     11  C   UNL     1       3.322   1.699  18.106  0.00  0.00    +0.000 C 
ENDBRANCH   8  10
ENDBRANCH   7   8
ENDBRANCH   1   7
TORSDOF 3
ENDMDL
MODEL 4
REMARK VINA RESULT:      -4.3      1.857      2.167
REMARK  Name = 
REMARK  5 active torsions:
REMARK  status: ('A' for Active; 'I' for Inactive)
REMARK    1  A    between atoms: C_1  and  N_2
REMARK    2  A    between atoms: N_2  and  C_3
REMARK    3  A    between atoms: N_2  and  C_4
REMARK    4  A    between atoms: C_4  and  C_5
REMARK    5  A    between atoms: C_5  and  C_6
REMARK                            x       y       z     vdW  Elec       q    Type
REMARK                         _______ _______ _______ _____ _____    ______ ____
ROOT
ATOM      1  C   UNL     1       4.051   3.295  18.092  0.00  0.00    +0.000 A 
ATOM      2  C   UNL     1       4.094   4.445  17.334  0.00  0.00    +0.000 A 
ATOM      3  N   UNL     1       5.119   5.210  17.758  0.00  0.00    +0.000 NA
ATOM      4  C   UNL     1       5.681   4.506  18.765  0.00  0.00    +0.000 A 
ATOM      5  N   UNL     1       5.049   3.339  18.988  0.00  0.00    +0.000 N 
ATOM      6  H   UNL     1       5.294   2.620  19.705  0.00  0.00    +0.000 HD
ENDROOT
BRANCH   1   7
ATOM      7  C   UNL     1       3.071   2.170  17.947  0.00  0.00    +0.000 C 
BRANCH   7   8
ATOM      8  C   UNL     1       2.222   1.984  19.218  0.00  0.00    +0.000 C 
BRANCH   8  10
ATOM      9  C   UNL     1       0.965   3.920  20.065  0.00  0.00    +0.000 C 
ATOM     10  N   UNL     1       2.234   3.171  20.106  0.00  0.00    +0.000 NA
ATOM     11  C   UNL     1       2.497   2.747  21.491  0.00  0.00    +0.000 C 
ENDBRANCH   8  10
ENDBRANCH   7   8
ENDBRANCH   1   7
TORSDOF 3
ENDMDL
MODEL 5
REMARK VINA RESULT:      -4.2      0.946      1.282
REMARK  Name = 
REMARK  5 active torsions:
REMARK  status: ('A' for Active; 'I' for Inactive)
REMARK    1  A    between atoms: C_1  and  N_2
REMARK    2  A    between atoms: N_2  and  C_3
REMARK    3  A    between atoms: N_2  and  C_4
REMARK    4  A    between atoms: C_4  and  C_5
REMARK    5  A    between atoms: C_5  and  C_6
REMARK                            x       y       z     vdW  Elec       q    Type
REMARK                         _______ _______ _______ _____ _____    ______ ____
ROOT
ATOM      1  C   UNL     1       5.614   4.146  17.098  0.00  0.00    +0.000 A 
ATOM      2  C   UNL     1       6.312   4.573  15.990  0.00  0.00    +0.000 A 
ATOM      3  N   UNL     1       7.571   4.880  16.359  0.00  0.00    +0.000 NA
ATOM      4  C   UNL     1       7.614   4.629  17.685  0.00  0.00    +0.000 A 
ATOM      5  N   UNL     1       6.435   4.184  18.159  0.00  0.00    +0.000 N 
ATOM      6  H   UNL     1       6.215   3.918  19.145  0.00  0.00    +0.000 HD
ENDROOT
BRANCH   1   7
ATOM      7  C   UNL     1       4.182   3.702  17.132  0.00  0.00    +0.000 C 
BRANCH   7   8
ATOM      8  C   UNL     1       3.700   3.432  18.569  0.00  0.00    +0.000 C 
BRANCH   8  10
ATOM      9  C   UNL     1       2.821   5.575  19.393  0.00  0.00    +0.000 C 
ATOM     10  N   UNL     1       2.494   4.213  18.934  0.00  0.00    +0.000 NA
ATOM     11  C   UNL     1       1.595   4.301  17.771  0.00  0.00    +0.000 C 
ENDBRANCH   8  10
ENDBRANCH   7   8
ENDBRANCH   1   7
TORSDOF 3
ENDMDL
MODEL 6
REMARK VINA RESULT:      -4.2      0.670      1.125
REMARK  Name = 
REMARK  5 active torsions:
REMARK  status: ('A' for Active; 'I' for Inactive)
REMARK    1  A    between atoms: C_1  and  N_2
REMARK    2  A    between atoms: N_2  and  C_3
REMARK    3  A    between atoms: N_2  and  C_4
REMARK    4  A    between atoms: C_4  and  C_5
REMARK    5  A    between atoms: C_5  and  C_6
REMARK                            x       y       z     vdW  Elec       q    Type
REMARK                         _______ _______ _______ _____ _____    ______ ____
ROOT
ATOM      1  C   UNL     1       5.608   4.140  17.034  0.00  0.00    +0.000 A 
ATOM      2  C   UNL     1       6.359   4.526  15.945  0.00  0.00    +0.000 A 
ATOM      3  N   UNL     1       7.612   4.803  16.355  0.00  0.00    +0.000 NA
ATOM      4  C   UNL     1       7.599   4.576  17.686  0.00  0.00    +0.000 A 
ATOM      5  N   UNL     1       6.391   4.174  18.124  0.00  0.00    +0.000 N 
ATOM      6  H   UNL     1       6.128   3.933  19.106  0.00  0.00    +0.000 HD
ENDROOT
BRANCH   1   7
ATOM      7  C   UNL     1       4.164   3.738  17.023  0.00  0.00    +0.000 C 
BRANCH   7   8
ATOM      8  C   UNL     1       3.793   2.898  18.259  0.00  0.00    +0.000 C 
BRANCH   8  10
ATOM      9  C   UNL     1       1.915   2.399  19.766  0.00  0.00    +0.000 C 
ATOM     10  N   UNL     1       2.630   3.439  19.002  0.00  0.00    +0.000 NA
ATOM     11  C   UNL     1       3.084   4.488  19.930  0.00  0.00    +0.000 C 
ENDBRANCH   8  10
ENDBRANCH   7   8
ENDBRANCH   1   7
TORSDOF 3
ENDMDL
MODEL 7
REMARK VINA RESULT:      -4.2      1.540      4.199
REMARK  Name = 
REMARK  5 active torsions:
REMARK  status: ('A' for Active; 'I' for Inactive)
REMARK    1  A    between atoms: C_1  and  N_2
REMARK    2  A    between atoms: N_2  and  C_3
REMARK    3  A    between atoms: N_2  and  C_4
REMARK    4  A    between atoms: C_4  and  C_5
REMARK    5  A    between atoms: C_5  and  C_6
REMARK                            x       y       z     vdW  Elec       q    Type
REMARK                         _______ _______ _______ _____ _____    ______ ____
ROOT
ATOM      1  C   UNL     1       5.433   4.715  19.142  0.00  0.00    +0.000 A 
ATOM      2  C   UNL     1       4.214   5.244  19.505  0.00  0.00    +0.000 A 
ATOM      3  N   UNL     1       3.369   4.234  19.791  0.00  0.00    +0.000 NA
ATOM      4  C   UNL     1       4.094   3.111  19.600  0.00  0.00    +0.000 A 
ATOM      5  N   UNL     1       5.352   3.377  19.203  0.00  0.00    +0.000 N 
ATOM      6  H   UNL     1       6.104   2.683  18.995  0.00  0.00    +0.000 HD
ENDROOT
BRANCH   1   7
ATOM      7  C   UNL     1       6.658   5.488  18.752  0.00  0.00    +0.000 C 
BRANCH   7   8
ATOM      8  C   UNL     1       7.030   5.264  17.275  0.00  0.00    +0.000 C 
BRANCH   8  10
ATOM      9  C   UNL     1       5.335   6.082  15.693  0.00  0.00    +0.000 C 
ATOM     10  N   UNL     1       5.865   4.918  16.427  0.00  0.00    +0.000 NA
ATOM     11  C   UNL     1       6.252   3.878  15.460  0.00  0.00    +0.000 C 
ENDBRANCH   8  10
ENDBRANCH   7   8
ENDBRANCH   1   7
TORSDOF 3
ENDMDL
MODEL 8
REMARK VINA RESULT:      -4.1      1.567      1.909
REMARK  Name = 
REMARK  5 active torsions:
REMARK  status: ('A' for Active; 'I' for Inactive)
REMARK    1  A    between atoms: C_1  and  N_2
REMARK    2  A    between atoms: N_2  and  C_3
REMARK    3  A    between atoms: N_2  and  C_4
REMARK    4  A    between atoms: C_4  and  C_5
REMARK    5  A    between atoms: C_5  and  C_6
REMARK                            x       y       z     vdW  Elec       q    Type
REMARK                         _______ _______ _______ _____ _____    ______ ____
ROOT
ATOM      1  C   UNL     1       5.400   4.927  17.111  0.00  0.00    +0.000 A 
ATOM      2  C   UNL     1       5.980   5.881  16.302  0.00  0.00    +0.000 A 
ATOM      3  N   UNL     1       7.317   5.714  16.322  0.00  0.00    +0.000 NA
ATOM      4  C   UNL     1       7.522   4.659  17.140  0.00  0.00    +0.000 A 
ATOM      5  N   UNL     1       6.372   4.164  17.635  0.00  0.00    +0.000 N 
ATOM      6  H   UNL     1       6.265   3.352  18.282  0.00  0.00    +0.000 HD
ENDROOT
BRANCH   1   7
ATOM      7  C   UNL     1       3.933   4.750  17.366  0.00  0.00    +0.000 C 
BRANCH   7   8
ATOM      8  C   UNL     1       3.536   3.263  17.418  0.00  0.00    +0.000 C 
BRANCH   8  10
ATOM      9  C   UNL     1       1.717   2.177  18.667  0.00  0.00    +0.000 C 
ATOM     10  N   UNL     1       2.073   3.056  17.537  0.00  0.00    +0.000 NA
ATOM     11  C   UNL     1       1.405   4.356  17.713  0.00  0.00    +0.000 C 
ENDBRANCH   8  10
ENDBRANCH   7   8
ENDBRANCH   1   7
TORSDOF 3
ENDMDL
MODEL 9
REMARK VINA RESULT:      -4.1      1.576      2.109
REMARK  Name = 
REMARK  5 active torsions:
REMARK  status: ('A' for Active; 'I' for Inactive)
REMARK    1  A    between atoms: C_1  and  N_2
REMARK    2  A    between atoms: N_2  and  C_3
REMARK    3  A    between atoms: N_2  and  C_4
REMARK    4  A    between atoms: C_4  and  C_5
REMARK    5  A    between atoms: C_5  and  C_6
REMARK                            x       y       z     vdW  Elec       q    Type
REMARK                         _______ _______ _______ _____ _____    ______ ____
ROOT
ATOM      1  C   UNL     1       5.607   4.389  17.511  0.00  0.00    +0.000 A 
ATOM      2  C   UNL     1       5.759   4.872  18.793  0.00  0.00    +0.000 A 
ATOM      3  N   UNL     1       7.073   5.033  19.046  0.00  0.00    +0.000 NA
ATOM      4  C   UNL     1       7.693   4.647  17.910  0.00  0.00    +0.000 A 
ATOM      5  N   UNL     1       6.824   4.249  16.962  0.00  0.00    +0.000 N 
ATOM      6  H   UNL     1       7.054   3.911  16.001  0.00  0.00    +0.000 HD
ENDROOT
BRANCH   1   7
ATOM      7  C   UNL     1       4.311   4.077  16.825  0.00  0.00    +0.000 C 
BRANCH   7   8
ATOM      8  C   UNL     1       3.098   4.506  17.671  0.00  0.00    +0.000 C 
BRANCH   8  10
ATOM      9  C   UNL     1       2.706   2.089  17.904  0.00  0.00    +0.000 C 
ATOM     10  N   UNL     1       2.093   3.428  17.834  0.00  0.00    +0.000 NA
ATOM     11  C   UNL     1       1.315   3.664  19.062  0.00  0.00    +0.000 C 
ENDBRANCH   8  10
ENDBRANCH   7   8
ENDBRANCH   1   7
TORSDOF 3
ENDMDL
