MODEL 1
REMARK VINA RESULT:      -7.0      0.000      0.000
REMARK  Name = 
REMARK  6 active torsions:
REMARK  status: ('A' for Active; 'I' for Inactive)
REMARK    1  A    between atoms: C_1  and  C_2
REMARK    2  A    between atoms: C_5  and  C_6
REMARK    3  A    between atoms: C_6  and  C_7
REMARK    4  A    between atoms: C_6  and  N_8
REMARK    5  A    between atoms: C_9  and  C_11
REMARK    6  A    between atoms: C_11  and  N_12
REMARK                            x       y       z     vdW  Elec       q    Type
REMARK                         _______ _______ _______ _____ _____    ______ ____
ROOT
ATOM      1  N   UNL     1       5.042   5.270  17.885  0.00  0.00    +0.000 N 
ATOM      2  C   UNL     1       4.990   4.889  19.210  0.00  0.00    +0.000 C 
ATOM      3  O   UNL     1       5.971   4.844  19.946  0.00  0.00    +0.000 OA
ATOM      4  H   UNL     1       4.178   5.258  17.358  0.00  0.00    +0.000 HD
ENDROOT
BRANCH   1   5
ATOM      5  C   UNL     1       6.281   5.680  17.247  0.00  0.00    +0.000 C 
ATOM      6  C   UNL     1       6.401   7.207  17.242  0.00  0.00    +0.000 C 
BRANCH   5  11
ATOM      7  C   UNL     1       6.958   3.853  11.803  0.00  0.00    +0.000 C 
ATOM      8  C   UNL     1       6.757   4.250  13.237  0.00  0.00    +0.000 A 
ATOM      9  C   UNL     1       5.659   3.802  13.962  0.00  0.00    +0.000 A 
ATOM     10  C   UNL     1       5.494   4.231  15.282  0.00  0.00    +0.000 A 
ATOM     11  C   UNL     1       6.422   5.106  15.854  0.00  0.00    +0.000 A 
ATOM     12  C   UNL     1       7.501   5.479  15.052  0.00  0.00    +0.000 A 
ATOM     13  N   UNL     1       7.685   5.073  13.774  0.00  0.00    +0.000 NA
ENDBRANCH   5  11
ENDBRANCH   1   5
BRANCH   2  14
ATOM     14  C   UNL     1       3.584   4.511  19.700  0.00  0.00    +0.000 C 
BRANCH  14  15
ATOM     15  N   UNL     1       3.487   3.049  19.914  0.00  0.00    +0.000 NA
ATOM     16  C   UNL     1       3.043   2.707  21.282  0.00  0.00    +0.000 C 
ATOM     17  C   UNL     1       1.607   3.160  21.572  0.00  0.00    +0.000 C 
ATOM     18  N   UNL     1       0.692   2.719  20.545  0.00  0.00    +0.000 N 
ATOM     19  C   UNL     1       1.071   2.519  19.246  0.00  0.00    +0.000 C 
ATOM     20  O   UNL     1       0.211   2.328  18.386  0.00  0.00    +0.000 OA
ATOM     21  C   UNL     1       2.573   2.423  18.926  0.00  0.00    +0.000 C 
ATOM     22  H   UNL     1      -0.310   2.797  20.691  0.00  0.00    +0.000 HD
ENDBRANCH  14  15
ENDBRANCH   2  14
TORSDOF 4
ENDMDL
MODEL 2
REMARK VINA RESULT:      -6.8      2.263      3.791
REMARK  Name = 
REMARK  6 active torsions:
REMARK  status: ('A' for Active; 'I' for Inactive)
REMARK    1  A    between atoms: C_1  and  C_2
REMARK    2  A    between atoms: C_5  and  C_6
REMARK    3  A    between atoms: C_6  and  C_7
REMARK    4  A    between atoms: C_6  and  N_8
REMARK    5  A    between atoms: C_9  and  C_11
REMARK    6  A    between atoms: C_11  and  N_12
REMARK                            x       y       z     vdW  Elec       q    Type
REMARK                         _______ _______ _______ _____ _____    ______ ____
ROOT
ATOM      1  N   UNL     1       4.508   3.609  17.710  0.00  0.00    +0.000 N 
ATOM      2  C   UNL     1       3.242   3.067  17.624  0.00  0.00    +0.000 C 
ATOM      3  O   UNL     1       2.515   3.185  16.642  0.00  0.00    +0.000 OA
ATOM      4  H   UNL     1       5.021   3.468  18.571  0.00  0.00    +0.000 HD
ENDROOT
BRANCH   1   5
ATOM      5  C   UNL     1       5.104   4.357  16.618  0.00  0.00    +0.000 C 
ATOM      6  C   UNL     1       5.880   3.420  15.688  0.00  0.00    +0.000 C 
BRANCH   5  11
ATOM      7  C   UNL     1       8.432   8.839  18.126  0.00  0.00    +0.000 C 
ATOM      8  C   UNL     1       7.566   7.652  17.816  0.00  0.00    +0.000 A 
ATOM      9  C   UNL     1       7.784   6.422  18.425  0.00  0.00    +0.000 A 
ATOM     10  C   UNL     1       6.976   5.337  18.073  0.00  0.00    +0.000 A 
ATOM     11  C   UNL     1       5.973   5.494  17.113  0.00  0.00    +0.000 A 
ATOM     12  C   UNL     1       5.820   6.773  16.578  0.00  0.00    +0.000 A 
ATOM     13  N   UNL     1       6.585   7.840  16.906  0.00  0.00    +0.000 NA
ENDBRANCH   5  11
ENDBRANCH   1   5
BRANCH   2  14
ATOM     14  C   UNL     1       2.802   2.295  18.877  0.00  0.00    +0.000 C 
BRANCH  14  15
ATOM     15  N   UNL     1       1.520   2.831  19.390  0.00  0.00    +0.000 NA
ATOM     16  C   UNL     1       1.334   2.565  20.833  0.00  0.00    +0.000 C 
ATOM     17  C   UNL     1       2.353   3.301  21.710  0.00  0.00    +0.000 C 
ATOM     18  N   UNL     1       2.413   4.708  21.389  0.00  0.00    +0.000 N 
ATOM     19  C   UNL     1       2.137   5.201  20.145  0.00  0.00    +0.000 C 
ATOM     20  O   UNL     1       2.389   6.379  19.888  0.00  0.00    +0.000 OA
ATOM     21  C   UNL     1       1.411   4.291  19.139  0.00  0.00    +0.000 C 
ATOM     22  H   UNL     1       2.913   5.347  22.001  0.00  0.00    +0.000 HD
ENDBRANCH  14  15
ENDBRANCH   2  14
TORSDOF 4
ENDMDL
MODEL 3
REMARK VINA RESULT:      -6.8      1.201      1.639
REMARK  Name = 
REMARK  6 active torsions:
REMARK  status: ('A' for Active; 'I' for Inactive)
REMARK    1  A    between atoms: C_1  and  C_2
REMARK    2  A    between atoms: C_5  and  C_6
REMARK    3  A    between atoms: C_6  and  C_7
REMARK    4  A    between atoms: C_6  and  N_8
REMARK    5  A    between atoms: C_9  and  C_11
REMARK    6  A    between atoms: C_11  and  N_12
REMARK                            x       y       z     vdW  Elec       q    Type
REMARK                         _______ _______ _______ _____ _____    ______ ____
ROOT
ATOM      1  N   UNL     1       4.962   4.833  17.762  0.00  0.00    +0.000 N 
ATOM      2  C   UNL     1       5.140   4.447  19.076  0.00  0.00    +0.000 C 
ATOM      3  O   UNL     1       6.130   4.732  19.742  0.00  0.00    +0.000 OA
ATOM      4  H   UNL     1       4.116   4.533  17.295  0.00  0.00    +0.000 HD
ENDROOT
BRANCH   1   5
ATOM      5  C   UNL     1       5.939   5.643  17.056  0.00  0.00    +0.000 C 
ATOM      6  C   UNL     1       5.487   7.105  17.006  0.00  0.00    +0.000 C 
BRANCH   5  11
ATOM      7  C   UNL     1       7.202   3.955  11.672  0.00  0.00    +0.000 C 
ATOM      8  C   UNL     1       6.849   4.315  13.087  0.00  0.00    +0.000 A 
ATOM      9  C   UNL     1       5.698   3.822  13.690  0.00  0.00    +0.000 A 
ATOM     10  C   UNL     1       5.392   4.217  14.995  0.00  0.00    +0.000 A 
ATOM     11  C   UNL     1       6.233   5.104  15.673  0.00  0.00    +0.000 A 
ATOM     12  C   UNL     1       7.375   5.522  14.989  0.00  0.00    +0.000 A 
ATOM     13  N   UNL     1       7.696   5.150  13.728  0.00  0.00    +0.000 NA
ENDBRANCH   5  11
ENDBRANCH   1   5
BRANCH   2  14
ATOM     14  C   UNL     1       3.984   3.612  19.647  0.00  0.00    +0.000 C 
BRANCH  14  15
ATOM     15  N   UNL     1       2.864   4.491  20.054  0.00  0.00    +0.000 NA
ATOM     16  C   UNL     1       1.752   4.477  19.079  0.00  0.00    +0.000 C 
ATOM     17  C   UNL     1       1.060   3.113  18.985  0.00  0.00    +0.000 C 
ATOM     18  N   UNL     1       0.685   2.616  20.289  0.00  0.00    +0.000 N 
ATOM     19  C   UNL     1       1.367   2.932  21.430  0.00  0.00    +0.000 C 
ATOM     20  O   UNL     1       1.116   2.329  22.474  0.00  0.00    +0.000 OA
ATOM     21  C   UNL     1       2.349   4.116  21.395  0.00  0.00    +0.000 C 
ATOM     22  H   UNL     1       0.069   1.812  20.366  0.00  0.00    +0.000 HD
ENDBRANCH  14  15
ENDBRANCH   2  14
TORSDOF 4
ENDMDL
MODEL 4
REMARK VINA RESULT:      -6.8      1.152      1.469
REMARK  Name = 
REMARK  6 active torsions:
REMARK  status: ('A' for Active; 'I' for Inactive)
REMARK    1  A    between atoms: C_1  and  C_2
REMARK    2  A    between atoms: C_5  and  C_6
REMARK    3  A    between atoms: C_6  and  C_7
REMARK    4  A    between atoms: C_6  and  N_8
REMARK    5  A    between atoms: C_9  and  C_11
REMARK    6  A    between atoms: C_11  and  N_12
REMARK                            x       y       z     vdW  Elec       q    Type
REMARK                         _______ _______ _______ _____ _____    ______ ____
ROOT
ATOM      1  N   UNL     1       5.344   5.558  17.861  0.00  0.00    +0.000 N 
ATOM      2  C   UNL     1       5.260   5.202  19.192  0.00  0.00    +0.000 C 
ATOM      3  O   UNL     1       6.228   4.888  19.877  0.00  0.00    +0.000 OA
ATOM      4  H   UNL     1       4.483   5.785  17.380  0.00  0.00    +0.000 HD
ENDROOT
BRANCH   1   5
ATOM      5  C   UNL     1       6.613   5.614  17.156  0.00  0.00    +0.000 C 
ATOM      6  C   UNL     1       7.173   7.039  17.174  0.00  0.00    +0.000 C 
BRANCH   5  11
ATOM      7  C   UNL     1       6.036   3.222  11.923  0.00  0.00    +0.000 C 
ATOM      8  C   UNL     1       6.215   3.912  13.244  0.00  0.00    +0.000 A 
ATOM      9  C   UNL     1       7.334   4.694  13.503  0.00  0.00    +0.000 A 
ATOM     10  C   UNL     1       7.475   5.285  14.762  0.00  0.00    +0.000 A 
ATOM     11  C   UNL     1       6.503   5.077  15.745  0.00  0.00    +0.000 A 
ATOM     12  C   UNL     1       5.407   4.296  15.378  0.00  0.00    +0.000 A 
ATOM     13  N   UNL     1       5.245   3.719  14.165  0.00  0.00    +0.000 NA
ENDBRANCH   5  11
ENDBRANCH   1   5
BRANCH   2  14
ATOM     14  C   UNL     1       3.832   5.224  19.758  0.00  0.00    +0.000 C 
BRANCH  14  15
ATOM     15  N   UNL     1       3.487   3.907  20.340  0.00  0.00    +0.000 NA
ATOM     16  C   UNL     1       2.201   3.932  21.071  0.00  0.00    +0.000 C 
ATOM     17  C   UNL     1       1.001   4.191  20.153  0.00  0.00    +0.000 C 
ATOM     18  N   UNL     1       0.997   3.300  19.017  0.00  0.00    +0.000 N 
ATOM     19  C   UNL     1       2.139   2.778  18.476  0.00  0.00    +0.000 C 
ATOM     20  O   UNL     1       2.084   2.181  17.400  0.00  0.00    +0.000 OA
ATOM     21  C   UNL     1       3.441   2.854  19.294  0.00  0.00    +0.000 C 
ATOM     22  H   UNL     1       0.176   3.240  18.422  0.00  0.00    +0.000 HD
ENDBRANCH  14  15
ENDBRANCH   2  14
TORSDOF 4
ENDMDL
MODEL 5
REMARK VINA RESULT:      -6.7      1.022      1.034
REMARK  Name = 
REMARK  6 active torsions:
REMARK  status: ('A' for Active; 'I' for Inactive)
REMARK    1  A    between atoms: C_1  and  C_2
REMARK    2  A    between atoms: C_5  and  C_6
REMARK    3  A    between atoms: C_6  and  C_7
REMARK    4  A    between atoms: C_6  and  N_8
REMARK    5  A    between atoms: C_9  and  C_11
REMARK    6  A    between atoms: C_11  and  N_12
REMARK                            x       y       z     vdW  Elec       q    Type
REMARK                         _______ _______ _______ _____ _____    ______ ____
ROOT
ATOM      1  N   UNL     1       5.746   4.428  18.884  0.00  0.00    +0.000 N 
ATOM      2  C   UNL     1       4.623   5.227  18.803  0.00  0.00    +0.000 C 
ATOM      3  O   UNL     1       4.561   6.251  18.128  0.00  0.00    +0.000 OA
ATOM      4  H   UNL     1       5.700   3.613  19.482  0.00  0.00    +0.000 HD
ENDROOT
BRANCH   1   5
ATOM      5  C   UNL     1       6.961   4.726  18.146  0.00  0.00    +0.000 C 
ATOM      6  C   UNL     1       7.427   6.156  18.437  0.00  0.00    +0.000 C 
BRANCH   5  11
ATOM      7  C   UNL     1       6.396   4.211  12.415  0.00  0.00    +0.000 C 
ATOM      8  C   UNL     1       6.533   4.261  13.909  0.00  0.00    +0.000 A 
ATOM      9  C   UNL     1       5.731   3.482  14.733  0.00  0.00    +0.000 A 
ATOM     10  C   UNL     1       5.870   3.593  16.120  0.00  0.00    +0.000 A 
ATOM     11  C   UNL     1       6.798   4.487  16.661  0.00  0.00    +0.000 A 
ATOM     12  C   UNL     1       7.571   5.206  15.749  0.00  0.00    +0.000 A 
ATOM     13  N   UNL     1       7.460   5.112  14.404  0.00  0.00    +0.000 NA
ENDBRANCH   5  11
ENDBRANCH   1   5
BRANCH   2  14
ATOM     14  C   UNL     1       3.437   4.730  19.642  0.00  0.00    +0.000 C 
BRANCH  14  15
ATOM     15  N   UNL     1       3.480   3.256  19.774  0.00  0.00    +0.000 NA
ATOM     16  C   UNL     1       3.152   2.802  21.144  0.00  0.00    +0.000 C 
ATOM     17  C   UNL     1       1.703   3.109  21.541  0.00  0.00    +0.000 C 
ATOM     18  N   UNL     1       0.768   2.644  20.543  0.00  0.00    +0.000 N 
ATOM     19  C   UNL     1       1.081   2.548  19.216  0.00  0.00    +0.000 C 
ATOM     20  O   UNL     1       0.189   2.328  18.396  0.00  0.00    +0.000 OA
ATOM     21  C   UNL     1       2.563   2.604  18.805  0.00  0.00    +0.000 C 
ATOM     22  H   UNL     1      -0.226   2.623  20.751  0.00  0.00    +0.000 HD
ENDBRANCH  14  15
ENDBRANCH   2  14
TORSDOF 4
ENDMDL
MODEL 6
REMARK VINA RESULT:      -6.7      1.231      1.496
REMARK  Name = 
REMARK  6 active torsions:
REMARK  status: ('A' for Active; 'I' for Inactive)
REMARK    1  A    between atoms: C_1  and  C_2
REMARK    2  A    between atoms: C_5  and  C_6
REMARK    3  A    between atoms: C_6  and  C_7
REMARK    4  A    between atoms: C_6  and  N_8
REMARK    5  A    between atoms: C_9  and  C_11
REMARK    6  A    between atoms: C_11  and  N_12
REMARK                            x       y       z     vdW  Elec       q    Type
REMARK                         _______ _______ _______ _____ _____    ______ ____
ROOT
ATOM      1  N   UNL     1       5.758   4.458  18.936  0.00  0.00    +0.000 N 
ATOM      2  C   UNL     1       4.613   5.226  18.865  0.00  0.00    +0.000 C 
ATOM      3  O   UNL     1       4.501   6.219  18.153  0.00  0.00    +0.000 OA
ATOM      4  H   UNL     1       5.754   3.667  19.568  0.00  0.00    +0.000 HD
ENDROOT
BRANCH   1   5
ATOM      5  C   UNL     1       6.937   4.754  18.141  0.00  0.00    +0.000 C 
ATOM      6  C   UNL     1       7.442   6.168  18.439  0.00  0.00    +0.000 C 
BRANCH   5  11
ATOM      7  C   UNL     1       5.979   3.580  12.561  0.00  0.00    +0.000 C 
ATOM      8  C   UNL     1       6.227   3.967  13.990  0.00  0.00    +0.000 A 
ATOM      9  C   UNL     1       7.104   4.994  14.317  0.00  0.00    +0.000 A 
ATOM     10  C   UNL     1       7.332   5.291  15.664  0.00  0.00    +0.000 A 
ATOM     11  C   UNL     1       6.691   4.552  16.661  0.00  0.00    +0.000 A 
ATOM     12  C   UNL     1       5.812   3.557  16.230  0.00  0.00    +0.000 A 
ATOM     13  N   UNL     1       5.570   3.255  14.933  0.00  0.00    +0.000 NA
ENDBRANCH   5  11
ENDBRANCH   1   5
BRANCH   2  14
ATOM     14  C   UNL     1       3.472   4.736  19.769  0.00  0.00    +0.000 C 
BRANCH  14  15
ATOM     15  N   UNL     1       3.481   3.258  19.856  0.00  0.00    +0.000 NA
ATOM     16  C   UNL     1       3.117   2.770  21.205  0.00  0.00    +0.000 C 
ATOM     17  C   UNL     1       1.668   3.097  21.585  0.00  0.00    +0.000 C 
ATOM     18  N   UNL     1       0.742   2.683  20.557  0.00  0.00    +0.000 N 
ATOM     19  C   UNL     1       1.078   2.620  19.233  0.00  0.00    +0.000 C 
ATOM     20  O   UNL     1       0.197   2.445  18.391  0.00  0.00    +0.000 OA
ATOM     21  C   UNL     1       2.568   2.656  18.851  0.00  0.00    +0.000 C 
ATOM     22  H   UNL     1      -0.256   2.678  20.746  0.00  0.00    +0.000 HD
ENDBRANCH  14  15
ENDBRANCH   2  14
TORSDOF 4
ENDMDL
MODEL 7
REMARK VINA RESULT:      -6.7      1.224      1.484
REMARK  Name = 
REMARK  6 active torsions:
REMARK  status: ('A' for Active; 'I' for Inactive)
REMARK    1  A    between atoms: C_1  and  C_2
REMARK    2  A    between atoms: C_5  and  C_6
REMARK    3  A    between atoms: C_6  and  C_7
REMARK    4  A    between atoms: C_6  and  N_8
REMARK    5  A    between atoms: C_9  and  C_11
REMARK    6  A    between atoms: C_11  and  N_12
REMARK                            x       y       z     vdW  Elec       q    Type
REMARK                         _______ _______ _______ _____ _____    ______ ____
ROOT
ATOM      1  N   UNL     1       4.512   5.491  17.749  0.00  0.00    +0.000 N 
ATOM      2  C   UNL     1       4.228   5.273  19.082  0.00  0.00    +0.000 C 
ATOM      3  O   UNL     1       5.077   5.272  19.969  0.00  0.00    +0.000 OA
ATOM      4  H   UNL     1       3.743   5.454  17.093  0.00  0.00    +0.000 HD
ENDROOT
BRANCH   1   5
ATOM      5  C   UNL     1       5.859   5.768  17.281  0.00  0.00    +0.000 C 
ATOM      6  C   UNL     1       6.133   7.275  17.300  0.00  0.00    +0.000 C 
BRANCH   5  11
ATOM      7  C   UNL     1       7.021   3.851  11.951  0.00  0.00    +0.000 C 
ATOM      8  C   UNL     1       6.690   4.272  13.354  0.00  0.00    +0.000 A 
ATOM      9  C   UNL     1       5.518   3.857  13.974  0.00  0.00    +0.000 A 
ATOM     10  C   UNL     1       5.235   4.308  15.267  0.00  0.00    +0.000 A 
ATOM     11  C   UNL     1       6.121   5.172  15.915  0.00  0.00    +0.000 A 
ATOM     12  C   UNL     1       7.281   5.511  15.217  0.00  0.00    +0.000 A 
ATOM     13  N   UNL     1       7.579   5.084  13.968  0.00  0.00    +0.000 NA
ENDBRANCH   5  11
ENDBRANCH   1   5
BRANCH   2  14
ATOM     14  C   UNL     1       2.742   5.017  19.373  0.00  0.00    +0.000 C 
BRANCH  14  15
ATOM     15  N   UNL     1       2.587   3.875  20.302  0.00  0.00    +0.000 NA
ATOM     16  C   UNL     1       1.195   3.377  20.358  0.00  0.00    +0.000 C 
ATOM     17  C   UNL     1       0.728   2.768  19.031  0.00  0.00    +0.000 C 
ATOM     18  N   UNL     1       1.667   1.788  18.535  0.00  0.00    +0.000 N 
ATOM     19  C   UNL     1       3.007   1.840  18.801  0.00  0.00    +0.000 C 
ATOM     20  O   UNL     1       3.775   1.091  18.197  0.00  0.00    +0.000 OA
ATOM     21  C   UNL     1       3.496   2.759  19.934  0.00  0.00    +0.000 C 
ATOM     22  H   UNL     1       1.406   1.183  17.762  0.00  0.00    +0.000 HD
ENDBRANCH  14  15
ENDBRANCH   2  14
TORSDOF 4
ENDMDL
MODEL 8
REMARK VINA RESULT:      -6.6      1.357      1.963
REMARK  Name = 
REMARK  6 active torsions:
REMARK  status: ('A' for Active; 'I' for Inactive)
REMARK    1  A    between atoms: C_1  and  C_2
REMARK    2  A    between atoms: C_5  and  C_6
REMARK    3  A    between atoms: C_6  and  C_7
REMARK    4  A    between atoms: C_6  and  N_8
REMARK    5  A    between atoms: C_9  and  C_11
REMARK    6  A    between atoms: C_11  and  N_12
REMARK                            x       y       z     vdW  Elec       q    Type
REMARK                         _______ _______ _______ _____ _____    ______ ____
ROOT
ATOM      1  N   UNL     1       5.174   4.683  17.683  0.00  0.00    +0.000 N 
ATOM      2  C   UNL     1       5.242   4.433  19.039  0.00  0.00    +0.000 C 
ATOM      3  O   UNL     1       6.163   4.809  19.756  0.00  0.00    +0.000 OA
ATOM      4  H   UNL     1       4.379   4.315  17.176  0.00  0.00    +0.000 HD
ENDROOT
BRANCH   1   5
ATOM      5  C   UNL     1       6.195   5.447  16.987  0.00  0.00    +0.000 C 
ATOM      6  C   UNL     1       5.893   6.946  17.072  0.00  0.00    +0.000 C 
BRANCH   5  11
ATOM      7  C   UNL     1       6.714   3.350  11.623  0.00  0.00    +0.000 C 
ATOM      8  C   UNL     1       6.603   3.969  12.986  0.00  0.00    +0.000 A 
ATOM      9  C   UNL     1       7.554   4.872  13.447  0.00  0.00    +0.000 A 
ATOM     10  C   UNL     1       7.429   5.392  14.738  0.00  0.00    +0.000 A 
ATOM     11  C   UNL     1       6.365   4.995  15.552  0.00  0.00    +0.000 A 
ATOM     12  C   UNL     1       5.452   4.102  14.989  0.00  0.00    +0.000 A 
ATOM     13  N   UNL     1       5.548   3.590  13.740  0.00  0.00    +0.000 NA
ENDBRANCH   5  11
ENDBRANCH   1   5
BRANCH   2  14
ATOM     14  C   UNL     1       4.056   3.626  19.588  0.00  0.00    +0.000 C 
BRANCH  14  15
ATOM     15  N   UNL     1       2.949   4.531  19.972  0.00  0.00    +0.000 NA
ATOM     16  C   UNL     1       1.839   4.513  18.994  0.00  0.00    +0.000 C 
ATOM     17  C   UNL     1       1.126   3.157  18.930  0.00  0.00    +0.000 C 
ATOM     18  N   UNL     1       0.741   2.696  20.243  0.00  0.00    +0.000 N 
ATOM     19  C   UNL     1       1.425   3.028  21.379  0.00  0.00    +0.000 C 
ATOM     20  O   UNL     1       1.161   2.454  22.436  0.00  0.00    +0.000 OA
ATOM     21  C   UNL     1       2.425   4.195  21.320  0.00  0.00    +0.000 C 
ATOM     22  H   UNL     1       0.112   1.904  20.338  0.00  0.00    +0.000 HD
ENDBRANCH  14  15
ENDBRANCH   2  14
TORSDOF 4
ENDMDL
MODEL 9
REMARK VINA RESULT:      -6.6      3.591      7.143
REMARK  Name = 
REMARK  6 active torsions:
REMARK  status: ('A' for Active; 'I' for Inactive)
REMARK    1  A    between atoms: C_1  and  C_2
REMARK    2  A    between atoms: C_5  and  C_6
REMARK    3  A    between atoms: C_6  and  C_7
REMARK    4  A    between atoms: C_6  and  N_8
REMARK    5  A    between atoms: C_9  and  C_11
REMARK    6  A    between atoms: C_11  and  N_12
REMARK                            x       y       z     vdW  Elec       q    Type
REMARK                         _______ _______ _______ _____ _____    ______ ____
ROOT
ATOM      1  N   UNL     1       3.169   5.172  18.934  0.00  0.00    +0.000 N 
ATOM      2  C   UNL     1       4.528   4.933  18.871  0.00  0.00    +0.000 C 
ATOM      3  O   UNL     1       5.307   5.185  19.785  0.00  0.00    +0.000 OA
ATOM      4  H   UNL     1       2.614   4.944  18.119  0.00  0.00    +0.000 HD
ENDROOT
BRANCH   1   5
ATOM      5  C   UNL     1       2.537   5.728  20.118  0.00  0.00    +0.000 C 
ATOM      6  C   UNL     1       1.407   4.813  20.601  0.00  0.00    +0.000 C 
BRANCH   5  11
ATOM      7  C   UNL     1       0.337  11.035  19.468  0.00  0.00    +0.000 C 
ATOM      8  C   UNL     1       0.976   9.683  19.595  0.00  0.00    +0.000 A 
ATOM      9  C   UNL     1       1.669   9.111  18.534  0.00  0.00    +0.000 A 
ATOM     10  C   UNL     1       2.213   7.832  18.688  0.00  0.00    +0.000 A 
ATOM     11  C   UNL     1       2.048   7.142  19.891  0.00  0.00    +0.000 A 
ATOM     12  C   UNL     1       1.358   7.812  20.902  0.00  0.00    +0.000 A 
ATOM     13  N   UNL     1       0.827   9.051  20.780  0.00  0.00    +0.000 NA
ENDBRANCH   5  11
ENDBRANCH   1   5
BRANCH   2  14
ATOM     14  C   UNL     1       4.997   4.324  17.542  0.00  0.00    +0.000 C 
BRANCH  14  15
ATOM     15  N   UNL     1       4.799   5.287  16.435  0.00  0.00    +0.000 NA
ATOM     16  C   UNL     1       5.637   6.497  16.582  0.00  0.00    +0.000 C 
ATOM     17  C   UNL     1       7.137   6.199  16.472  0.00  0.00    +0.000 C 
ATOM     18  N   UNL     1       7.441   5.432  15.286  0.00  0.00    +0.000 N 
ATOM     19  C   UNL     1       6.553   4.567  14.711  0.00  0.00    +0.000 C 
ATOM     20  O   UNL     1       6.935   3.807  13.821  0.00  0.00    +0.000 OA
ATOM     21  C   UNL     1       5.072   4.655  15.119  0.00  0.00    +0.000 C 
ATOM     22  H   UNL     1       8.407   5.311  14.995  0.00  0.00    +0.000 HD
ENDBRANCH  14  15
ENDBRANCH   2  14
TORSDOF 4
ENDMDL
