MODEL 1
REMARK VINA RESULT:      -8.0      0.000      0.000
REMARK  Name = 
REMARK  5 active torsions:
REMARK  status: ('A' for Active; 'I' for Inactive)
REMARK    1  A    between atoms: C_1  and  C_2
REMARK    2  A    between atoms: C_2  and  C_4
REMARK    3  A    between atoms: C_4  and  O_5
REMARK    4  A    between atoms: C_11  and  C_12
REMARK    5  A    between atoms: C_23  and  C_24
REMARK                            x       y       z     vdW  Elec       q    Type
REMARK                         _______ _______ _______ _____ _____    ______ ____
ROOT
ATOM      1  C   UNL     1       2.017   3.901  18.902  0.00  0.00    +0.000 C 
ATOM      2  C   UNL     1       1.080   3.922  20.148  0.00  0.00    +0.000 C 
ATOM      3  C   UNL     1       1.675   5.027  21.000  0.00  0.00    +0.000 C 
ATOM      4  C   UNL     1       1.762   6.091  19.922  0.00  0.00    +0.000 C 
ATOM      5  C   UNL     1       2.082   7.532  20.301  0.00  0.00    +0.000 C 
ATOM      6  C   UNL     1       1.210   7.877  21.472  0.00  0.00    +0.000 C 
ATOM      7  C   UNL     1       0.490   8.989  21.596  0.00  0.00    +0.000 C 
ATOM      8  C   UNL     1      -0.646   8.994  22.593  0.00  0.00    +0.000 C 
ATOM      9  C   UNL     1       0.765  10.133  20.741  0.00  0.00    +0.000 C 
ATOM     10  C   UNL     1       0.311  11.340  21.113  0.00  0.00    +0.000 C 
ATOM     11  C   UNL     1       0.598  12.481  20.241  0.00  0.00    +0.000 C 
ATOM     12  O   UNL     1       0.661  13.620  20.715  0.00  0.00    +0.000 OA
ATOM     13  C   UNL     1       0.587  12.186  18.772  0.00  0.00    +0.000 C 
ATOM     14  C   UNL     1       1.454  10.973  18.403  0.00  0.00    +0.000 C 
ATOM     15  C   UNL     1       1.708   9.927  19.522  0.00  0.00    +0.000 C 
ATOM     16  C   UNL     1       1.714   8.415  19.066  0.00  0.00    +0.000 C 
ATOM     17  C   UNL     1       2.583   7.913  17.871  0.00  0.00    +0.000 C 
ATOM     18  C   UNL     1       2.362   6.356  17.559  0.00  0.00    +0.000 C 
ATOM     19  C   UNL     1       2.613   5.424  18.804  0.00  0.00    +0.000 C 
ATOM     20  C   UNL     1       4.145   5.415  19.046  0.00  0.00    +0.000 C 
ENDROOT
BRANCH   1  22
ATOM     21  C   UNL     1       3.469   1.784  18.271  0.00  0.00    +0.000 C 
ATOM     22  C   UNL     1       3.028   2.770  19.317  0.00  0.00    +0.000 C 
ATOM     23  O   UNL     1       3.382   2.593  20.482  0.00  0.00    +0.000 OA
ENDBRANCH   1  22
BRANCH   1  24
ATOM     24  O   UNL     1       1.231   3.576  17.770  0.00  0.00    +0.000 OA
ATOM     25  H   UNL     1       0.316   3.413  18.071  0.00  0.00    +0.000 HD
ENDBRANCH   1  24
TORSDOF 2
ENDMDL
MODEL 2
REMARK VINA RESULT:      -8.0      1.921      3.545
REMARK  Name = 
REMARK  5 active torsions:
REMARK  status: ('A' for Active; 'I' for Inactive)
REMARK    1  A    between atoms: C_1  and  C_2
REMARK    2  A    between atoms: C_2  and  C_4
REMARK    3  A    between atoms: C_4  and  O_5
REMARK    4  A    between atoms: C_11  and  C_12
REMARK    5  A    between atoms: C_23  and  C_24
REMARK                            x       y       z     vdW  Elec       q    Type
REMARK                         _______ _______ _______ _____ _____    ______ ____
ROOT
ATOM      1  C   UNL     1       4.923   5.414  17.900  0.00  0.00    +0.000 C 
ATOM      2  C   UNL     1       5.294   6.743  17.174  0.00  0.00    +0.000 C 
ATOM      3  C   UNL     1       3.938   7.321  16.814  0.00  0.00    +0.000 C 
ATOM      4  C   UNL     1       3.293   7.193  18.182  0.00  0.00    +0.000 C 
ATOM      5  C   UNL     1       1.955   7.869  18.457  0.00  0.00    +0.000 C 
ATOM      6  C   UNL     1       2.058   9.268  17.927  0.00  0.00    +0.000 C 
ATOM      7  C   UNL     1       1.687  10.369  18.577  0.00  0.00    +0.000 C 
ATOM      8  C   UNL     1       2.243  11.694  18.109  0.00  0.00    +0.000 C 
ATOM      9  C   UNL     1       0.819  10.268  19.741  0.00  0.00    +0.000 C 
ATOM     10  C   UNL     1       0.160  11.364  20.149  0.00  0.00    +0.000 C 
ATOM     11  C   UNL     1      -0.709  11.245  21.321  0.00  0.00    +0.000 C 
ATOM     12  O   UNL     1      -1.674  12.004  21.454  0.00  0.00    +0.000 OA
ATOM     13  C   UNL     1      -0.219  10.320  22.394  0.00  0.00    +0.000 C 
ATOM     14  C   UNL     1       0.175   8.937  21.852  0.00  0.00    +0.000 C 
ATOM     15  C   UNL     1       0.577   8.860  20.354  0.00  0.00    +0.000 C 
ATOM     16  C   UNL     1       1.768   7.884  20.008  0.00  0.00    +0.000 C 
ATOM     17  C   UNL     1       1.787   6.398  20.484  0.00  0.00    +0.000 C 
ATOM     18  C   UNL     1       3.134   5.634  20.068  0.00  0.00    +0.000 C 
ATOM     19  C   UNL     1       3.431   5.682  18.522  0.00  0.00    +0.000 C 
ATOM     20  C   UNL     1       2.395   4.747  17.844  0.00  0.00    +0.000 C 
ENDROOT
BRANCH   1  22
ATOM     21  C   UNL     1       5.489   4.896  15.371  0.00  0.00    +0.000 C 
ATOM     22  C   UNL     1       5.021   4.393  16.707  0.00  0.00    +0.000 C 
ATOM     23  O   UNL     1       4.625   3.231  16.796  0.00  0.00    +0.000 OA
ENDBRANCH   1  22
BRANCH   1  24
ATOM     24  O   UNL     1       5.879   5.193  18.920  0.00  0.00    +0.000 OA
ATOM     25  H   UNL     1       5.699   4.320  19.322  0.00  0.00    +0.000 HD
ENDBRANCH   1  24
TORSDOF 2
ENDMDL
MODEL 3
REMARK VINA RESULT:      -7.0      4.930      9.470
REMARK  Name = 
REMARK  5 active torsions:
REMARK  status: ('A' for Active; 'I' for Inactive)
REMARK    1  A    between atoms: C_1  and  C_2
REMARK    2  A    between atoms: C_2  and  C_4
REMARK    3  A    between atoms: C_4  and  O_5
REMARK    4  A    between atoms: C_11  and  C_12
REMARK    5  A    between atoms: C_23  and  C_24
REMARK                            x       y       z     vdW  Elec       q    Type
REMARK                         _______ _______ _______ _____ _____    ______ ____
ROOT
ATOM      1  C   UNL     1      -5.799  13.110  22.446  0.00  0.00    +0.000 C 
ATOM      2  C   UNL     1      -6.435  12.457  21.181  0.00  0.00    +0.000 C 
ATOM      3  C   UNL     1      -5.484  12.867  20.073  0.00  0.00    +0.000 C 
ATOM      4  C   UNL     1      -4.192  12.447  20.749  0.00  0.00    +0.000 C 
ATOM      5  C   UNL     1      -2.893  12.416  19.952  0.00  0.00    +0.000 C 
ATOM      6  C   UNL     1      -3.195  11.719  18.658  0.00  0.00    +0.000 C 
ATOM      7  C   UNL     1      -2.460  10.752  18.114  0.00  0.00    +0.000 C 
ATOM      8  C   UNL     1      -3.106   9.870  17.070  0.00  0.00    +0.000 C 
ATOM      9  C   UNL     1      -1.097  10.529  18.571  0.00  0.00    +0.000 C 
ATOM     10  C   UNL     1      -0.260   9.833  17.786  0.00  0.00    +0.000 C 
ATOM     11  C   UNL     1       1.108   9.619  18.260  0.00  0.00    +0.000 C 
ATOM     12  O   UNL     1       2.024   9.447  17.449  0.00  0.00    +0.000 OA
ATOM     13  C   UNL     1       1.252   9.414  19.738  0.00  0.00    +0.000 C 
ATOM     14  C   UNL     1       0.542  10.501  20.560  0.00  0.00    +0.000 C 
ATOM     15  C   UNL     1      -0.634  11.245  19.871  0.00  0.00    +0.000 C 
ATOM     16  C   UNL     1      -1.869  11.589  20.793  0.00  0.00    +0.000 C 
ATOM     17  C   UNL     1      -1.703  12.322  22.160  0.00  0.00    +0.000 C 
ATOM     18  C   UNL     1      -3.093  12.493  22.941  0.00  0.00    +0.000 C 
ATOM     19  C   UNL     1      -4.203  13.225  22.096  0.00  0.00    +0.000 C 
ATOM     20  C   UNL     1      -3.781  14.715  22.011  0.00  0.00    +0.000 C 
ENDROOT
BRANCH   1  22
ATOM     21  C   UNL     1      -6.718  15.159  23.841  0.00  0.00    +0.000 C 
ATOM     22  C   UNL     1      -6.608  14.458  22.516  0.00  0.00    +0.000 C 
ATOM     23  O   UNL     1      -7.245  14.899  21.560  0.00  0.00    +0.000 OA
ENDBRANCH   1  22
BRANCH   1  24
ATOM     24  O   UNL     1      -6.030  12.249  23.545  0.00  0.00    +0.000 OA
ATOM     25  H   UNL     1      -5.609  12.643  24.335  0.00  0.00    +0.000 HD
ENDBRANCH   1  24
TORSDOF 2
ENDMDL
MODEL 4
REMARK VINA RESULT:      -6.9      3.794      8.802
REMARK  Name = 
REMARK  5 active torsions:
REMARK  status: ('A' for Active; 'I' for Inactive)
REMARK    1  A    between atoms: C_1  and  C_2
REMARK    2  A    between atoms: C_2  and  C_4
REMARK    3  A    between atoms: C_4  and  O_5
REMARK    4  A    between atoms: C_11  and  C_12
REMARK    5  A    between atoms: C_23  and  C_24
REMARK                            x       y       z     vdW  Elec       q    Type
REMARK                         _______ _______ _______ _____ _____    ______ ____
ROOT
ATOM      1  C   UNL     1      -4.214  13.115  22.594  0.00  0.00    +0.000 C 
ATOM      2  C   UNL     1      -4.824  12.887  21.178  0.00  0.00    +0.000 C 
ATOM      3  C   UNL     1      -3.652  13.165  20.256  0.00  0.00    +0.000 C 
ATOM      4  C   UNL     1      -2.633  12.280  20.950  0.00  0.00    +0.000 C 
ATOM      5  C   UNL     1      -1.296  11.989  20.278  0.00  0.00    +0.000 C 
ATOM      6  C   UNL     1      -1.596  11.626  18.854  0.00  0.00    +0.000 C 
ATOM      7  C   UNL     1      -1.089  10.582  18.201  0.00  0.00    +0.000 C 
ATOM      8  C   UNL     1      -1.802  10.107  16.956  0.00  0.00    +0.000 C 
ATOM      9  C   UNL     1       0.081   9.896  18.725  0.00  0.00    +0.000 C 
ATOM     10  C   UNL     1       0.794   9.115  17.898  0.00  0.00    +0.000 C 
ATOM     11  C   UNL     1       1.969   8.432  18.441  0.00  0.00    +0.000 C 
ATOM     12  O   UNL     1       2.905   8.126  17.695  0.00  0.00    +0.000 OA
ATOM     13  C   UNL     1       1.844   7.965  19.859  0.00  0.00    +0.000 C 
ATOM     14  C   UNL     1       1.356   9.070  20.808  0.00  0.00    +0.000 C 
ATOM     15  C   UNL     1       0.539  10.229  20.173  0.00  0.00    +0.000 C 
ATOM     16  C   UNL     1      -0.668  10.775  21.032  0.00  0.00    +0.000 C 
ATOM     17  C   UNL     1      -0.498  11.201  22.523  0.00  0.00    +0.000 C 
ATOM     18  C   UNL     1      -1.881  11.652  23.198  0.00  0.00    +0.000 C 
ATOM     19  C   UNL     1      -2.616  12.804  22.414  0.00  0.00    +0.000 C 
ATOM     20  C   UNL     1      -1.790  14.096  22.652  0.00  0.00    +0.000 C 
ENDROOT
BRANCH   1  22
ATOM     21  C   UNL     1      -4.516  15.156  24.247  0.00  0.00    +0.000 C 
ATOM     22  C   UNL     1      -4.620  14.613  22.849  0.00  0.00    +0.000 C 
ATOM     23  O   UNL     1      -5.123  15.321  21.977  0.00  0.00    +0.000 OA
ENDBRANCH   1  22
BRANCH   1  24
ATOM     24  O   UNL     1      -4.825  12.200  23.485  0.00  0.00    +0.000 OA
ATOM     25  H   UNL     1      -5.202  11.468  22.958  0.00  0.00    +0.000 HD
ENDBRANCH   1  24
TORSDOF 2
ENDMDL
MODEL 5
REMARK VINA RESULT:      -6.6      1.666      6.950
REMARK  Name = 
REMARK  5 active torsions:
REMARK  status: ('A' for Active; 'I' for Inactive)
REMARK    1  A    between atoms: C_1  and  C_2
REMARK    2  A    between atoms: C_2  and  C_4
REMARK    3  A    between atoms: C_4  and  O_5
REMARK    4  A    between atoms: C_11  and  C_12
REMARK    5  A    between atoms: C_23  and  C_24
REMARK                            x       y       z     vdW  Elec       q    Type
REMARK                         _______ _______ _______ _____ _____    ______ ____
ROOT
ATOM      1  C   UNL     1       0.418  11.049  21.042  0.00  0.00    +0.000 C 
ATOM      2  C   UNL     1       0.456  10.020  22.213  0.00  0.00    +0.000 C 
ATOM      3  C   UNL     1       0.032   8.727  21.541  0.00  0.00    +0.000 C 
ATOM      4  C   UNL     1       0.988   8.787  20.365  0.00  0.00    +0.000 C 
ATOM      5  C   UNL     1       1.159   7.570  19.462  0.00  0.00    +0.000 C 
ATOM      6  C   UNL     1       1.324   6.382  20.363  0.00  0.00    +0.000 C 
ATOM      7  C   UNL     1       2.258   5.441  20.235  0.00  0.00    +0.000 C 
ATOM      8  C   UNL     1       2.566   4.576  21.436  0.00  0.00    +0.000 C 
ATOM      9  C   UNL     1       2.991   5.309  18.985  0.00  0.00    +0.000 C 
ATOM     10  C   UNL     1       3.636   4.159  18.735  0.00  0.00    +0.000 C 
ATOM     11  C   UNL     1       4.368   4.043  17.473  0.00  0.00    +0.000 C 
ATOM     12  O   UNL     1       4.550   2.933  16.965  0.00  0.00    +0.000 OA
ATOM     13  C   UNL     1       5.031   5.300  16.996  0.00  0.00    +0.000 C 
ATOM     14  C   UNL     1       4.078   6.505  16.976  0.00  0.00    +0.000 C 
ATOM     15  C   UNL     1       2.856   6.447  17.934  0.00  0.00    +0.000 C 
ATOM     16  C   UNL     1       2.456   7.808  18.626  0.00  0.00    +0.000 C 
ATOM     17  C   UNL     1       2.240   9.120  17.811  0.00  0.00    +0.000 C 
ATOM     18  C   UNL     1       1.911  10.381  18.746  0.00  0.00    +0.000 C 
ATOM     19  C   UNL     1       0.674  10.154  19.694  0.00  0.00    +0.000 C 
ATOM     20  C   UNL     1      -0.586  10.181  18.789  0.00  0.00    +0.000 C 
ENDROOT
BRANCH   1  22
ATOM     21  C   UNL     1      -1.427  12.821  20.377  0.00  0.00    +0.000 C 
ATOM     22  C   UNL     1      -1.023  11.652  21.231  0.00  0.00    +0.000 C 
ATOM     23  O   UNL     1      -1.786  11.278  22.121  0.00  0.00    +0.000 OA
ENDBRANCH   1  22
BRANCH   1  24
ATOM     24  O   UNL     1       1.459  11.985  21.251  0.00  0.00    +0.000 OA
ATOM     25  H   UNL     1       1.844  12.211  20.381  0.00  0.00    +0.000 HD
ENDBRANCH   1  24
TORSDOF 2
ENDMDL
MODEL 6
REMARK VINA RESULT:      -6.5      1.671      7.331
REMARK  Name = 
REMARK  5 active torsions:
REMARK  status: ('A' for Active; 'I' for Inactive)
REMARK    1  A    between atoms: C_1  and  C_2
REMARK    2  A    between atoms: C_2  and  C_4
REMARK    3  A    between atoms: C_4  and  O_5
REMARK    4  A    between atoms: C_11  and  C_12
REMARK    5  A    between atoms: C_23  and  C_24
REMARK                            x       y       z     vdW  Elec       q    Type
REMARK                         _______ _______ _______ _____ _____    ______ ____
ROOT
ATOM      1  C   UNL     1      -0.216  10.354  19.100  0.00  0.00    +0.000 C 
ATOM      2  C   UNL     1       0.493  10.123  17.731  0.00  0.00    +0.000 C 
ATOM      3  C   UNL     1       1.880   9.665  18.142  0.00  0.00    +0.000 C 
ATOM      4  C   UNL     1       1.456   8.592  19.128  0.00  0.00    +0.000 C 
ATOM      5  C   UNL     1       2.489   7.618  19.680  0.00  0.00    +0.000 C 
ATOM      6  C   UNL     1       3.295   7.131  18.512  0.00  0.00    +0.000 C 
ATOM      7  C   UNL     1       3.603   5.860  18.263  0.00  0.00    +0.000 C 
ATOM      8  C   UNL     1       4.027   5.493  16.860  0.00  0.00    +0.000 C 
ATOM      9  C   UNL     1       3.466   4.860  19.311  0.00  0.00    +0.000 C 
ATOM     10  C   UNL     1       4.117   3.694  19.176  0.00  0.00    +0.000 C 
ATOM     11  C   UNL     1       3.969   2.699  20.240  0.00  0.00    +0.000 C 
ATOM     12  O   UNL     1       4.862   1.869  20.438  0.00  0.00    +0.000 OA
ATOM     13  C   UNL     1       2.616   2.640  20.883  0.00  0.00    +0.000 C 
ATOM     14  C   UNL     1       2.115   4.019  21.338  0.00  0.00    +0.000 C 
ATOM     15  C   UNL     1       2.703   5.256  20.606  0.00  0.00    +0.000 C 
ATOM     16  C   UNL     1       1.695   6.438  20.326  0.00  0.00    +0.000 C 
ATOM     17  C   UNL     1       0.802   7.049  21.450  0.00  0.00    +0.000 C 
ATOM     18  C   UNL     1      -0.188   8.186  20.901  0.00  0.00    +0.000 C 
ATOM     19  C   UNL     1       0.552   9.350  20.142  0.00  0.00    +0.000 C 
ATOM     20  C   UNL     1       1.303  10.174  21.221  0.00  0.00    +0.000 C 
ENDROOT
BRANCH   1  22
ATOM     21  C   UNL     1      -0.954  12.672  20.135  0.00  0.00    +0.000 C 
ATOM     22  C   UNL     1       0.022  11.897  19.296  0.00  0.00    +0.000 C 
ATOM     23  O   UNL     1       0.908  12.511  18.700  0.00  0.00    +0.000 OA
ENDBRANCH   1  22
BRANCH   1  24
ATOM     24  O   UNL     1      -1.579  10.003  18.949  0.00  0.00    +0.000 OA
ATOM     25  H   UNL     1      -1.635   9.033  18.848  0.00  0.00    +0.000 HD
ENDBRANCH   1  24
TORSDOF 2
ENDMDL
MODEL 7
REMARK VINA RESULT:      -6.5      6.264      9.769
REMARK  Name = 
REMARK  5 active torsions:
REMARK  status: ('A' for Active; 'I' for Inactive)
REMARK    1  A    between atoms: C_1  and  C_2
REMARK    2  A    between atoms: C_2  and  C_4
REMARK    3  A    between atoms: C_4  and  O_5
REMARK    4  A    between atoms: C_11  and  C_12
REMARK    5  A    between atoms: C_23  and  C_24
REMARK                            x       y       z     vdW  Elec       q    Type
REMARK                         _______ _______ _______ _____ _____    ______ ____
ROOT
ATOM      1  C   UNL     1      -3.837  13.495  23.852  0.00  0.00    +0.000 C 
ATOM      2  C   UNL     1      -5.317  13.379  23.377  0.00  0.00    +0.000 C 
ATOM      3  C   UNL     1      -5.265  13.940  21.968  0.00  0.00    +0.000 C 
ATOM      4  C   UNL     1      -4.092  13.118  21.466  0.00  0.00    +0.000 C 
ATOM      5  C   UNL     1      -3.751  13.110  19.980  0.00  0.00    +0.000 C 
ATOM      6  C   UNL     1      -5.040  12.906  19.240  0.00  0.00    +0.000 C 
ATOM      7  C   UNL     1      -5.229  12.041  18.246  0.00  0.00    +0.000 C 
ATOM      8  C   UNL     1      -6.649  11.645  17.908  0.00  0.00    +0.000 C 
ATOM      9  C   UNL     1      -4.086  11.459  17.560  0.00  0.00    +0.000 C 
ATOM     10  C   UNL     1      -4.273  10.904  16.353  0.00  0.00    +0.000 C 
ATOM     11  C   UNL     1      -3.112  10.324  15.676  0.00  0.00    +0.000 C 
ATOM     12  O   UNL     1      -3.086  10.256  14.443  0.00  0.00    +0.000 OA
ATOM     13  C   UNL     1      -2.113   9.656  16.572  0.00  0.00    +0.000 C 
ATOM     14  C   UNL     1      -1.684  10.543  17.750  0.00  0.00    +0.000 C 
ATOM     15  C   UNL     1      -2.678  11.652  18.191  0.00  0.00    +0.000 C 
ATOM     16  C   UNL     1      -2.788  11.904  19.745  0.00  0.00    +0.000 C 
ATOM     17  C   UNL     1      -1.531  12.143  20.637  0.00  0.00    +0.000 C 
ATOM     18  C   UNL     1      -1.897  12.302  22.190  0.00  0.00    +0.000 C 
ATOM     19  C   UNL     1      -2.952  13.436  22.474  0.00  0.00    +0.000 C 
ATOM     20  C   UNL     1      -2.220  14.786  22.252  0.00  0.00    +0.000 C 
ENDROOT
BRANCH   1  22
ATOM     21  C   UNL     1      -2.814  15.166  25.626  0.00  0.00    +0.000 C 
ATOM     22  C   UNL     1      -3.880  14.874  24.608  0.00  0.00    +0.000 C 
ATOM     23  O   UNL     1      -4.811  15.669  24.482  0.00  0.00    +0.000 OA
ENDBRANCH   1  22
BRANCH   1  24
ATOM     24  O   UNL     1      -3.561  12.391  24.694  0.00  0.00    +0.000 OA
ATOM     25  H   UNL     1      -3.565  12.706  25.620  0.00  0.00    +0.000 HD
ENDBRANCH   1  24
TORSDOF 2
ENDMDL
MODEL 8
REMARK VINA RESULT:      -6.1      9.180     10.555
REMARK  Name = 
REMARK  5 active torsions:
REMARK  status: ('A' for Active; 'I' for Inactive)
REMARK    1  A    between atoms: C_1  and  C_2
REMARK    2  A    between atoms: C_2  and  C_4
REMARK    3  A    between atoms: C_4  and  O_5
REMARK    4  A    between atoms: C_11  and  C_12
REMARK    5  A    between atoms: C_23  and  C_24
REMARK                            x       y       z     vdW  Elec       q    Type
REMARK                         _______ _______ _______ _____ _____    ______ ____
ROOT
ATOM      1  C   UNL     1       9.886  12.920  18.333  0.00  0.00    +0.000 C 
ATOM      2  C   UNL     1       9.453  11.584  19.010  0.00  0.00    +0.000 C 
ATOM      3  C   UNL     1       9.949  11.750  20.434  0.00  0.00    +0.000 C 
ATOM      4  C   UNL     1       9.360  13.124  20.696  0.00  0.00    +0.000 C 
ATOM      5  C   UNL     1       9.355  13.691  22.111  0.00  0.00    +0.000 C 
ATOM      6  C   UNL     1       8.862  12.599  23.014  0.00  0.00    +0.000 C 
ATOM      7  C   UNL     1       7.933  12.741  23.958  0.00  0.00    +0.000 C 
ATOM      8  C   UNL     1       7.244  11.496  24.470  0.00  0.00    +0.000 C 
ATOM      9  C   UNL     1       7.564  14.068  24.423  0.00  0.00    +0.000 C 
ATOM     10  C   UNL     1       6.930  14.186  25.600  0.00  0.00    +0.000 C 
ATOM     11  C   UNL     1       6.567  15.530  26.053  0.00  0.00    +0.000 C 
ATOM     12  O   UNL     1       6.450  15.764  27.260  0.00  0.00    +0.000 OA
ATOM     13  C   UNL     1       6.155  16.483  24.973  0.00  0.00    +0.000 C 
ATOM     14  C   UNL     1       7.162  16.541  23.814  0.00  0.00    +0.000 C 
ATOM     15  C   UNL     1       8.066  15.295  23.609  0.00  0.00    +0.000 C 
ATOM     16  C   UNL     1       8.359  14.893  22.110  0.00  0.00    +0.000 C 
ATOM     17  C   UNL     1       8.887  15.923  21.065  0.00  0.00    +0.000 C 
ATOM     18  C   UNL     1       9.037  15.292  19.598  0.00  0.00    +0.000 C 
ATOM     19  C   UNL     1       9.946  14.007  19.558  0.00  0.00    +0.000 C 
ATOM     20  C   UNL     1      11.404  14.491  19.771  0.00  0.00    +0.000 C 
ENDROOT
BRANCH   1  22
ATOM     21  C   UNL     1      11.777  13.270  16.520  0.00  0.00    +0.000 C 
ATOM     22  C   UNL     1      11.260  12.492  17.697  0.00  0.00    +0.000 C 
ATOM     23  O   UNL     1      11.868  11.482  18.052  0.00  0.00    +0.000 OA
ENDBRANCH   1  22
BRANCH   1  24
ATOM     24  O   UNL     1       8.899  13.266  17.379  0.00  0.00    +0.000 OA
ATOM     25  H   UNL     1       8.976  12.649  16.624  0.00  0.00    +0.000 HD
ENDBRANCH   1  24
TORSDOF 2
ENDMDL
MODEL 9
REMARK VINA RESULT:      -6.1      8.920     11.628
REMARK  Name = 
REMARK  5 active torsions:
REMARK  status: ('A' for Active; 'I' for Inactive)
REMARK    1  A    between atoms: C_1  and  C_2
REMARK    2  A    between atoms: C_2  and  C_4
REMARK    3  A    between atoms: C_4  and  O_5
REMARK    4  A    between atoms: C_11  and  C_12
REMARK    5  A    between atoms: C_23  and  C_24
REMARK                            x       y       z     vdW  Elec       q    Type
REMARK                         _______ _______ _______ _____ _____    ______ ____
ROOT
ATOM      1  C   UNL     1       6.159  14.572  25.455  0.00  0.00    +0.000 C 
ATOM      2  C   UNL     1       6.551  15.907  24.751  0.00  0.00    +0.000 C 
ATOM      3  C   UNL     1       8.027  15.712  24.456  0.00  0.00    +0.000 C 
ATOM      4  C   UNL     1       7.924  14.346  23.802  0.00  0.00    +0.000 C 
ATOM      5  C   UNL     1       9.129  13.760  23.075  0.00  0.00    +0.000 C 
ATOM      6  C   UNL     1       9.681  14.849  22.202  0.00  0.00    +0.000 C 
ATOM      7  C   UNL     1      10.021  14.713  20.922  0.00  0.00    +0.000 C 
ATOM      8  C   UNL     1      10.140  15.964  20.082  0.00  0.00    +0.000 C 
ATOM      9  C   UNL     1      10.206  13.387  20.355  0.00  0.00    +0.000 C 
ATOM     10  C   UNL     1      10.897  13.266  19.211  0.00  0.00    +0.000 C 
ATOM     11  C   UNL     1      11.074  11.924  18.655  0.00  0.00    +0.000 C 
ATOM     12  O   UNL     1      12.051  11.676  17.940  0.00  0.00    +0.000 OA
ATOM     13  C   UNL     1       9.914  10.993  18.837  0.00  0.00    +0.000 C 
ATOM     14  C   UNL     1       9.425  10.931  20.292  0.00  0.00    +0.000 C 
ATOM     15  C   UNL     1       9.732  12.162  21.188  0.00  0.00    +0.000 C 
ATOM     16  C   UNL     1       8.598  12.578  22.204  0.00  0.00    +0.000 C 
ATOM     17  C   UNL     1       7.942  11.552  23.179  0.00  0.00    +0.000 C 
ATOM     18  C   UNL     1       6.767  12.200  24.058  0.00  0.00    +0.000 C 
ATOM     19  C   UNL     1       7.221  13.468  24.875  0.00  0.00    +0.000 C 
ATOM     20  C   UNL     1       8.133  12.952  26.019  0.00  0.00    +0.000 C 
ENDROOT
BRANCH   1  22
ATOM     21  C   UNL     1       5.561  14.197  28.002  0.00  0.00    +0.000 C 
ATOM     22  C   UNL     1       6.316  14.981  26.966  0.00  0.00    +0.000 C 
ATOM     23  O   UNL     1       6.939  15.982  27.319  0.00  0.00    +0.000 OA
ENDBRANCH   1  22
BRANCH   1  24
ATOM     24  O   UNL     1       4.829  14.258  25.084  0.00  0.00    +0.000 OA
ATOM     25  H   UNL     1       4.421  15.061  24.704  0.00  0.00    +0.000 HD
ENDBRANCH   1  24
TORSDOF 2
ENDMDL
