MODEL 1
REMARK VINA RESULT:      -8.2      0.000      0.000
REMARK  Name = 
REMARK  5 active torsions:
REMARK  status: ('A' for Active; 'I' for Inactive)
REMARK    1  A    between atoms: C_5  and  C_6
REMARK    2  A    between atoms: C_9  and  N_10
REMARK    3  A    between atoms: N_10  and  C_11
REMARK    4  A    between atoms: C_11  and  C_12
REMARK    5  A    between atoms: C_19  and  N_20
REMARK                            x       y       z     vdW  Elec       q    Type
REMARK                         _______ _______ _______ _____ _____    ______ ____
ROOT
ATOM      1  C   UNL     1       1.563   7.493  20.402  0.00  0.00    +0.000 A 
ATOM      2  C   UNL     1       2.289   7.638  19.223  0.00  0.00    +0.000 A 
ATOM      3  C   UNL     1       2.893   6.531  18.605  0.00  0.00    +0.000 A 
ATOM      4  C   UNL     1       2.837   5.210  19.125  0.00  0.00    +0.000 A 
ATOM      5  C   UNL     1       2.081   5.057  20.307  0.00  0.00    +0.000 A 
ATOM      6  C   UNL     1       1.470   6.190  20.916  0.00  0.00    +0.000 A 
ENDROOT
BRANCH   1  11
ATOM      7  N   UNL     1      -0.873  11.899  22.842  0.00  0.00    +0.000 N 
ATOM      8  C   UNL     1      -0.316  10.782  22.261  0.00  0.00    +0.000 A 
ATOM      9  N   UNL     1       0.485  10.021  23.011  0.00  0.00    +0.000 NA
ATOM     10  C   UNL     1       1.059   8.958  22.399  0.00  0.00    +0.000 A 
ATOM     11  C   UNL     1       0.883   8.621  21.067  0.00  0.00    +0.000 A 
ATOM     12  C   UNL     1       0.030   9.496  20.409  0.00  0.00    +0.000 A 
ATOM     13  N   UNL     1      -0.562  10.572  20.968  0.00  0.00    +0.000 NA
ATOM     14  H   UNL     1      -0.307  12.188  23.627  0.00  0.00    +0.000 HD
ATOM     15  H   UNL     1      -1.058  12.591  22.128  0.00  0.00    +0.000 HD
ENDBRANCH   1  11
BRANCH   5  16
ATOM     16  N   UNL     1       1.784   3.777  20.992  0.00  0.00    +0.000 N 
ATOM     17  O   UNL     1       1.011   2.964  20.485  0.00  0.00    +0.000 OA
ATOM     18  O   UNL     1       2.338   3.573  22.085  0.00  0.00    +0.000 OA
ENDBRANCH   5  16
BRANCH   4  19
ATOM     19  N   UNL     1       3.474   4.263  18.321  0.00  0.00    +0.000 N 
ATOM     20  H   UNL     1       3.162   4.287  17.351  0.00  0.00    +0.000 HD
BRANCH  19  21
ATOM     21  C   UNL     1       4.891   3.925  18.387  0.00  0.00    +0.000 C 
BRANCH  21  22
ATOM     22  C   UNL     1       5.544   4.249  17.059  0.00  0.00    +0.000 A 
ATOM     23  C   UNL     1       4.820   4.158  15.863  0.00  0.00    +0.000 A 
ATOM     24  C   UNL     1       5.443   4.421  14.642  0.00  0.00    +0.000 A 
ATOM     25  C   UNL     1       6.794   4.768  14.612  0.00  0.00    +0.000 A 
ATOM     26 CL   UNL     1       7.566   5.066  13.104  0.00  0.00    +0.000 Cl
ATOM     27  C   UNL     1       7.526   4.865  15.793  0.00  0.00    +0.000 A 
ATOM     28  C   UNL     1       6.904   4.602  17.013  0.00  0.00    +0.000 A 
ENDBRANCH  21  22
ENDBRANCH  19  21
ENDBRANCH   4  19
TORSDOF 5
ENDMDL
MODEL 2
REMARK VINA RESULT:      -8.0      0.513      1.199
REMARK  Name = 
REMARK  5 active torsions:
REMARK  status: ('A' for Active; 'I' for Inactive)
REMARK    1  A    between atoms: C_5  and  C_6
REMARK    2  A    between atoms: C_9  and  N_10
REMARK    3  A    between atoms: N_10  and  C_11
REMARK    4  A    between atoms: C_11  and  C_12
REMARK    5  A    between atoms: C_19  and  N_20
REMARK                            x       y       z     vdW  Elec       q    Type
REMARK                         _______ _______ _______ _____ _____    ______ ____
ROOT
ATOM      1  C   UNL     1       1.691   7.651  20.100  0.00  0.00    +0.000 A 
ATOM      2  C   UNL     1       2.244   7.830  18.835  0.00  0.00    +0.000 A 
ATOM      3  C   UNL     1       2.835   6.759  18.146  0.00  0.00    +0.000 A 
ATOM      4  C   UNL     1       2.938   5.443  18.673  0.00  0.00    +0.000 A 
ATOM      5  C   UNL     1       2.357   5.254  19.945  0.00  0.00    +0.000 A 
ATOM      6  C   UNL     1       1.757   6.351  20.627  0.00  0.00    +0.000 A 
ENDROOT
BRANCH   1  11
ATOM      7  N   UNL     1      -0.951  11.637  23.003  0.00  0.00    +0.000 N 
ATOM      8  C   UNL     1      -0.262  10.695  22.273  0.00  0.00    +0.000 A 
ATOM      9  N   UNL     1      -0.537  10.591  20.970  0.00  0.00    +0.000 NA
ATOM     10  C   UNL     1       0.120   9.622  20.288  0.00  0.00    +0.000 A 
ATOM     11  C   UNL     1       1.030   8.739  20.846  0.00  0.00    +0.000 A 
ATOM     12  C   UNL     1       1.217   8.961  22.203  0.00  0.00    +0.000 A 
ATOM     13  N   UNL     1       0.587   9.906  22.931  0.00  0.00    +0.000 NA
ATOM     14  H   UNL     1      -1.821  11.854  22.538  0.00  0.00    +0.000 HD
ATOM     15  H   UNL     1      -1.006  11.339  23.968  0.00  0.00    +0.000 HD
ENDBRANCH   1  11
BRANCH   5  16
ATOM     16  N   UNL     1       2.242   3.965  20.667  0.00  0.00    +0.000 N 
ATOM     17  O   UNL     1       2.260   3.938  21.898  0.00  0.00    +0.000 OA
ATOM     18  O   UNL     1       2.138   2.934  19.981  0.00  0.00    +0.000 OA
ENDBRANCH   5  16
BRANCH   4  19
ATOM     19  N   UNL     1       3.527   4.532  17.795  0.00  0.00    +0.000 N 
ATOM     20  H   UNL     1       3.272   4.693  16.821  0.00  0.00    +0.000 HD
BRANCH  19  21
ATOM     21  C   UNL     1       4.902   4.051  17.883  0.00  0.00    +0.000 C 
BRANCH  21  22
ATOM     22  C   UNL     1       5.622   4.357  16.586  0.00  0.00    +0.000 A 
ATOM     23  C   UNL     1       5.123   3.890  15.361  0.00  0.00    +0.000 A 
ATOM     24  C   UNL     1       5.817   4.146  14.178  0.00  0.00    +0.000 A 
ATOM     25  C   UNL     1       7.014   4.861  14.213  0.00  0.00    +0.000 A 
ATOM     26 CL   UNL     1       7.879   5.151  12.755  0.00  0.00    +0.000 Cl
ATOM     27  C   UNL     1       7.520   5.333  15.422  0.00  0.00    +0.000 A 
ATOM     28  C   UNL     1       6.827   5.078  16.606  0.00  0.00    +0.000 A 
ENDBRANCH  21  22
ENDBRANCH  19  21
ENDBRANCH   4  19
TORSDOF 5
ENDMDL
MODEL 3
REMARK VINA RESULT:      -7.9      3.975      7.996
REMARK  Name = 
REMARK  5 active torsions:
REMARK  status: ('A' for Active; 'I' for Inactive)
REMARK    1  A    between atoms: C_5  and  C_6
REMARK    2  A    between atoms: C_9  and  N_10
REMARK    3  A    between atoms: N_10  and  C_11
REMARK    4  A    between atoms: C_11  and  C_12
REMARK    5  A    between atoms: C_19  and  N_20
REMARK                            x       y       z     vdW  Elec       q    Type
REMARK                         _______ _______ _______ _____ _____    ______ ____
ROOT
ATOM      1  C   UNL     1       2.316   7.009  19.617  0.00  0.00    +0.000 A 
ATOM      2  C   UNL     1       2.380   7.846  18.506  0.00  0.00    +0.000 A 
ATOM      3  C   UNL     1       1.725   9.088  18.498  0.00  0.00    +0.000 A 
ATOM      4  C   UNL     1       0.946   9.577  19.581  0.00  0.00    +0.000 A 
ATOM      5  C   UNL     1       0.900   8.741  20.717  0.00  0.00    +0.000 A 
ATOM      6  C   UNL     1       1.575   7.486  20.710  0.00  0.00    +0.000 A 
ENDROOT
BRANCH   1  11
ATOM      7  N   UNL     1       4.902   2.049  19.674  0.00  0.00    +0.000 N 
ATOM      8  C   UNL     1       4.288   3.281  19.712  0.00  0.00    +0.000 A 
ATOM      9  N   UNL     1       3.102   3.370  20.319  0.00  0.00    +0.000 NA
ATOM     10  C   UNL     1       2.499   4.582  20.296  0.00  0.00    +0.000 A 
ATOM     11  C   UNL     1       3.015   5.712  19.683  0.00  0.00    +0.000 A 
ATOM     12  C   UNL     1       4.248   5.475  19.092  0.00  0.00    +0.000 A 
ATOM     13  N   UNL     1       4.890   4.289  19.080  0.00  0.00    +0.000 NA
ATOM     14  H   UNL     1       4.208   1.323  19.779  0.00  0.00    +0.000 HD
ATOM     15  H   UNL     1       5.503   1.999  18.862  0.00  0.00    +0.000 HD
ENDBRANCH   1  11
BRANCH   5  16
ATOM     16  N   UNL     1       0.244   9.060  22.007  0.00  0.00    +0.000 N 
ATOM     17  O   UNL     1      -0.699   8.380  22.411  0.00  0.00    +0.000 OA
ATOM     18  O   UNL     1       0.681  10.035  22.643  0.00  0.00    +0.000 OA
ENDBRANCH   5  16
BRANCH   4  19
ATOM     19  N   UNL     1       0.424  10.853  19.366  0.00  0.00    +0.000 N 
ATOM     20  H   UNL     1       0.807  11.307  18.537  0.00  0.00    +0.000 HD
BRANCH  19  21
ATOM     21  C   UNL     1      -0.973  11.229  19.548  0.00  0.00    +0.000 C 
BRANCH  21  22
ATOM     22  C   UNL     1      -1.746  10.905  18.286  0.00  0.00    +0.000 A 
ATOM     23  C   UNL     1      -1.342   9.857  17.447  0.00  0.00    +0.000 A 
ATOM     24  C   UNL     1      -2.040   9.593  16.267  0.00  0.00    +0.000 A 
ATOM     25  C   UNL     1      -3.138  10.379  15.918  0.00  0.00    +0.000 A 
ATOM     26 CL   UNL     1      -3.980  10.068  14.451  0.00  0.00    +0.000 Cl
ATOM     27  C   UNL     1      -3.552  11.422  16.744  0.00  0.00    +0.000 A 
ATOM     28  C   UNL     1      -2.855  11.687  17.923  0.00  0.00    +0.000 A 
ENDBRANCH  21  22
ENDBRANCH  19  21
ENDBRANCH   4  19
TORSDOF 5
ENDMDL
MODEL 4
REMARK VINA RESULT:      -7.9      3.915      7.995
REMARK  Name = 
REMARK  5 active torsions:
REMARK  status: ('A' for Active; 'I' for Inactive)
REMARK    1  A    between atoms: C_5  and  C_6
REMARK    2  A    between atoms: C_9  and  N_10
REMARK    3  A    between atoms: N_10  and  C_11
REMARK    4  A    between atoms: C_11  and  C_12
REMARK    5  A    between atoms: C_19  and  N_20
REMARK                            x       y       z     vdW  Elec       q    Type
REMARK                         _______ _______ _______ _____ _____    ______ ____
ROOT
ATOM      1  C   UNL     1       2.321   7.036  19.555  0.00  0.00    +0.000 A 
ATOM      2  C   UNL     1       2.278   7.882  18.450  0.00  0.00    +0.000 A 
ATOM      3  C   UNL     1       1.632   9.127  18.518  0.00  0.00    +0.000 A 
ATOM      4  C   UNL     1       0.967   9.610  19.677  0.00  0.00    +0.000 A 
ATOM      5  C   UNL     1       1.031   8.764  20.806  0.00  0.00    +0.000 A 
ATOM      6  C   UNL     1       1.695   7.507  20.721  0.00  0.00    +0.000 A 
ENDROOT
BRANCH   1  11
ATOM      7  N   UNL     1       5.023   2.140  19.694  0.00  0.00    +0.000 N 
ATOM      8  C   UNL     1       4.338   3.331  19.608  0.00  0.00    +0.000 A 
ATOM      9  N   UNL     1       4.932   4.350  18.983  0.00  0.00    +0.000 NA
ATOM     10  C   UNL     1       4.256   5.523  18.958  0.00  0.00    +0.000 A 
ATOM     11  C   UNL     1       3.017   5.736  19.541  0.00  0.00    +0.000 A 
ATOM     12  C   UNL     1       2.520   4.595  20.155  0.00  0.00    +0.000 A 
ATOM     13  N   UNL     1       3.153   3.405  20.214  0.00  0.00    +0.000 NA
ATOM     14  H   UNL     1       6.014   2.314  19.604  0.00  0.00    +0.000 HD
ATOM     15  H   UNL     1       4.716   1.635  20.515  0.00  0.00    +0.000 HD
ENDBRANCH   1  11
BRANCH   5  16
ATOM     16  N   UNL     1       0.509   9.075  22.157  0.00  0.00    +0.000 N 
ATOM     17  O   UNL     1      -0.667   8.843  22.439  0.00  0.00    +0.000 OA
ATOM     18  O   UNL     1       1.300   9.580  22.972  0.00  0.00    +0.000 OA
ENDBRANCH   5  16
BRANCH   4  19
ATOM     19  N   UNL     1       0.433  10.889  19.526  0.00  0.00    +0.000 N 
ATOM     20  H   UNL     1       0.812  11.389  18.722  0.00  0.00    +0.000 HD
BRANCH  19  21
ATOM     21  C   UNL     1      -0.969  11.242  19.722  0.00  0.00    +0.000 C 
BRANCH  21  22
ATOM     22  C   UNL     1      -1.742  10.944  18.454  0.00  0.00    +0.000 A 
ATOM     23  C   UNL     1      -2.416   9.725  18.294  0.00  0.00    +0.000 A 
ATOM     24  C   UNL     1      -3.092   9.447  17.105  0.00  0.00    +0.000 A 
ATOM     25  C   UNL     1      -3.090  10.381  16.069  0.00  0.00    +0.000 A 
ATOM     26 CL   UNL     1      -3.903  10.025  14.596  0.00  0.00    +0.000 Cl
ATOM     27  C   UNL     1      -2.427  11.598  16.215  0.00  0.00    +0.000 A 
ATOM     28  C   UNL     1      -1.751  11.876  17.403  0.00  0.00    +0.000 A 
ENDBRANCH  21  22
ENDBRANCH  19  21
ENDBRANCH   4  19
TORSDOF 5
ENDMDL
MODEL 5
REMARK VINA RESULT:      -7.9      0.751      1.544
REMARK  Name = 
REMARK  5 active torsions:
REMARK  status: ('A' for Active; 'I' for Inactive)
REMARK    1  A    between atoms: C_5  and  C_6
REMARK    2  A    between atoms: C_9  and  N_10
REMARK    3  A    between atoms: N_10  and  C_11
REMARK    4  A    between atoms: C_11  and  C_12
REMARK    5  A    between atoms: C_19  and  N_20
REMARK                            x       y       z     vdW  Elec       q    Type
REMARK                         _______ _______ _______ _____ _____    ______ ____
ROOT
ATOM      1  C   UNL     1       1.760   7.736  20.121  0.00  0.00    +0.000 A 
ATOM      2  C   UNL     1       2.360   7.983  18.890  0.00  0.00    +0.000 A 
ATOM      3  C   UNL     1       3.018   6.959  18.188  0.00  0.00    +0.000 A 
ATOM      4  C   UNL     1       3.144   5.628  18.668  0.00  0.00    +0.000 A 
ATOM      5  C   UNL     1       2.515   5.370  19.905  0.00  0.00    +0.000 A 
ATOM      6  C   UNL     1       1.848   6.419  20.601  0.00  0.00    +0.000 A 
ENDROOT
BRANCH   1  11
ATOM      7  N   UNL     1      -1.136  11.514  23.059  0.00  0.00    +0.000 N 
ATOM      8  C   UNL     1      -0.387  10.625  22.322  0.00  0.00    +0.000 A 
ATOM      9  N   UNL     1      -0.639  10.531  21.014  0.00  0.00    +0.000 NA
ATOM     10  C   UNL     1       0.079   9.612  20.324  0.00  0.00    +0.000 A 
ATOM     11  C   UNL     1       1.030   8.771  20.877  0.00  0.00    +0.000 A 
ATOM     12  C   UNL     1       1.187   8.977  22.241  0.00  0.00    +0.000 A 
ATOM     13  N   UNL     1       0.496   9.872  22.977  0.00  0.00    +0.000 NA
ATOM     14  H   UNL     1      -2.011  11.691  22.586  0.00  0.00    +0.000 HD
ATOM     15  H   UNL     1      -1.187  11.194  24.018  0.00  0.00    +0.000 HD
ENDBRANCH   1  11
BRANCH   5  16
ATOM     16  N   UNL     1       2.414   4.051  20.573  0.00  0.00    +0.000 N 
ATOM     17  O   UNL     1       1.482   3.811  21.341  0.00  0.00    +0.000 OA
ATOM     18  O   UNL     1       3.305   3.219  20.329  0.00  0.00    +0.000 OA
ENDBRANCH   5  16
BRANCH   4  19
ATOM     19  N   UNL     1       3.801   4.772  17.784  0.00  0.00    +0.000 N 
ATOM     20  H   UNL     1       3.499   4.888  16.817  0.00  0.00    +0.000 HD
BRANCH  19  21
ATOM     21  C   UNL     1       5.222   4.446  17.832  0.00  0.00    +0.000 C 
BRANCH  21  22
ATOM     22  C   UNL     1       5.784   4.451  16.426  0.00  0.00    +0.000 A 
ATOM     23  C   UNL     1       7.081   4.918  16.173  0.00  0.00    +0.000 A 
ATOM     24  C   UNL     1       7.573   4.953  14.867  0.00  0.00    +0.000 A 
ATOM     25  C   UNL     1       6.769   4.529  13.809  0.00  0.00    +0.000 A 
ATOM     26 CL   UNL     1       7.369   4.598  12.199  0.00  0.00    +0.000 Cl
ATOM     27  C   UNL     1       5.479   4.059  14.046  0.00  0.00    +0.000 A 
ATOM     28  C   UNL     1       4.986   4.024  15.351  0.00  0.00    +0.000 A 
ENDBRANCH  21  22
ENDBRANCH  19  21
ENDBRANCH   4  19
TORSDOF 5
ENDMDL
MODEL 6
REMARK VINA RESULT:      -7.8      4.333      8.505
REMARK  Name = 
REMARK  5 active torsions:
REMARK  status: ('A' for Active; 'I' for Inactive)
REMARK    1  A    between atoms: C_5  and  C_6
REMARK    2  A    between atoms: C_9  and  N_10
REMARK    3  A    between atoms: N_10  and  C_11
REMARK    4  A    between atoms: C_11  and  C_12
REMARK    5  A    between atoms: C_19  and  N_20
REMARK                            x       y       z     vdW  Elec       q    Type
REMARK                         _______ _______ _______ _____ _____    ______ ____
ROOT
ATOM      1  C   UNL     1       2.277   7.128  19.568  0.00  0.00    +0.000 A 
ATOM      2  C   UNL     1       2.189   7.952  18.450  0.00  0.00    +0.000 A 
ATOM      3  C   UNL     1       1.565   9.208  18.525  0.00  0.00    +0.000 A 
ATOM      4  C   UNL     1       0.969   9.723  19.708  0.00  0.00    +0.000 A 
ATOM      5  C   UNL     1       1.079   8.899  20.848  0.00  0.00    +0.000 A 
ATOM      6  C   UNL     1       1.720   7.631  20.755  0.00  0.00    +0.000 A 
ENDROOT
BRANCH   1  11
ATOM      7  N   UNL     1       4.908   2.192  19.669  0.00  0.00    +0.000 N 
ATOM      8  C   UNL     1       4.238   3.392  19.594  0.00  0.00    +0.000 A 
ATOM      9  N   UNL     1       4.830   4.397  18.943  0.00  0.00    +0.000 NA
ATOM     10  C   UNL     1       4.170   5.580  18.928  0.00  0.00    +0.000 A 
ATOM     11  C   UNL     1       2.953   5.816  19.544  0.00  0.00    +0.000 A 
ATOM     12  C   UNL     1       2.457   4.688  20.183  0.00  0.00    +0.000 A 
ATOM     13  N   UNL     1       3.073   3.489  20.233  0.00  0.00    +0.000 NA
ATOM     14  H   UNL     1       5.898   2.350  19.550  0.00  0.00    +0.000 HD
ATOM     15  H   UNL     1       4.618   1.698  20.503  0.00  0.00    +0.000 HD
ENDBRANCH   1  11
BRANCH   5  16
ATOM     16  N   UNL     1       0.633   9.245  22.218  0.00  0.00    +0.000 N 
ATOM     17  O   UNL     1      -0.557   9.459  22.450  0.00  0.00    +0.000 OA
ATOM     18  O   UNL     1       1.505   9.316  23.102  0.00  0.00    +0.000 OA
ENDBRANCH   5  16
BRANCH   4  19
ATOM     19  N   UNL     1       0.446  11.008  19.558  0.00  0.00    +0.000 N 
ATOM     20  H   UNL     1       0.992  11.721  20.040  0.00  0.00    +0.000 HD
BRANCH  19  21
ATOM     21  C   UNL     1      -0.110  11.549  18.322  0.00  0.00    +0.000 C 
BRANCH  21  22
ATOM     22  C   UNL     1      -1.606  11.314  18.302  0.00  0.00    +0.000 A 
ATOM     23  C   UNL     1      -2.162  10.293  17.519  0.00  0.00    +0.000 A 
ATOM     24  C   UNL     1      -3.545  10.112  17.479  0.00  0.00    +0.000 A 
ATOM     25  C   UNL     1      -4.378  10.954  18.215  0.00  0.00    +0.000 A 
ATOM     26 CL   UNL     1      -6.084  10.745  18.144  0.00  0.00    +0.000 Cl
ATOM     27  C   UNL     1      -3.840  11.971  19.001  0.00  0.00    +0.000 A 
ATOM     28  C   UNL     1      -2.457  12.153  19.041  0.00  0.00    +0.000 A 
ENDBRANCH  21  22
ENDBRANCH  19  21
ENDBRANCH   4  19
TORSDOF 5
ENDMDL
MODEL 7
REMARK VINA RESULT:      -7.8      1.456      2.092
REMARK  Name = 
REMARK  5 active torsions:
REMARK  status: ('A' for Active; 'I' for Inactive)
REMARK    1  A    between atoms: C_5  and  C_6
REMARK    2  A    between atoms: C_9  and  N_10
REMARK    3  A    between atoms: N_10  and  C_11
REMARK    4  A    between atoms: C_11  and  C_12
REMARK    5  A    between atoms: C_19  and  N_20
REMARK                            x       y       z     vdW  Elec       q    Type
REMARK                         _______ _______ _______ _____ _____    ______ ____
ROOT
ATOM      1  C   UNL     1       1.651   7.324  20.029  0.00  0.00    +0.000 A 
ATOM      2  C   UNL     1       2.191   7.307  18.746  0.00  0.00    +0.000 A 
ATOM      3  C   UNL     1       2.637   6.108  18.166  0.00  0.00    +0.000 A 
ATOM      4  C   UNL     1       2.598   4.850  18.824  0.00  0.00    +0.000 A 
ATOM      5  C   UNL     1       2.028   4.861  20.116  0.00  0.00    +0.000 A 
ATOM      6  C   UNL     1       1.576   6.085  20.687  0.00  0.00    +0.000 A 
ENDROOT
BRANCH   1  11
ATOM      7  N   UNL     1      -0.463  11.880  22.492  0.00  0.00    +0.000 N 
ATOM      8  C   UNL     1       0.106  10.787  21.878  0.00  0.00    +0.000 A 
ATOM      9  N   UNL     1       0.036  10.713  20.546  0.00  0.00    +0.000 NA
ATOM     10  C   UNL     1       0.560   9.602  19.973  0.00  0.00    +0.000 A 
ATOM     11  C   UNL     1       1.139   8.552  20.666  0.00  0.00    +0.000 A 
ATOM     12  C   UNL     1       1.142   8.762  22.037  0.00  0.00    +0.000 A 
ATOM     13  N   UNL     1       0.631   9.844  22.660  0.00  0.00    +0.000 NA
ATOM     14  H   UNL     1      -1.171  12.275  21.890  0.00  0.00    +0.000 HD
ATOM     15  H   UNL     1      -0.745  11.627  23.430  0.00  0.00    +0.000 HD
ENDBRANCH   1  11
BRANCH   5  16
ATOM     16  N   UNL     1       1.780   3.675  20.968  0.00  0.00    +0.000 N 
ATOM     17  O   UNL     1       1.103   2.737  20.548  0.00  0.00    +0.000 OA
ATOM     18  O   UNL     1       2.274   3.679  22.109  0.00  0.00    +0.000 OA
ENDBRANCH   5  16
BRANCH   4  19
ATOM     19  N   UNL     1       3.055   3.791  18.039  0.00  0.00    +0.000 N 
ATOM     20  H   UNL     1       2.673   3.800  17.094  0.00  0.00    +0.000 HD
BRANCH  19  21
ATOM     21  C   UNL     1       4.425   3.288  18.024  0.00  0.00    +0.000 C 
BRANCH  21  22
ATOM     22  C   UNL     1       5.384   4.454  17.898  0.00  0.00    +0.000 A 
ATOM     23  C   UNL     1       6.111   4.908  19.006  0.00  0.00    +0.000 A 
ATOM     24  C   UNL     1       6.963   6.007  18.885  0.00  0.00    +0.000 A 
ATOM     25  C   UNL     1       7.084   6.661  17.660  0.00  0.00    +0.000 A 
ATOM     26 CL   UNL     1       8.114   8.032  17.521  0.00  0.00    +0.000 Cl
ATOM     27  C   UNL     1       6.369   6.219  16.549  0.00  0.00    +0.000 A 
ATOM     28  C   UNL     1       5.518   5.121  16.668  0.00  0.00    +0.000 A 
ENDBRANCH  21  22
ENDBRANCH  19  21
ENDBRANCH   4  19
TORSDOF 5
ENDMDL
MODEL 8
REMARK VINA RESULT:      -7.7      4.397      8.686
REMARK  Name = 
REMARK  5 active torsions:
REMARK  status: ('A' for Active; 'I' for Inactive)
REMARK    1  A    between atoms: C_5  and  C_6
REMARK    2  A    between atoms: C_9  and  N_10
REMARK    3  A    between atoms: N_10  and  C_11
REMARK    4  A    between atoms: C_11  and  C_12
REMARK    5  A    between atoms: C_19  and  N_20
REMARK                            x       y       z     vdW  Elec       q    Type
REMARK                         _______ _______ _______ _____ _____    ______ ____
ROOT
ATOM      1  C   UNL     1       2.703   6.742  19.143  0.00  0.00    +0.000 A 
ATOM      2  C   UNL     1       2.819   7.404  17.924  0.00  0.00    +0.000 A 
ATOM      3  C   UNL     1       2.231   8.664  17.726  0.00  0.00    +0.000 A 
ATOM      4  C   UNL     1       1.471   9.344  18.716  0.00  0.00    +0.000 A 
ATOM      5  C   UNL     1       1.372   8.685  19.960  0.00  0.00    +0.000 A 
ATOM      6  C   UNL     1       1.980   7.410  20.145  0.00  0.00    +0.000 A 
ENDROOT
BRANCH   1  11
ATOM      7  N   UNL     1       5.077   1.740  19.939  0.00  0.00    +0.000 N 
ATOM      8  C   UNL     1       4.501   2.982  19.799  0.00  0.00    +0.000 A 
ATOM      9  N   UNL     1       3.198   3.101  20.069  0.00  0.00    +0.000 NA
ATOM     10  C   UNL     1       2.648   4.323  19.873  0.00  0.00    +0.000 A 
ATOM     11  C   UNL     1       3.331   5.434  19.406  0.00  0.00    +0.000 A 
ATOM     12  C   UNL     1       4.672   5.167  19.167  0.00  0.00    +0.000 A 
ATOM     13  N   UNL     1       5.269   3.969  19.339  0.00  0.00    +0.000 NA
ATOM     14  H   UNL     1       4.365   1.027  19.863  0.00  0.00    +0.000 HD
ATOM     15  H   UNL     1       5.870   1.666  19.317  0.00  0.00    +0.000 HD
ENDBRANCH   1  11
BRANCH   5  16
ATOM     16  N   UNL     1       0.725   9.221  21.180  0.00  0.00    +0.000 N 
ATOM     17  O   UNL     1       1.388   9.827  22.022  0.00  0.00    +0.000 OA
ATOM     18  O   UNL     1      -0.496   9.025  21.312  0.00  0.00    +0.000 OA
ENDBRANCH   5  16
BRANCH   4  19
ATOM     19  N   UNL     1       1.018  10.600  18.311  0.00  0.00    +0.000 N 
ATOM     20  H   UNL     1       0.346  10.555  17.546  0.00  0.00    +0.000 HD
BRANCH  19  21
ATOM     21  C   UNL     1       0.689  11.702  19.207  0.00  0.00    +0.000 C 
BRANCH  21  22
ATOM     22  C   UNL     1      -0.814  11.888  19.240  0.00  0.00    +0.000 A 
ATOM     23  C   UNL     1      -1.437  12.502  20.335  0.00  0.00    +0.000 A 
ATOM     24  C   UNL     1      -2.826  12.632  20.371  0.00  0.00    +0.000 A 
ATOM     25  C   UNL     1      -3.598  12.144  19.317  0.00  0.00    +0.000 A 
ATOM     26 CL   UNL     1      -5.311  12.283  19.375  0.00  0.00    +0.000 Cl
ATOM     27  C   UNL     1      -2.991  11.535  18.220  0.00  0.00    +0.000 A 
ATOM     28  C   UNL     1      -1.603  11.403  18.184  0.00  0.00    +0.000 A 
ENDBRANCH  21  22
ENDBRANCH  19  21
ENDBRANCH   4  19
TORSDOF 5
ENDMDL
MODEL 9
REMARK VINA RESULT:      -7.7      4.406      8.627
REMARK  Name = 
REMARK  5 active torsions:
REMARK  status: ('A' for Active; 'I' for Inactive)
REMARK    1  A    between atoms: C_5  and  C_6
REMARK    2  A    between atoms: C_9  and  N_10
REMARK    3  A    between atoms: N_10  and  C_11
REMARK    4  A    between atoms: C_11  and  C_12
REMARK    5  A    between atoms: C_19  and  N_20
REMARK                            x       y       z     vdW  Elec       q    Type
REMARK                         _______ _______ _______ _____ _____    ______ ____
ROOT
ATOM      1  C   UNL     1       2.182   7.377  19.608  0.00  0.00    +0.000 A 
ATOM      2  C   UNL     1       2.077   8.259  18.536  0.00  0.00    +0.000 A 
ATOM      3  C   UNL     1       1.396   9.480  18.668  0.00  0.00    +0.000 A 
ATOM      4  C   UNL     1       0.755   9.900  19.865  0.00  0.00    +0.000 A 
ATOM      5  C   UNL     1       0.881   9.018  20.959  0.00  0.00    +0.000 A 
ATOM      6  C   UNL     1       1.580   7.786  20.809  0.00  0.00    +0.000 A 
ENDROOT
BRANCH   1  11
ATOM      7  N   UNL     1       4.853   2.485  19.126  0.00  0.00    +0.000 N 
ATOM      8  C   UNL     1       4.232   3.703  19.287  0.00  0.00    +0.000 A 
ATOM      9  N   UNL     1       3.259   3.792  20.198  0.00  0.00    +0.000 NA
ATOM     10  C   UNL     1       2.631   4.988  20.299  0.00  0.00    +0.000 A 
ATOM     11  C   UNL     1       2.916   6.100  19.525  0.00  0.00    +0.000 A 
ATOM     12  C   UNL     1       3.944   5.865  18.622  0.00  0.00    +0.000 A 
ATOM     13  N   UNL     1       4.599   4.694  18.476  0.00  0.00    +0.000 NA
ATOM     14  H   UNL     1       4.241   1.749  19.447  0.00  0.00    +0.000 HD
ATOM     15  H   UNL     1       5.206   2.412  18.181  0.00  0.00    +0.000 HD
ENDBRANCH   1  11
BRANCH   5  16
ATOM     16  N   UNL     1       0.394   9.265  22.337  0.00  0.00    +0.000 N 
ATOM     17  O   UNL     1       1.140   9.760  23.182  0.00  0.00    +0.000 OA
ATOM     18  O   UNL     1      -0.780   8.945  22.593  0.00  0.00    +0.000 OA
ENDBRANCH   5  16
BRANCH   4  19
ATOM     19  N   UNL     1       0.177  11.167  19.776  0.00  0.00    +0.000 N 
ATOM     20  H   UNL     1       0.652  11.864  20.348  0.00  0.00    +0.000 HD
BRANCH  19  21
ATOM     21  C   UNL     1      -0.323  11.777  18.549  0.00  0.00    +0.000 C 
BRANCH  21  22
ATOM     22  C   UNL     1      -1.816  11.538  18.445  0.00  0.00    +0.000 A 
ATOM     23  C   UNL     1      -2.338  10.678  17.469  0.00  0.00    +0.000 A 
ATOM     24  C   UNL     1      -3.717  10.497  17.358  0.00  0.00    +0.000 A 
ATOM     25  C   UNL     1      -4.580  11.179  18.216  0.00  0.00    +0.000 A 
ATOM     26 CL   UNL     1      -6.280  10.973  18.060  0.00  0.00    +0.000 Cl
ATOM     27  C   UNL     1      -4.074  12.034  19.193  0.00  0.00    +0.000 A 
ATOM     28  C   UNL     1      -2.696  12.217  19.304  0.00  0.00    +0.000 A 
ENDBRANCH  21  22
ENDBRANCH  19  21
ENDBRANCH   4  19
TORSDOF 5
ENDMDL
