MODEL 1
REMARK VINA RESULT:      -6.6      0.000      0.000
REMARK  Name = 
REMARK  8 active torsions:
REMARK  status: ('A' for Active; 'I' for Inactive)
REMARK    1  A    between atoms: C_1  and  O_2
REMARK    2  A    between atoms: O_2  and  C_3
REMARK    3  A    between atoms: C_3  and  C_5
REMARK    4  A    between atoms: C_5  and  C_6
REMARK    5  A    between atoms: N_12  and  C_13
REMARK    6  A    between atoms: C_13  and  N_15
REMARK    7  A    between atoms: C_16  and  C_18
REMARK    8  A    between atoms: C_23  and  N_24
REMARK                            x       y       z     vdW  Elec       q    Type
REMARK                         _______ _______ _______ _____ _____    ______ ____
ROOT
ATOM      1  C   UNL     1       2.801   5.857  18.074  0.00  0.00    +0.000 C 
ATOM      2  S   UNL     1       1.691   4.659  17.672  0.00  0.00    +0.000 S 
ENDROOT
BRANCH   1   9
ATOM      3  C   UNL     1       5.094   4.772  18.396  0.00  0.00    +0.000 C 
ATOM      4  C   UNL     1       6.591   5.214  18.334  0.00  0.00    +0.000 C 
ATOM      5  O   UNL     1       7.482   4.603  18.924  0.00  0.00    +0.000 OA
ATOM      6  N   UNL     1       6.934   6.217  17.461  0.00  0.00    +0.000 N 
ATOM      7  C   UNL     1       5.949   7.130  16.920  0.00  0.00    +0.000 C 
ATOM      8  C   UNL     1       4.658   6.399  16.582  0.00  0.00    +0.000 C 
ATOM      9  N   UNL     1       4.134   5.732  17.781  0.00  0.00    +0.000 N 
ATOM     10  H   UNL     1       7.907   6.497  17.503  0.00  0.00    +0.000 HD
BRANCH   3  11
ATOM     11  C   UNL     1       4.771   4.293  19.813  0.00  0.00    +0.000 C 
BRANCH  11  12
ATOM     12  C   UNL     1       4.358   2.845  19.940  0.00  0.00    +0.000 C 
ATOM     13  O   UNL     1       5.091   1.876  19.963  0.00  0.00    +0.000 OA
BRANCH  12  15
ATOM     14  C   UNL     1       2.489   2.871  21.412  0.00  0.00    +0.000 C 
ATOM     15  O   UNL     1       2.995   2.824  20.078  0.00  0.00    +0.000 OA
ENDBRANCH  12  15
ENDBRANCH  11  12
ENDBRANCH   3  11
ENDBRANCH   1   9
BRANCH   1  16
ATOM     16  N   UNL     1       2.311   6.982  18.699  0.00  0.00    +0.000 N 
ATOM     17  C   UNL     1       1.788   7.144  19.979  0.00  0.00    +0.000 C 
ATOM     18  O   UNL     1       1.688   6.259  20.821  0.00  0.00    +0.000 OA
ATOM     19  H   UNL     1       2.111   7.717  18.022  0.00  0.00    +0.000 HD
BRANCH  17  20
ATOM     20  C   UNL     1       1.363   8.508  20.403  0.00  0.00    +0.000 A 
ATOM     21  C   UNL     1       1.079   8.652  21.774  0.00  0.00    +0.000 A 
ATOM     22  C   UNL     1       0.545   9.841  22.285  0.00  0.00    +0.000 A 
ATOM     23  C   UNL     1       0.300  10.920  21.438  0.00  0.00    +0.000 A 
ATOM     24  C   UNL     1       0.566  10.801  20.075  0.00  0.00    +0.000 A 
ATOM     25  C   UNL     1       1.075   9.590  19.567  0.00  0.00    +0.000 A 
BRANCH  25  26
ATOM     26  N   UNL     1       1.198   9.483  18.131  0.00  0.00    +0.000 N 
ATOM     27  O   UNL     1       0.180   9.137  17.517  0.00  0.00    +0.000 OA
ATOM     28  O   UNL     1       2.311   9.688  17.634  0.00  0.00    +0.000 OA
ENDBRANCH  25  26
ENDBRANCH  17  20
ENDBRANCH   1  16
TORSDOF 7
ENDMDL
MODEL 2
REMARK VINA RESULT:      -6.5      3.400      7.465
REMARK  Name = 
REMARK  8 active torsions:
REMARK  status: ('A' for Active; 'I' for Inactive)
REMARK    1  A    between atoms: C_1  and  O_2
REMARK    2  A    between atoms: O_2  and  C_3
REMARK    3  A    between atoms: C_3  and  C_5
REMARK    4  A    between atoms: C_5  and  C_6
REMARK    5  A    between atoms: N_12  and  C_13
REMARK    6  A    between atoms: C_13  and  N_15
REMARK    7  A    between atoms: C_16  and  C_18
REMARK    8  A    between atoms: C_23  and  N_24
REMARK                            x       y       z     vdW  Elec       q    Type
REMARK                         _______ _______ _______ _____ _____    ______ ____
ROOT
ATOM      1  C   UNL     1       5.069   4.136  18.055  0.00  0.00    +0.000 C 
ATOM      2  S   UNL     1       6.119   5.136  18.907  0.00  0.00    +0.000 S 
ENDROOT
BRANCH   1   9
ATOM      3  C   UNL     1       2.567   3.791  18.453  0.00  0.00    +0.000 C 
ATOM      4  C   UNL     1       1.640   3.389  19.644  0.00  0.00    +0.000 C 
ATOM      5  O   UNL     1       0.446   3.689  19.680  0.00  0.00    +0.000 OA
ATOM      6  N   UNL     1       2.142   2.535  20.596  0.00  0.00    +0.000 N 
ATOM      7  C   UNL     1       3.565   2.328  20.763  0.00  0.00    +0.000 C 
ATOM      8  C   UNL     1       4.269   2.271  19.415  0.00  0.00    +0.000 C 
ATOM      9  N   UNL     1       4.015   3.509  18.667  0.00  0.00    +0.000 N 
ATOM     10  H   UNL     1       1.515   2.352  21.371  0.00  0.00    +0.000 HD
BRANCH   3  11
ATOM     11  C   UNL     1       2.204   5.203  17.991  0.00  0.00    +0.000 C 
BRANCH  11  12
ATOM     12  C   UNL     1       2.571   6.321  18.939  0.00  0.00    +0.000 C 
ATOM     13  O   UNL     1       2.432   6.329  20.146  0.00  0.00    +0.000 OA
BRANCH  12  15
ATOM     14  C   UNL     1       2.263   8.324  17.693  0.00  0.00    +0.000 C 
ATOM     15  O   UNL     1       3.144   7.316  18.190  0.00  0.00    +0.000 OA
ENDBRANCH  12  15
ENDBRANCH  11  12
ENDBRANCH   3  11
ENDBRANCH   1   9
BRANCH   1  16
ATOM     16  N   UNL     1       5.304   3.983  16.707  0.00  0.00    +0.000 N 
ATOM     17  C   UNL     1       5.186   4.897  15.664  0.00  0.00    +0.000 C 
ATOM     18  O   UNL     1       4.849   6.069  15.783  0.00  0.00    +0.000 OA
ATOM     19  H   UNL     1       5.345   2.996  16.454  0.00  0.00    +0.000 HD
BRANCH  17  20
ATOM     20  C   UNL     1       5.549   4.453  14.288  0.00  0.00    +0.000 A 
ATOM     21  C   UNL     1       4.560   3.713  13.612  0.00  0.00    +0.000 A 
ATOM     22  C   UNL     1       4.816   3.124  12.369  0.00  0.00    +0.000 A 
ATOM     23  C   UNL     1       6.061   3.276  11.764  0.00  0.00    +0.000 A 
ATOM     24  C   UNL     1       7.060   3.998  12.414  0.00  0.00    +0.000 A 
ATOM     25  C   UNL     1       6.801   4.561  13.679  0.00  0.00    +0.000 A 
BRANCH  25  26
ATOM     26  N   UNL     1       7.917   5.177  14.362  0.00  0.00    +0.000 N 
ATOM     27  O   UNL     1       8.659   5.889  13.672  0.00  0.00    +0.000 OA
ATOM     28  O   UNL     1       8.079   4.905  15.557  0.00  0.00    +0.000 OA
ENDBRANCH  25  26
ENDBRANCH  17  20
ENDBRANCH   1  16
TORSDOF 7
ENDMDL
MODEL 3
REMARK VINA RESULT:      -6.2      1.975      3.571
REMARK  Name = 
REMARK  8 active torsions:
REMARK  status: ('A' for Active; 'I' for Inactive)
REMARK    1  A    between atoms: C_1  and  O_2
REMARK    2  A    between atoms: O_2  and  C_3
REMARK    3  A    between atoms: C_3  and  C_5
REMARK    4  A    between atoms: C_5  and  C_6
REMARK    5  A    between atoms: N_12  and  C_13
REMARK    6  A    between atoms: C_13  and  N_15
REMARK    7  A    between atoms: C_16  and  C_18
REMARK    8  A    between atoms: C_23  and  N_24
REMARK                            x       y       z     vdW  Elec       q    Type
REMARK                         _______ _______ _______ _____ _____    ______ ____
ROOT
ATOM      1  C   UNL     1       2.573   7.067  19.302  0.00  0.00    +0.000 C 
ATOM      2  S   UNL     1       3.085   7.581  17.785  0.00  0.00    +0.000 S 
ENDROOT
BRANCH   1   9
ATOM      3  C   UNL     1       4.069   5.022  19.653  0.00  0.00    +0.000 C 
ATOM      4  C   UNL     1       3.903   3.469  19.667  0.00  0.00    +0.000 C 
ATOM      5  O   UNL     1       4.845   2.704  19.457  0.00  0.00    +0.000 OA
ATOM      6  N   UNL     1       2.703   2.949  20.090  0.00  0.00    +0.000 N 
ATOM      7  C   UNL     1       1.495   3.746  20.126  0.00  0.00    +0.000 C 
ATOM      8  C   UNL     1       1.789   5.159  20.610  0.00  0.00    +0.000 C 
ATOM      9  N   UNL     1       2.792   5.786  19.740  0.00  0.00    +0.000 N 
ATOM     10  H   UNL     1       2.636   1.940  20.027  0.00  0.00    +0.000 HD
BRANCH   3  11
ATOM     11  C   UNL     1       5.027   5.413  18.526  0.00  0.00    +0.000 C 
BRANCH  11  12
ATOM     12  C   UNL     1       6.487   5.498  18.904  0.00  0.00    +0.000 C 
ATOM     13  O   UNL     1       6.960   5.396  20.019  0.00  0.00    +0.000 OA
BRANCH  12  15
ATOM     14  C   UNL     1       7.141   4.589  16.805  0.00  0.00    +0.000 C 
ATOM     15  O   UNL     1       7.196   5.664  17.743  0.00  0.00    +0.000 OA
ENDBRANCH  12  15
ENDBRANCH  11  12
ENDBRANCH   3  11
ENDBRANCH   1   9
BRANCH   1  16
ATOM     16  N   UNL     1       1.935   7.992  20.097  0.00  0.00    +0.000 N 
ATOM     17  C   UNL     1       1.093   9.046  19.751  0.00  0.00    +0.000 C 
ATOM     18  O   UNL     1       0.743   9.330  18.611  0.00  0.00    +0.000 OA
ATOM     19  H   UNL     1       2.344   8.015  21.030  0.00  0.00    +0.000 HD
BRANCH  17  20
ATOM     20  C   UNL     1       0.510   9.874  20.845  0.00  0.00    +0.000 A 
ATOM     21  C   UNL     1      -0.010   9.153  21.936  0.00  0.00    +0.000 A 
ATOM     22  C   UNL     1      -0.702   9.796  22.969  0.00  0.00    +0.000 A 
ATOM     23  C   UNL     1      -0.875  11.177  22.943  0.00  0.00    +0.000 A 
ATOM     24  C   UNL     1      -0.375  11.915  21.871  0.00  0.00    +0.000 A 
ATOM     25  C   UNL     1       0.293  11.254  20.822  0.00  0.00    +0.000 A 
BRANCH  25  26
ATOM     26  N   UNL     1       0.663  12.053  19.675  0.00  0.00    +0.000 N 
ATOM     27  O   UNL     1      -0.245  12.322  18.877  0.00  0.00    +0.000 OA
ATOM     28  O   UNL     1       1.854  12.358  19.549  0.00  0.00    +0.000 OA
ENDBRANCH  25  26
ENDBRANCH  17  20
ENDBRANCH   1  16
TORSDOF 7
ENDMDL
MODEL 4
REMARK VINA RESULT:      -6.2      1.544      2.981
REMARK  Name = 
REMARK  8 active torsions:
REMARK  status: ('A' for Active; 'I' for Inactive)
REMARK    1  A    between atoms: C_1  and  O_2
REMARK    2  A    between atoms: O_2  and  C_3
REMARK    3  A    between atoms: C_3  and  C_5
REMARK    4  A    between atoms: C_5  and  C_6
REMARK    5  A    between atoms: N_12  and  C_13
REMARK    6  A    between atoms: C_13  and  N_15
REMARK    7  A    between atoms: C_16  and  C_18
REMARK    8  A    between atoms: C_23  and  N_24
REMARK                            x       y       z     vdW  Elec       q    Type
REMARK                         _______ _______ _______ _____ _____    ______ ____
ROOT
ATOM      1  C   UNL     1       3.228   6.582  18.067  0.00  0.00    +0.000 C 
ATOM      2  S   UNL     1       4.195   7.114  16.799  0.00  0.00    +0.000 S 
ENDROOT
BRANCH   1   9
ATOM      3  C   UNL     1       3.984   4.515  19.371  0.00  0.00    +0.000 C 
ATOM      4  C   UNL     1       4.071   2.975  19.129  0.00  0.00    +0.000 C 
ATOM      5  O   UNL     1       4.845   2.252  19.758  0.00  0.00    +0.000 OA
ATOM      6  N   UNL     1       3.138   2.395  18.303  0.00  0.00    +0.000 N 
ATOM      7  C   UNL     1       2.364   3.173  17.359  0.00  0.00    +0.000 C 
ATOM      8  C   UNL     1       1.946   4.505  17.965  0.00  0.00    +0.000 C 
ATOM      9  N   UNL     1       3.134   5.253  18.394  0.00  0.00    +0.000 N 
ATOM     10  H   UNL     1       3.277   1.405  18.142  0.00  0.00    +0.000 HD
BRANCH   3  11
ATOM     11  C   UNL     1       5.392   5.065  19.609  0.00  0.00    +0.000 C 
BRANCH  11  12
ATOM     12  C   UNL     1       6.395   4.802  18.511  0.00  0.00    +0.000 C 
ATOM     13  O   UNL     1       6.169   4.334  17.412  0.00  0.00    +0.000 OA
BRANCH  12  15
ATOM     14  C   UNL     1       7.963   6.585  18.652  0.00  0.00    +0.000 C 
ATOM     15  O   UNL     1       7.614   5.236  18.963  0.00  0.00    +0.000 OA
ENDBRANCH  12  15
ENDBRANCH  11  12
ENDBRANCH   3  11
ENDBRANCH   1   9
BRANCH   1  16
ATOM     16  N   UNL     1       2.542   7.540  18.779  0.00  0.00    +0.000 N 
ATOM     17  C   UNL     1       1.890   7.455  20.006  0.00  0.00    +0.000 C 
ATOM     18  O   UNL     1       1.831   6.453  20.710  0.00  0.00    +0.000 OA
ATOM     19  H   UNL     1       2.308   8.336  18.186  0.00  0.00    +0.000 HD
BRANCH  17  20
ATOM     20  C   UNL     1       1.254   8.685  20.557  0.00  0.00    +0.000 A 
ATOM     21  C   UNL     1       0.893   8.621  21.916  0.00  0.00    +0.000 A 
ATOM     22  C   UNL     1       0.172   9.653  22.526  0.00  0.00    +0.000 A 
ATOM     23  C   UNL     1      -0.191  10.782  21.795  0.00  0.00    +0.000 A 
ATOM     24  C   UNL     1       0.148  10.868  20.446  0.00  0.00    +0.000 A 
ATOM     25  C   UNL     1       0.849   9.810  19.835  0.00  0.00    +0.000 A 
BRANCH  25  26
ATOM     26  N   UNL     1       1.047   9.897  18.405  0.00  0.00    +0.000 N 
ATOM     27  O   UNL     1       2.099  10.429  18.028  0.00  0.00    +0.000 OA
ATOM     28  O   UNL     1       0.139   9.488  17.674  0.00  0.00    +0.000 OA
ENDBRANCH  25  26
ENDBRANCH  17  20
ENDBRANCH   1  16
TORSDOF 7
ENDMDL
MODEL 5
REMARK VINA RESULT:      -6.2      4.137      8.551
REMARK  Name = 
REMARK  8 active torsions:
REMARK  status: ('A' for Active; 'I' for Inactive)
REMARK    1  A    between atoms: C_1  and  O_2
REMARK    2  A    between atoms: O_2  and  C_3
REMARK    3  A    between atoms: C_3  and  C_5
REMARK    4  A    between atoms: C_5  and  C_6
REMARK    5  A    between atoms: N_12  and  C_13
REMARK    6  A    between atoms: C_13  and  N_15
REMARK    7  A    between atoms: C_16  and  C_18
REMARK    8  A    between atoms: C_23  and  N_24
REMARK                            x       y       z     vdW  Elec       q    Type
REMARK                         _______ _______ _______ _____ _____    ______ ____
ROOT
ATOM      1  C   UNL     1       0.701  11.729  19.305  0.00  0.00    +0.000 C 
ATOM      2  S   UNL     1       1.960  12.829  19.128  0.00  0.00    +0.000 S 
ENDROOT
BRANCH   1   9
ATOM      3  C   UNL     1      -1.421  12.698  20.353  0.00  0.00    +0.000 C 
ATOM      4  C   UNL     1      -2.964  12.505  20.207  0.00  0.00    +0.000 C 
ATOM      5  O   UNL     1      -3.752  12.795  21.107  0.00  0.00    +0.000 OA
ATOM      6  N   UNL     1      -3.458  12.154  18.974  0.00  0.00    +0.000 N 
ATOM      7  C   UNL     1      -2.616  11.575  17.949  0.00  0.00    +0.000 C 
ATOM      8  C   UNL     1      -1.249  12.243  17.926  0.00  0.00    +0.000 C 
ATOM      9  N   UNL     1      -0.612  12.120  19.243  0.00  0.00    +0.000 N 
ATOM     10  H   UNL     1      -4.458  11.992  18.952  0.00  0.00    +0.000 HD
BRANCH   3  11
ATOM     11  C   UNL     1      -1.002  12.321  21.776  0.00  0.00    +0.000 C 
BRANCH  11  12
ATOM     12  C   UNL     1      -0.654  13.474  22.687  0.00  0.00    +0.000 C 
ATOM     13  O   UNL     1      -1.325  13.909  23.603  0.00  0.00    +0.000 OA
BRANCH  12  15
ATOM     14  C   UNL     1       0.747  15.328  22.178  0.00  0.00    +0.000 C 
ATOM     15  O   UNL     1       0.591  13.916  22.324  0.00  0.00    +0.000 OA
ENDBRANCH  12  15
ENDBRANCH  11  12
ENDBRANCH   3  11
ENDBRANCH   1   9
BRANCH   1  16
ATOM     16  N   UNL     1       1.043  10.410  19.500  0.00  0.00    +0.000 N 
ATOM     17  C   UNL     1       1.628   9.495  18.629  0.00  0.00    +0.000 C 
ATOM     18  O   UNL     1       1.976   9.732  17.478  0.00  0.00    +0.000 OA
ATOM     19  H   UNL     1       0.578  10.031  20.324  0.00  0.00    +0.000 HD
BRANCH  17  20
ATOM     20  C   UNL     1       1.920   8.123  19.135  0.00  0.00    +0.000 A 
ATOM     21  C   UNL     1       2.458   7.232  18.187  0.00  0.00    +0.000 A 
ATOM     22  C   UNL     1       2.656   5.880  18.491  0.00  0.00    +0.000 A 
ATOM     23  C   UNL     1       2.339   5.392  19.756  0.00  0.00    +0.000 A 
ATOM     24  C   UNL     1       1.799   6.252  20.712  0.00  0.00    +0.000 A 
ATOM     25  C   UNL     1       1.576   7.604  20.386  0.00  0.00    +0.000 A 
BRANCH  25  26
ATOM     26  N   UNL     1       0.887   8.409  21.369  0.00  0.00    +0.000 N 
ATOM     27  O   UNL     1       1.600   9.039  22.160  0.00  0.00    +0.000 OA
ATOM     28  O   UNL     1      -0.348   8.365  21.383  0.00  0.00    +0.000 OA
ENDBRANCH  25  26
ENDBRANCH  17  20
ENDBRANCH   1  16
TORSDOF 7
ENDMDL
MODEL 6
REMARK VINA RESULT:      -6.2      1.051      1.292
REMARK  Name = 
REMARK  8 active torsions:
REMARK  status: ('A' for Active; 'I' for Inactive)
REMARK    1  A    between atoms: C_1  and  O_2
REMARK    2  A    between atoms: O_2  and  C_3
REMARK    3  A    between atoms: C_3  and  C_5
REMARK    4  A    between atoms: C_5  and  C_6
REMARK    5  A    between atoms: N_12  and  C_13
REMARK    6  A    between atoms: C_13  and  N_15
REMARK    7  A    between atoms: C_16  and  C_18
REMARK    8  A    between atoms: C_23  and  N_24
REMARK                            x       y       z     vdW  Elec       q    Type
REMARK                         _______ _______ _______ _____ _____    ______ ____
ROOT
ATOM      1  C   UNL     1       2.728   5.582  18.217  0.00  0.00    +0.000 C 
ATOM      2  S   UNL     1       1.628   4.444  17.649  0.00  0.00    +0.000 S 
ENDROOT
BRANCH   1   9
ATOM      3  C   UNL     1       5.078   4.574  18.287  0.00  0.00    +0.000 C 
ATOM      4  C   UNL     1       6.549   5.090  18.209  0.00  0.00    +0.000 C 
ATOM      5  O   UNL     1       7.496   4.453  18.673  0.00  0.00    +0.000 OA
ATOM      6  N   UNL     1       6.804   6.210  17.454  0.00  0.00    +0.000 N 
ATOM      7  C   UNL     1       5.755   7.135  17.082  0.00  0.00    +0.000 C 
ATOM      8  C   UNL     1       4.478   6.392  16.718  0.00  0.00    +0.000 C 
ATOM      9  N   UNL     1       4.048   5.557  17.846  0.00  0.00    +0.000 N 
ATOM     10  H   UNL     1       7.765   6.527  17.484  0.00  0.00    +0.000 HD
BRANCH   3  11
ATOM     11  C   UNL     1       4.852   3.908  19.646  0.00  0.00    +0.000 C 
BRANCH  11  12
ATOM     12  C   UNL     1       4.098   2.599  19.620  0.00  0.00    +0.000 C 
ATOM     13  O   UNL     1       3.952   1.859  18.667  0.00  0.00    +0.000 OA
BRANCH  12  15
ATOM     14  C   UNL     1       2.454   3.053  21.278  0.00  0.00    +0.000 C 
ATOM     15  O   UNL     1       3.645   2.367  20.893  0.00  0.00    +0.000 OA
ENDBRANCH  12  15
ENDBRANCH  11  12
ENDBRANCH   3  11
ENDBRANCH   1   9
BRANCH   1  16
ATOM     16  N   UNL     1       2.244   6.554  19.064  0.00  0.00    +0.000 N 
ATOM     17  C   UNL     1       2.101   7.925  18.871  0.00  0.00    +0.000 C 
ATOM     18  O   UNL     1       2.383   8.529  17.842  0.00  0.00    +0.000 OA
ATOM     19  H   UNL     1       2.215   6.217  20.026  0.00  0.00    +0.000 HD
BRANCH  17  20
ATOM     20  C   UNL     1       1.504   8.736  19.969  0.00  0.00    +0.000 A 
ATOM     21  C   UNL     1       1.586   8.167  21.254  0.00  0.00    +0.000 A 
ATOM     22  C   UNL     1       0.953   8.758  22.353  0.00  0.00    +0.000 A 
ATOM     23  C   UNL     1       0.237   9.942  22.196  0.00  0.00    +0.000 A 
ATOM     24  C   UNL     1       0.135  10.524  20.934  0.00  0.00    +0.000 A 
ATOM     25  C   UNL     1       0.751   9.905  19.829  0.00  0.00    +0.000 A 
BRANCH  25  26
ATOM     26  N   UNL     1       0.492  10.479  18.528  0.00  0.00    +0.000 N 
ATOM     27  O   UNL     1       1.212  11.429  18.193  0.00  0.00    +0.000 OA
ATOM     28  O   UNL     1      -0.454  10.022  17.878  0.00  0.00    +0.000 OA
ENDBRANCH  25  26
ENDBRANCH  17  20
ENDBRANCH   1  16
TORSDOF 7
ENDMDL
MODEL 7
REMARK VINA RESULT:      -6.1      2.124      3.876
REMARK  Name = 
REMARK  8 active torsions:
REMARK  status: ('A' for Active; 'I' for Inactive)
REMARK    1  A    between atoms: C_1  and  O_2
REMARK    2  A    between atoms: O_2  and  C_3
REMARK    3  A    between atoms: C_3  and  C_5
REMARK    4  A    between atoms: C_5  and  C_6
REMARK    5  A    between atoms: N_12  and  C_13
REMARK    6  A    between atoms: C_13  and  N_15
REMARK    7  A    between atoms: C_16  and  C_18
REMARK    8  A    between atoms: C_23  and  N_24
REMARK                            x       y       z     vdW  Elec       q    Type
REMARK                         _______ _______ _______ _____ _____    ______ ____
ROOT
ATOM      1  C   UNL     1       2.835   6.931  18.637  0.00  0.00    +0.000 C 
ATOM      2  S   UNL     1       3.971   7.346  17.469  0.00  0.00    +0.000 S 
ENDROOT
BRANCH   1   9
ATOM      3  C   UNL     1       4.168   4.952  19.557  0.00  0.00    +0.000 C 
ATOM      4  C   UNL     1       3.903   3.452  19.902  0.00  0.00    +0.000 C 
ATOM      5  O   UNL     1       4.807   2.617  19.946  0.00  0.00    +0.000 OA
ATOM      6  N   UNL     1       2.646   3.098  20.329  0.00  0.00    +0.000 N 
ATOM      7  C   UNL     1       1.492   3.938  20.087  0.00  0.00    +0.000 C 
ATOM      8  C   UNL     1       1.841   5.408  20.268  0.00  0.00    +0.000 C 
ATOM      9  N   UNL     1       2.940   5.774  19.366  0.00  0.00    +0.000 N 
ATOM     10  H   UNL     1       2.519   2.106  20.488  0.00  0.00    +0.000 HD
BRANCH   3  11
ATOM     11  C   UNL     1       5.226   5.032  18.455  0.00  0.00    +0.000 C 
BRANCH  11  12
ATOM     12  C   UNL     1       6.662   5.062  18.922  0.00  0.00    +0.000 C 
ATOM     13  O   UNL     1       7.081   5.522  19.966  0.00  0.00    +0.000 OA
BRANCH  12  15
ATOM     14  C   UNL     1       6.971   4.562  16.617  0.00  0.00    +0.000 C 
ATOM     15  O   UNL     1       7.412   4.425  17.968  0.00  0.00    +0.000 OA
ENDBRANCH  12  15
ENDBRANCH  11  12
ENDBRANCH   3  11
ENDBRANCH   1   9
BRANCH   1  16
ATOM     16  N   UNL     1       1.797   7.812  18.844  0.00  0.00    +0.000 N 
ATOM     17  C   UNL     1       1.572   9.078  18.310  0.00  0.00    +0.000 C 
ATOM     18  O   UNL     1       2.298   9.647  17.503  0.00  0.00    +0.000 OA
ATOM     19  H   UNL     1       1.267   7.561  19.678  0.00  0.00    +0.000 HD
BRANCH  17  20
ATOM     20  C   UNL     1       0.324   9.796  18.693  0.00  0.00    +0.000 A 
ATOM     21  C   UNL     1      -0.610   9.979  17.656  0.00  0.00    +0.000 A 
ATOM     22  C   UNL     1      -1.764  10.749  17.843  0.00  0.00    +0.000 A 
ATOM     23  C   UNL     1      -2.020  11.339  19.078  0.00  0.00    +0.000 A 
ATOM     24  C   UNL     1      -1.109  11.178  20.121  0.00  0.00    +0.000 A 
ATOM     25  C   UNL     1       0.063  10.427  19.913  0.00  0.00    +0.000 A 
BRANCH  25  26
ATOM     26  N   UNL     1       1.032  10.415  20.986  0.00  0.00    +0.000 N 
ATOM     27  O   UNL     1       1.226   9.324  21.539  0.00  0.00    +0.000 OA
ATOM     28  O   UNL     1       1.549  11.491  21.305  0.00  0.00    +0.000 OA
ENDBRANCH  25  26
ENDBRANCH  17  20
ENDBRANCH   1  16
TORSDOF 7
ENDMDL
MODEL 8
REMARK VINA RESULT:      -6.1      3.521      7.560
REMARK  Name = 
REMARK  8 active torsions:
REMARK  status: ('A' for Active; 'I' for Inactive)
REMARK    1  A    between atoms: C_1  and  O_2
REMARK    2  A    between atoms: O_2  and  C_3
REMARK    3  A    between atoms: C_3  and  C_5
REMARK    4  A    between atoms: C_5  and  C_6
REMARK    5  A    between atoms: N_12  and  C_13
REMARK    6  A    between atoms: C_13  and  N_15
REMARK    7  A    between atoms: C_16  and  C_18
REMARK    8  A    between atoms: C_23  and  N_24
REMARK                            x       y       z     vdW  Elec       q    Type
REMARK                         _______ _______ _______ _____ _____    ______ ____
ROOT
ATOM      1  C   UNL     1       4.786   4.307  17.663  0.00  0.00    +0.000 C 
ATOM      2  S   UNL     1       5.867   5.151  18.635  0.00  0.00    +0.000 S 
ENDROOT
BRANCH   1   9
ATOM      3  C   UNL     1       2.527   4.658  18.810  0.00  0.00    +0.000 C 
ATOM      4  C   UNL     1       1.585   3.851  19.758  0.00  0.00    +0.000 C 
ATOM      5  O   UNL     1       0.756   4.399  20.486  0.00  0.00    +0.000 OA
ATOM      6  N   UNL     1       1.574   2.481  19.649  0.00  0.00    +0.000 N 
ATOM      7  C   UNL     1       2.654   1.757  19.012  0.00  0.00    +0.000 C 
ATOM      8  C   UNL     1       3.151   2.496  17.777  0.00  0.00    +0.000 C 
ATOM      9  N   UNL     1       3.588   3.848  18.148  0.00  0.00    +0.000 N 
ATOM     10  H   UNL     1       0.984   2.010  20.324  0.00  0.00    +0.000 HD
BRANCH   3  11
ATOM     11  C   UNL     1       2.982   5.933  19.523  0.00  0.00    +0.000 C 
BRANCH  11  12
ATOM     12  C   UNL     1       2.394   7.224  19.002  0.00  0.00    +0.000 C 
ATOM     13  O   UNL     1       2.054   7.463  17.860  0.00  0.00    +0.000 OA
BRANCH  12  15
ATOM     14  C   UNL     1       1.176   7.812  20.959  0.00  0.00    +0.000 C 
ATOM     15  O   UNL     1       2.264   8.070  20.072  0.00  0.00    +0.000 OA
ENDBRANCH  12  15
ENDBRANCH  11  12
ENDBRANCH   3  11
ENDBRANCH   1   9
BRANCH   1  16
ATOM     16  N   UNL     1       5.147   4.107  16.350  0.00  0.00    +0.000 N 
ATOM     17  C   UNL     1       5.213   5.005  15.289  0.00  0.00    +0.000 C 
ATOM     18  O   UNL     1       4.962   6.203  15.356  0.00  0.00    +0.000 OA
ATOM     19  H   UNL     1       5.134   3.115  16.115  0.00  0.00    +0.000 HD
BRANCH  17  20
ATOM     20  C   UNL     1       5.681   4.504  13.965  0.00  0.00    +0.000 A 
ATOM     21  C   UNL     1       4.788   3.648  13.294  0.00  0.00    +0.000 A 
ATOM     22  C   UNL     1       5.153   3.003  12.106  0.00  0.00    +0.000 A 
ATOM     23  C   UNL     1       6.413   3.213  11.553  0.00  0.00    +0.000 A 
ATOM     24  C   UNL     1       7.319   4.052  12.201  0.00  0.00    +0.000 A 
ATOM     25  C   UNL     1       6.952   4.672  13.411  0.00  0.00    +0.000 A 
BRANCH  25  26
ATOM     26  N   UNL     1       7.981   5.415  14.103  0.00  0.00    +0.000 N 
ATOM     27  O   UNL     1       7.901   5.443  15.338  0.00  0.00    +0.000 OA
ATOM     28  O   UNL     1       8.822   6.006  13.418  0.00  0.00    +0.000 OA
ENDBRANCH  25  26
ENDBRANCH  17  20
ENDBRANCH   1  16
TORSDOF 7
ENDMDL
MODEL 9
REMARK VINA RESULT:      -6.0      1.931      3.304
REMARK  Name = 
REMARK  8 active torsions:
REMARK  status: ('A' for Active; 'I' for Inactive)
REMARK    1  A    between atoms: C_1  and  O_2
REMARK    2  A    between atoms: O_2  and  C_3
REMARK    3  A    between atoms: C_3  and  C_5
REMARK    4  A    between atoms: C_5  and  C_6
REMARK    5  A    between atoms: N_12  and  C_13
REMARK    6  A    between atoms: C_13  and  N_15
REMARK    7  A    between atoms: C_16  and  C_18
REMARK    8  A    between atoms: C_23  and  N_24
REMARK                            x       y       z     vdW  Elec       q    Type
REMARK                         _______ _______ _______ _____ _____    ______ ____
ROOT
ATOM      1  C   UNL     1       2.849   6.634  18.799  0.00  0.00    +0.000 C 
ATOM      2  S   UNL     1       3.613   7.251  17.435  0.00  0.00    +0.000 S 
ENDROOT
BRANCH   1   9
ATOM      3  C   UNL     1       3.980   4.524  19.700  0.00  0.00    +0.000 C 
ATOM      4  C   UNL     1       3.971   2.994  19.383  0.00  0.00    +0.000 C 
ATOM      5  O   UNL     1       4.905   2.253  19.692  0.00  0.00    +0.000 OA
ATOM      6  N   UNL     1       2.814   2.441  18.891  0.00  0.00    +0.000 N 
ATOM      7  C   UNL     1       1.776   3.250  18.287  0.00  0.00    +0.000 C 
ATOM      8  C   UNL     1       1.591   4.555  19.048  0.00  0.00    +0.000 C 
ATOM      9  N   UNL     1       2.860   5.293  19.087  0.00  0.00    +0.000 N 
ATOM     10  H   UNL     1       2.884   1.458  18.656  0.00  0.00    +0.000 HD
BRANCH   3  11
ATOM     11  C   UNL     1       5.390   5.073  19.478  0.00  0.00    +0.000 C 
BRANCH  11  12
ATOM     12  C   UNL     1       6.074   4.638  18.203  0.00  0.00    +0.000 C 
ATOM     13  O   UNL     1       5.541   4.363  17.146  0.00  0.00    +0.000 OA
BRANCH  12  15
ATOM     14  C   UNL     1       7.914   5.734  19.239  0.00  0.00    +0.000 C 
ATOM     15  O   UNL     1       7.423   4.657  18.440  0.00  0.00    +0.000 OA
ENDBRANCH  12  15
ENDBRANCH  11  12
ENDBRANCH   3  11
ENDBRANCH   1   9
BRANCH   1  16
ATOM     16  N   UNL     1       2.221   7.536  19.629  0.00  0.00    +0.000 N 
ATOM     17  C   UNL     1       1.437   8.644  19.322  0.00  0.00    +0.000 C 
ATOM     18  O   UNL     1       1.141   9.013  18.191  0.00  0.00    +0.000 OA
ATOM     19  H   UNL     1       2.596   7.483  20.575  0.00  0.00    +0.000 HD
BRANCH  17  20
ATOM     20  C   UNL     1       0.849   9.428  20.445  0.00  0.00    +0.000 A 
ATOM     21  C   UNL     1       0.437   8.672  21.559  0.00  0.00    +0.000 A 
ATOM     22  C   UNL     1      -0.248   9.263  22.626  0.00  0.00    +0.000 A 
ATOM     23  C   UNL     1      -0.523  10.628  22.612  0.00  0.00    +0.000 A 
ATOM     24  C   UNL     1      -0.133  11.399  21.519  0.00  0.00    +0.000 A 
ATOM     25  C   UNL     1       0.531  10.789  20.437  0.00  0.00    +0.000 A 
BRANCH  25  26
ATOM     26  N   UNL     1       0.784  11.612  19.276  0.00  0.00    +0.000 N 
ATOM     27  O   UNL     1       1.930  12.067  19.164  0.00  0.00    +0.000 OA
ATOM     28  O   UNL     1      -0.165  11.844  18.519  0.00  0.00    +0.000 OA
ENDBRANCH  25  26
ENDBRANCH  17  20
ENDBRANCH   1  16
TORSDOF 7
ENDMDL
