MODEL 1
REMARK VINA RESULT:      -6.9      0.000      0.000
REMARK  Name = 
REMARK  4 active torsions:
REMARK  status: ('A' for Active; 'I' for Inactive)
REMARK    1  A    between atoms: N_3  and  C_4
REMARK    2  A    between atoms: C_4  and  C_5
REMARK    3  A    between atoms: N_15  and  C_16
REMARK    4  A    between atoms: C_16  and  C_17
REMARK                            x       y       z     vdW  Elec       q    Type
REMARK                         _______ _______ _______ _____ _____    ______ ____
ROOT
ATOM      1  O   UNL     1       4.316   6.955  16.308  0.00  0.00    +0.000 OA
ATOM      2  C   UNL     1       5.071   6.207  16.930  0.00  0.00    +0.000 C 
ATOM      3  N   UNL     1       6.381   5.944  16.530  0.00  0.00    +0.000 N 
ATOM      4  C   UNL     1       7.414   5.715  17.531  0.00  0.00    +0.000 C 
ATOM      5  C   UNL     1       6.988   4.650  18.525  0.00  0.00    +0.000 C 
ATOM      6  C   UNL     1       5.632   5.019  19.116  0.00  0.00    +0.000 C 
ATOM      7  C   UNL     1       4.570   5.249  18.026  0.00  0.00    +0.000 C 
ATOM      8  C   UNL     1       3.249   5.676  18.666  0.00  0.00    +0.000 C 
ATOM      9  C   UNL     1       2.170   5.018  17.824  0.00  0.00    +0.000 C 
ATOM     10  N   UNL     1       2.754   3.802  17.263  0.00  0.00    +0.000 NA
ATOM     11  C   UNL     1       4.217   3.950  17.280  0.00  0.00    +0.000 C 
ENDROOT
BRANCH   3  12
ATOM     12  C   UNL     1       6.732   6.008  15.118  0.00  0.00    +0.000 C 
BRANCH  12  13
ATOM     13  C   UNL     1       6.807   4.624  14.505  0.00  0.00    +0.000 C 
ATOM     14  C   UNL     1       5.511   3.995  13.951  0.00  0.00    +0.000 C 
ATOM     15  C   UNL     1       6.264   3.627  12.667  0.00  0.00    +0.000 C 
ATOM     16  C   UNL     1       7.340   4.654  13.047  0.00  0.00    +0.000 C 
ENDBRANCH  12  13
ENDBRANCH   3  12
BRANCH  10  17
ATOM     17  C   UNL     1       2.307   2.560  17.914  0.00  0.00    +0.000 C 
BRANCH  17  18
ATOM     18  C   UNL     1       2.232   2.692  19.424  0.00  0.00    +0.000 A 
ATOM     19  N   UNL     1       3.241   2.448  20.240  0.00  0.00    +0.000 NA
ATOM     20  C   UNL     1       2.814   2.532  21.550  0.00  0.00    +0.000 A 
ATOM     21  C   UNL     1       1.485   2.846  21.725  0.00  0.00    +0.000 A 
ATOM     22  S   UNL     1       0.741   3.083  20.200  0.00  0.00    +0.000 S 
ENDBRANCH  17  18
ENDBRANCH  10  17
TORSDOF 4
ENDMDL
MODEL 2
REMARK VINA RESULT:      -6.8      2.873      6.711
REMARK  Name = 
REMARK  4 active torsions:
REMARK  status: ('A' for Active; 'I' for Inactive)
REMARK    1  A    between atoms: N_3  and  C_4
REMARK    2  A    between atoms: C_4  and  C_5
REMARK    3  A    between atoms: N_15  and  C_16
REMARK    4  A    between atoms: C_16  and  C_17
REMARK                            x       y       z     vdW  Elec       q    Type
REMARK                         _______ _______ _______ _____ _____    ______ ____
ROOT
ATOM      1  O   UNL     1       5.483   3.824  18.976  0.00  0.00    +0.000 OA
ATOM      2  C   UNL     1       4.940   4.794  18.446  0.00  0.00    +0.000 C 
ATOM      3  N   UNL     1       3.578   5.067  18.573  0.00  0.00    +0.000 N 
ATOM      4  C   UNL     1       3.114   6.448  18.605  0.00  0.00    +0.000 C 
ATOM      5  C   UNL     1       3.660   7.238  17.430  0.00  0.00    +0.000 C 
ATOM      6  C   UNL     1       5.178   7.102  17.386  0.00  0.00    +0.000 C 
ATOM      7  C   UNL     1       5.625   5.629  17.349  0.00  0.00    +0.000 C 
ATOM      8  C   UNL     1       7.151   5.547  17.369  0.00  0.00    +0.000 C 
ATOM      9  C   UNL     1       7.497   4.375  16.467  0.00  0.00    +0.000 C 
ATOM     10  N   UNL     1       6.422   4.269  15.481  0.00  0.00    +0.000 NA
ATOM     11  C   UNL     1       5.234   4.939  16.030  0.00  0.00    +0.000 C 
ENDROOT
BRANCH   3  12
ATOM     12  C   UNL     1       2.638   3.975  18.781  0.00  0.00    +0.000 C 
BRANCH  12  13
ATOM     13  C   UNL     1       2.091   3.980  20.194  0.00  0.00    +0.000 C 
ATOM     14  C   UNL     1       0.761   3.247  20.469  0.00  0.00    +0.000 C 
ATOM     15  C   UNL     1       1.410   2.567  21.680  0.00  0.00    +0.000 C 
ATOM     16  C   UNL     1       2.785   2.925  21.097  0.00  0.00    +0.000 C 
ENDBRANCH  12  13
ENDBRANCH   3  12
BRANCH  10  17
ATOM     17  C   UNL     1       6.779   4.764  14.142  0.00  0.00    +0.000 C 
BRANCH  17  18
ATOM     18  C   UNL     1       6.158   3.935  13.033  0.00  0.00    +0.000 A 
ATOM     19  N   UNL     1       4.860   3.855  12.805  0.00  0.00    +0.000 NA
ATOM     20  C   UNL     1       4.615   2.923  11.817  0.00  0.00    +0.000 A 
ATOM     21  C   UNL     1       5.727   2.302  11.294  0.00  0.00    +0.000 A 
ATOM     22  S   UNL     1       7.140   2.928  12.033  0.00  0.00    +0.000 S 
ENDBRANCH  17  18
ENDBRANCH  10  17
TORSDOF 4
ENDMDL
MODEL 3
REMARK VINA RESULT:      -6.8      3.607      5.196
REMARK  Name = 
REMARK  4 active torsions:
REMARK  status: ('A' for Active; 'I' for Inactive)
REMARK    1  A    between atoms: N_3  and  C_4
REMARK    2  A    between atoms: C_4  and  C_5
REMARK    3  A    between atoms: N_15  and  C_16
REMARK    4  A    between atoms: C_16  and  C_17
REMARK                            x       y       z     vdW  Elec       q    Type
REMARK                         _______ _______ _______ _____ _____    ______ ____
ROOT
ATOM      1  O   UNL     1       4.716   5.355  19.950  0.00  0.00    +0.000 OA
ATOM      2  C   UNL     1       3.948   4.840  19.137  0.00  0.00    +0.000 C 
ATOM      3  N   UNL     1       4.373   3.968  18.134  0.00  0.00    +0.000 N 
ATOM      4  C   UNL     1       3.509   2.876  17.707  0.00  0.00    +0.000 C 
ATOM      5  C   UNL     1       2.121   3.380  17.355  0.00  0.00    +0.000 C 
ATOM      6  C   UNL     1       1.561   4.185  18.522  0.00  0.00    +0.000 C 
ATOM      7  C   UNL     1       2.502   5.330  18.939  0.00  0.00    +0.000 C 
ATOM      8  C   UNL     1       1.925   6.064  20.149  0.00  0.00    +0.000 C 
ATOM      9  C   UNL     1       2.278   7.525  19.931  0.00  0.00    +0.000 C 
ATOM     10  N   UNL     1       2.366   7.728  18.486  0.00  0.00    +0.000 NA
ATOM     11  C   UNL     1       2.602   6.420  17.857  0.00  0.00    +0.000 C 
ENDROOT
BRANCH   3  12
ATOM     12  C   UNL     1       5.721   4.088  17.597  0.00  0.00    +0.000 C 
BRANCH  12  13
ATOM     13  C   UNL     1       5.718   4.777  16.247  0.00  0.00    +0.000 C 
ATOM     14  C   UNL     1       7.009   5.480  15.779  0.00  0.00    +0.000 C 
ATOM     15  C   UNL     1       6.870   4.783  14.420  0.00  0.00    +0.000 C 
ATOM     16  C   UNL     1       5.913   3.777  15.076  0.00  0.00    +0.000 C 
ENDBRANCH  12  13
ENDBRANCH   3  12
BRANCH  10  17
ATOM     17  C   UNL     1       1.214   8.433  17.902  0.00  0.00    +0.000 C 
BRANCH  17  18
ATOM     18  C   UNL     1       1.171   9.897  18.297  0.00  0.00    +0.000 A 
ATOM     19  N   UNL     1       2.136  10.762  18.046  0.00  0.00    +0.000 NA
ATOM     20  C   UNL     1       1.849  11.971  18.646  0.00  0.00    +0.000 A 
ATOM     21  C   UNL     1       0.664  12.024  19.346  0.00  0.00    +0.000 A 
ATOM     22  S   UNL     1      -0.147  10.520  19.223  0.00  0.00    +0.000 S 
ENDBRANCH  17  18
ENDBRANCH  10  17
TORSDOF 4
ENDMDL
MODEL 4
REMARK VINA RESULT:      -6.6      2.426      6.789
REMARK  Name = 
REMARK  4 active torsions:
REMARK  status: ('A' for Active; 'I' for Inactive)
REMARK    1  A    between atoms: N_3  and  C_4
REMARK    2  A    between atoms: C_4  and  C_5
REMARK    3  A    between atoms: N_15  and  C_16
REMARK    4  A    between atoms: C_16  and  C_17
REMARK                            x       y       z     vdW  Elec       q    Type
REMARK                         _______ _______ _______ _____ _____    ______ ____
ROOT
ATOM      1  O   UNL     1       5.219   3.240  19.501  0.00  0.00    +0.000 OA
ATOM      2  C   UNL     1       4.545   4.147  19.010  0.00  0.00    +0.000 C 
ATOM      3  N   UNL     1       3.170   4.045  18.802  0.00  0.00    +0.000 N 
ATOM      4  C   UNL     1       2.327   5.226  18.932  0.00  0.00    +0.000 C 
ATOM      5  C   UNL     1       2.860   6.377  18.099  0.00  0.00    +0.000 C 
ATOM      6  C   UNL     1       4.323   6.625  18.451  0.00  0.00    +0.000 C 
ATOM      7  C   UNL     1       5.178   5.354  18.296  0.00  0.00    +0.000 C 
ATOM      8  C   UNL     1       6.618   5.641  18.720  0.00  0.00    +0.000 C 
ATOM      9  C   UNL     1       7.481   4.832  17.767  0.00  0.00    +0.000 C 
ATOM     10  N   UNL     1       6.727   4.703  16.521  0.00  0.00    +0.000 NA
ATOM     11  C   UNL     1       5.305   4.918  16.826  0.00  0.00    +0.000 C 
ENDROOT
BRANCH   3  12
ATOM     12  C   UNL     1       2.570   2.741  18.561  0.00  0.00    +0.000 C 
BRANCH  12  13
ATOM     13  C   UNL     1       1.895   2.205  19.808  0.00  0.00    +0.000 C 
ATOM     14  C   UNL     1       2.589   2.423  21.169  0.00  0.00    +0.000 C 
ATOM     15  C   UNL     1       1.256   2.916  21.746  0.00  0.00    +0.000 C 
ATOM     16  C   UNL     1       0.760   3.138  20.310  0.00  0.00    +0.000 C 
ENDBRANCH  12  13
ENDBRANCH   3  12
BRANCH  10  17
ATOM     17  C   UNL     1       7.206   5.568  15.432  0.00  0.00    +0.000 C 
BRANCH  17  18
ATOM     18  C   UNL     1       7.117   4.894  14.075  0.00  0.00    +0.000 A 
ATOM     19  N   UNL     1       7.783   5.291  13.006  0.00  0.00    +0.000 NA
ATOM     20  C   UNL     1       7.386   4.555  11.908  0.00  0.00    +0.000 A 
ATOM     21  C   UNL     1       6.424   3.598  12.147  0.00  0.00    +0.000 A 
ATOM     22  S   UNL     1       6.024   3.585  13.812  0.00  0.00    +0.000 S 
ENDBRANCH  17  18
ENDBRANCH  10  17
TORSDOF 4
ENDMDL
MODEL 5
REMARK VINA RESULT:      -6.6      1.501      2.056
REMARK  Name = 
REMARK  4 active torsions:
REMARK  status: ('A' for Active; 'I' for Inactive)
REMARK    1  A    between atoms: N_3  and  C_4
REMARK    2  A    between atoms: C_4  and  C_5
REMARK    3  A    between atoms: N_15  and  C_16
REMARK    4  A    between atoms: C_16  and  C_17
REMARK                            x       y       z     vdW  Elec       q    Type
REMARK                         _______ _______ _______ _____ _____    ______ ____
ROOT
ATOM      1  O   UNL     1       5.065   6.442  15.127  0.00  0.00    +0.000 OA
ATOM      2  C   UNL     1       5.642   5.900  16.071  0.00  0.00    +0.000 C 
ATOM      3  N   UNL     1       6.383   4.726  15.936  0.00  0.00    +0.000 N 
ATOM      4  C   UNL     1       7.564   4.515  16.762  0.00  0.00    +0.000 C 
ATOM      5  C   UNL     1       7.252   4.725  18.232  0.00  0.00    +0.000 C 
ATOM      6  C   UNL     1       6.606   6.092  18.424  0.00  0.00    +0.000 C 
ATOM      7  C   UNL     1       5.360   6.272  17.538  0.00  0.00    +0.000 C 
ATOM      8  C   UNL     1       4.789   7.678  17.721  0.00  0.00    +0.000 C 
ATOM      9  C   UNL     1       3.282   7.507  17.645  0.00  0.00    +0.000 C 
ATOM     10  N   UNL     1       2.987   6.152  18.109  0.00  0.00    +0.000 NA
ATOM     11  C   UNL     1       4.208   5.346  17.964  0.00  0.00    +0.000 C 
ENDROOT
BRANCH   3  12
ATOM     12  C   UNL     1       6.035   3.767  14.898  0.00  0.00    +0.000 C 
BRANCH  12  13
ATOM     13  C   UNL     1       6.125   4.390  13.519  0.00  0.00    +0.000 C 
ATOM     14  C   UNL     1       7.508   4.840  13.005  0.00  0.00    +0.000 C 
ATOM     15  C   UNL     1       7.226   4.122  11.680  0.00  0.00    +0.000 C 
ATOM     16  C   UNL     1       6.123   3.324  12.390  0.00  0.00    +0.000 C 
ENDBRANCH  12  13
ENDBRANCH   3  12
BRANCH  10  17
ATOM     17  C   UNL     1       2.428   6.086  19.468  0.00  0.00    +0.000 C 
BRANCH  17  18
ATOM     18  C   UNL     1       1.966   4.688  19.837  0.00  0.00    +0.000 A 
ATOM     19  N   UNL     1       1.228   3.921  19.055  0.00  0.00    +0.000 NA
ATOM     20  C   UNL     1       0.871   2.771  19.730  0.00  0.00    +0.000 A 
ATOM     21  C   UNL     1       1.343   2.666  21.020  0.00  0.00    +0.000 A 
ATOM     22  S   UNL     1       2.302   4.034  21.399  0.00  0.00    +0.000 S 
ENDBRANCH  17  18
ENDBRANCH  10  17
TORSDOF 4
ENDMDL
MODEL 6
REMARK VINA RESULT:      -6.6      2.767      6.343
REMARK  Name = 
REMARK  4 active torsions:
REMARK  status: ('A' for Active; 'I' for Inactive)
REMARK    1  A    between atoms: N_3  and  C_4
REMARK    2  A    between atoms: C_4  and  C_5
REMARK    3  A    between atoms: N_15  and  C_16
REMARK    4  A    between atoms: C_16  and  C_17
REMARK                            x       y       z     vdW  Elec       q    Type
REMARK                         _______ _______ _______ _____ _____    ______ ____
ROOT
ATOM      1  O   UNL     1       1.353   3.847  17.812  0.00  0.00    +0.000 OA
ATOM      2  C   UNL     1       2.085   3.490  18.736  0.00  0.00    +0.000 C 
ATOM      3  N   UNL     1       1.808   3.764  20.075  0.00  0.00    +0.000 N 
ATOM      4  C   UNL     1       2.193   2.809  21.106  0.00  0.00    +0.000 C 
ATOM      5  C   UNL     1       3.656   2.426  20.981  0.00  0.00    +0.000 C 
ATOM      6  C   UNL     1       3.937   1.944  19.563  0.00  0.00    +0.000 C 
ATOM      7  C   UNL     1       3.520   2.983  18.506  0.00  0.00    +0.000 C 
ATOM      8  C   UNL     1       3.763   2.426  17.103  0.00  0.00    +0.000 C 
ATOM      9  C   UNL     1       4.225   3.615  16.280  0.00  0.00    +0.000 C 
ATOM     10  N   UNL     1       4.880   4.540  17.203  0.00  0.00    +0.000 NA
ATOM     11  C   UNL     1       4.396   4.247  18.560  0.00  0.00    +0.000 C 
ENDROOT
BRANCH   3  12
ATOM     12  C   UNL     1       1.042   4.951  20.427  0.00  0.00    +0.000 C 
BRANCH  12  13
ATOM     13  C   UNL     1       1.931   6.174  20.524  0.00  0.00    +0.000 C 
ATOM     14  C   UNL     1       2.190   6.997  19.244  0.00  0.00    +0.000 C 
ATOM     15  C   UNL     1       1.867   8.276  20.027  0.00  0.00    +0.000 C 
ATOM     16  C   UNL     1       1.175   7.408  21.088  0.00  0.00    +0.000 C 
ENDBRANCH  12  13
ENDBRANCH   3  12
BRANCH  10  17
ATOM     17  C   UNL     1       6.348   4.542  17.118  0.00  0.00    +0.000 C 
BRANCH  17  18
ATOM     18  C   UNL     1       6.952   5.868  17.544  0.00  0.00    +0.000 A 
ATOM     19  N   UNL     1       6.918   6.966  16.813  0.00  0.00    +0.000 NA
ATOM     20  C   UNL     1       7.664   7.956  17.421  0.00  0.00    +0.000 A 
ATOM     21  C   UNL     1       8.257   7.608  18.614  0.00  0.00    +0.000 A 
ATOM     22  S   UNL     1       7.841   5.996  19.018  0.00  0.00    +0.000 S 
ENDBRANCH  17  18
ENDBRANCH  10  17
TORSDOF 4
ENDMDL
MODEL 7
REMARK VINA RESULT:      -6.4      2.808      6.720
REMARK  Name = 
REMARK  4 active torsions:
REMARK  status: ('A' for Active; 'I' for Inactive)
REMARK    1  A    between atoms: N_3  and  C_4
REMARK    2  A    between atoms: C_4  and  C_5
REMARK    3  A    between atoms: N_15  and  C_16
REMARK    4  A    between atoms: C_16  and  C_17
REMARK                            x       y       z     vdW  Elec       q    Type
REMARK                         _______ _______ _______ _____ _____    ______ ____
ROOT
ATOM      1  O   UNL     1       4.581   3.684  19.363  0.00  0.00    +0.000 OA
ATOM      2  C   UNL     1       4.188   4.710  18.806  0.00  0.00    +0.000 C 
ATOM      3  N   UNL     1       2.842   4.961  18.536  0.00  0.00    +0.000 N 
ATOM      4  C   UNL     1       2.336   6.326  18.580  0.00  0.00    +0.000 C 
ATOM      5  C   UNL     1       3.182   7.254  17.730  0.00  0.00    +0.000 C 
ATOM      6  C   UNL     1       4.645   7.129  18.141  0.00  0.00    +0.000 C 
ATOM      7  C   UNL     1       5.141   5.673  18.077  0.00  0.00    +0.000 C 
ATOM      8  C   UNL     1       6.590   5.595  18.558  0.00  0.00    +0.000 C 
ATOM      9  C   UNL     1       7.242   4.542  17.679  0.00  0.00    +0.000 C 
ATOM     10  N   UNL     1       6.527   4.552  16.404  0.00  0.00    +0.000 NA
ATOM     11  C   UNL     1       5.201   5.146  16.632  0.00  0.00    +0.000 C 
ENDROOT
BRANCH   3  12
ATOM     12  C   UNL     1       1.929   3.848  18.318  0.00  0.00    +0.000 C 
BRANCH  12  13
ATOM     13  C   UNL     1       1.119   3.547  19.562  0.00  0.00    +0.000 C 
ATOM     14  C   UNL     1       1.369   2.212  20.296  0.00  0.00    +0.000 C 
ATOM     15  C   UNL     1       1.448   2.980  21.621  0.00  0.00    +0.000 C 
ATOM     16  C   UNL     1       1.679   4.268  20.818  0.00  0.00    +0.000 C 
ENDBRANCH  12  13
ENDBRANCH   3  12
BRANCH  10  17
ATOM     17  C   UNL     1       7.256   5.207  15.307  0.00  0.00    +0.000 C 
BRANCH  17  18
ATOM     18  C   UNL     1       6.911   4.620  13.951  0.00  0.00    +0.000 A 
ATOM     19  N   UNL     1       6.016   3.667  13.762  0.00  0.00    +0.000 NA
ATOM     20  C   UNL     1       6.032   3.266  12.441  0.00  0.00    +0.000 A 
ATOM     21  C   UNL     1       6.933   3.919  11.630  0.00  0.00    +0.000 A 
ATOM     22  S   UNL     1       7.771   5.107  12.536  0.00  0.00    +0.000 S 
ENDBRANCH  17  18
ENDBRANCH  10  17
TORSDOF 4
ENDMDL
MODEL 8
REMARK VINA RESULT:      -6.4      3.307      5.099
REMARK  Name = 
REMARK  4 active torsions:
REMARK  status: ('A' for Active; 'I' for Inactive)
REMARK    1  A    between atoms: N_3  and  C_4
REMARK    2  A    between atoms: C_4  and  C_5
REMARK    3  A    between atoms: N_15  and  C_16
REMARK    4  A    between atoms: C_16  and  C_17
REMARK                            x       y       z     vdW  Elec       q    Type
REMARK                         _______ _______ _______ _____ _____    ______ ____
ROOT
ATOM      1  O   UNL     1       5.541   4.738  19.813  0.00  0.00    +0.000 OA
ATOM      2  C   UNL     1       5.435   4.750  18.586  0.00  0.00    +0.000 C 
ATOM      3  N   UNL     1       6.531   4.841  17.728  0.00  0.00    +0.000 N 
ATOM      4  C   UNL     1       6.504   4.160  16.441  0.00  0.00    +0.000 C 
ATOM      5  C   UNL     1       5.249   4.508  15.662  0.00  0.00    +0.000 C 
ATOM      6  C   UNL     1       4.022   4.237  16.526  0.00  0.00    +0.000 C 
ATOM      7  C   UNL     1       4.090   4.977  17.874  0.00  0.00    +0.000 C 
ATOM      8  C   UNL     1       2.870   4.622  18.725  0.00  0.00    +0.000 C 
ATOM      9  C   UNL     1       2.513   5.903  19.459  0.00  0.00    +0.000 C 
ATOM     10  N   UNL     1       2.955   7.012  18.614  0.00  0.00    +0.000 NA
ATOM     11  C   UNL     1       3.989   6.503  17.701  0.00  0.00    +0.000 C 
ENDROOT
BRANCH   3  12
ATOM     12  C   UNL     1       7.739   5.524  18.169  0.00  0.00    +0.000 C 
BRANCH  12  13
ATOM     13  C   UNL     1       7.470   6.987  18.461  0.00  0.00    +0.000 C 
ATOM     14  C   UNL     1       8.660   7.889  18.848  0.00  0.00    +0.000 C 
ATOM     15  C   UNL     1       8.175   8.929  17.831  0.00  0.00    +0.000 C 
ATOM     16  C   UNL     1       7.334   7.831  17.165  0.00  0.00    +0.000 C 
ENDBRANCH  12  13
ENDBRANCH   3  12
BRANCH  10  17
ATOM     17  C   UNL     1       1.868   7.702  17.903  0.00  0.00    +0.000 C 
BRANCH  17  18
ATOM     18  C   UNL     1       1.579   9.075  18.480  0.00  0.00    +0.000 A 
ATOM     19  N   UNL     1       1.878  10.211  17.876  0.00  0.00    +0.000 NA
ATOM     20  C   UNL     1       1.606  11.273  18.714  0.00  0.00    +0.000 A 
ATOM     21  C   UNL     1       1.097  10.941  19.950  0.00  0.00    +0.000 A 
ATOM     22  S   UNL     1       0.911   9.242  20.063  0.00  0.00    +0.000 S 
ENDBRANCH  17  18
ENDBRANCH  10  17
TORSDOF 4
ENDMDL
MODEL 9
REMARK VINA RESULT:      -6.3      2.976      6.511
REMARK  Name = 
REMARK  4 active torsions:
REMARK  status: ('A' for Active; 'I' for Inactive)
REMARK    1  A    between atoms: N_3  and  C_4
REMARK    2  A    between atoms: C_4  and  C_5
REMARK    3  A    between atoms: N_15  and  C_16
REMARK    4  A    between atoms: C_16  and  C_17
REMARK                            x       y       z     vdW  Elec       q    Type
REMARK                         _______ _______ _______ _____ _____    ______ ____
ROOT
ATOM      1  O   UNL     1       1.383   4.150  17.864  0.00  0.00    +0.000 OA
ATOM      2  C   UNL     1       1.909   3.753  18.905  0.00  0.00    +0.000 C 
ATOM      3  N   UNL     1       1.410   4.055  20.173  0.00  0.00    +0.000 N 
ATOM      4  C   UNL     1       1.536   3.085  21.252  0.00  0.00    +0.000 C 
ATOM      5  C   UNL     1       2.969   2.606  21.396  0.00  0.00    +0.000 C 
ATOM      6  C   UNL     1       3.473   2.096  20.050  0.00  0.00    +0.000 C 
ATOM      7  C   UNL     1       3.325   3.152  18.940  0.00  0.00    +0.000 C 
ATOM      8  C   UNL     1       3.785   2.570  17.603  0.00  0.00    +0.000 C 
ATOM      9  C   UNL     1       4.466   3.721  16.883  0.00  0.00    +0.000 C 
ATOM     10  N   UNL     1       5.000   4.608  17.915  0.00  0.00    +0.000 NA
ATOM     11  C   UNL     1       4.257   4.357  19.159  0.00  0.00    +0.000 C 
ENDROOT
BRANCH   3  12
ATOM     12  C   UNL     1       0.671   5.291  20.383  0.00  0.00    +0.000 C 
BRANCH  12  13
ATOM     13  C   UNL     1       1.601   6.442  20.710  0.00  0.00    +0.000 C 
ATOM     14  C   UNL     1       2.092   7.340  19.556  0.00  0.00    +0.000 C 
ATOM     15  C   UNL     1       1.727   8.574  20.390  0.00  0.00    +0.000 C 
ATOM     16  C   UNL     1       0.838   7.676  21.262  0.00  0.00    +0.000 C 
ENDBRANCH  12  13
ENDBRANCH   3  12
BRANCH  10  17
ATOM     17  C   UNL     1       6.456   4.514  18.101  0.00  0.00    +0.000 C 
BRANCH  17  18
ATOM     18  C   UNL     1       7.135   5.870  18.055  0.00  0.00    +0.000 A 
ATOM     19  N   UNL     1       8.034   6.279  18.931  0.00  0.00    +0.000 NA
ATOM     20  C   UNL     1       8.358   7.598  18.688  0.00  0.00    +0.000 A 
ATOM     21  C   UNL     1       7.709   8.186  17.625  0.00  0.00    +0.000 A 
ATOM     22  S   UNL     1       6.681   7.042  16.871  0.00  0.00    +0.000 S 
ENDBRANCH  17  18
ENDBRANCH  10  17
TORSDOF 4
ENDMDL
