MODEL 1
REMARK VINA RESULT:      -8.2      0.000      0.000
REMARK  Name = 
REMARK  5 active torsions:
REMARK  status: ('A' for Active; 'I' for Inactive)
REMARK    1  A    between atoms: C_2  and  C_10
REMARK    2  A    between atoms: N_3  and  C_4
REMARK    3  A    between atoms: C_4  and  C_5
REMARK    4  A    between atoms: C_14  and  C_15
REMARK    5  A    between atoms: C_15  and  C_16
REMARK                            x       y       z     vdW  Elec       q    Type
REMARK                         _______ _______ _______ _____ _____    ______ ____
ROOT
ATOM      1  C   UNL     1       1.187   8.695  20.294  0.00  0.00    +0.000 A 
ATOM      2  C   UNL     1       0.659   8.312  21.531  0.00  0.00    +0.000 A 
ATOM      3  C   UNL     1      -0.195   9.176  22.218  0.00  0.00    +0.000 A 
ATOM      4  C   UNL     1      -0.526  10.415  21.668  0.00  0.00    +0.000 A 
ATOM      5  C   UNL     1       0.002  10.816  20.434  0.00  0.00    +0.000 A 
ATOM      6  C   UNL     1       0.877   9.954  19.757  0.00  0.00    +0.000 A 
ENDROOT
BRANCH   1   8
ATOM      7  O   UNL     1       2.324   8.051  18.337  0.00  0.00    +0.000 OA
ATOM      8  C   UNL     1       2.087   7.803  19.515  0.00  0.00    +0.000 C 
ATOM      9  N   UNL     1       2.571   6.698  20.175  0.00  0.00    +0.000 N 
ATOM     10  H   UNL     1       2.142   6.420  21.048  0.00  0.00    +0.000 HD
BRANCH   9  11
ATOM     11  C   UNL     1       3.326   5.693  19.463  0.00  0.00    +0.000 C 
BRANCH  11  12
ATOM     12  C   UNL     1       2.505   4.445  19.399  0.00  0.00    +0.000 A 
ATOM     13  C   UNL     1       1.272   4.213  19.977  0.00  0.00    +0.000 A 
ATOM     14  C   UNL     1       0.782   2.904  19.704  0.00  0.00    +0.000 A 
ATOM     15  C   UNL     1       1.659   2.179  18.928  0.00  0.00    +0.000 A 
ATOM     16  S   UNL     1       3.062   3.074  18.536  0.00  0.00    +0.000 S 
ENDBRANCH  11  12
ENDBRANCH   9  11
ENDBRANCH   1   8
BRANCH   5  17
ATOM     17  C   UNL     1      -0.430  12.125  19.810  0.00  0.00    +0.000 C 
BRANCH  17  18
ATOM     18  C   UNL     1      -1.946  12.185  19.614  0.00  0.00    +0.000 A 
ATOM     19  N   UNL     1      -2.623  12.851  20.506  0.00  0.00    +0.000 NA
ATOM     20  N   UNL     1      -3.975  12.886  20.374  0.00  0.00    +0.000 N 
ATOM     21  C   UNL     1      -4.703  12.262  19.399  0.00  0.00    +0.000 A 
ATOM     22  O   UNL     1      -5.930  12.274  19.389  0.00  0.00    +0.000 OA
ATOM     23  C   UNL     1      -3.917  11.584  18.341  0.00  0.00    +0.000 A 
ATOM     24  C   UNL     1      -2.575  11.516  18.431  0.00  0.00    +0.000 A 
ATOM     25  C   UNL     1      -1.737  10.828  17.389  0.00  0.00    +0.000 C 
ATOM     26  C   UNL     1      -2.555   9.987  16.402  0.00  0.00    +0.000 C 
ATOM     27  C   UNL     1      -3.820  10.718  15.972  0.00  0.00    +0.000 C 
ATOM     28  C   UNL     1      -4.700  11.023  17.185  0.00  0.00    +0.000 C 
ATOM     29  H   UNL     1      -4.490  13.355  21.111  0.00  0.00    +0.000 HD
ENDBRANCH  17  18
ENDBRANCH   5  17
TORSDOF 5
ENDMDL
MODEL 2
REMARK VINA RESULT:      -8.0      4.354      9.285
REMARK  Name = 
REMARK  5 active torsions:
REMARK  status: ('A' for Active; 'I' for Inactive)
REMARK    1  A    between atoms: C_2  and  C_10
REMARK    2  A    between atoms: N_3  and  C_4
REMARK    3  A    between atoms: C_4  and  C_5
REMARK    4  A    between atoms: C_14  and  C_15
REMARK    5  A    between atoms: C_15  and  C_16
REMARK                            x       y       z     vdW  Elec       q    Type
REMARK                         _______ _______ _______ _____ _____    ______ ____
ROOT
ATOM      1  C   UNL     1       2.178   6.050  19.899  0.00  0.00    +0.000 A 
ATOM      2  C   UNL     1       1.253   5.295  20.629  0.00  0.00    +0.000 A 
ATOM      3  C   UNL     1       1.526   3.957  20.919  0.00  0.00    +0.000 A 
ATOM      4  C   UNL     1       2.719   3.377  20.489  0.00  0.00    +0.000 A 
ATOM      5  C   UNL     1       3.651   4.118  19.750  0.00  0.00    +0.000 A 
ATOM      6  C   UNL     1       3.365   5.456  19.442  0.00  0.00    +0.000 A 
ENDROOT
BRANCH   1   8
ATOM      7  O   UNL     1       2.251   7.923  18.477  0.00  0.00    +0.000 OA
ATOM      8  C   UNL     1       1.943   7.483  19.581  0.00  0.00    +0.000 C 
ATOM      9  N   UNL     1       1.423   8.256  20.593  0.00  0.00    +0.000 N 
ATOM     10  H   UNL     1       1.431   7.897  21.538  0.00  0.00    +0.000 HD
BRANCH   9  11
ATOM     11  C   UNL     1       1.302   9.687  20.431  0.00  0.00    +0.000 C 
BRANCH  11  12
ATOM     12  C   UNL     1       0.303  10.188  21.423  0.00  0.00    +0.000 A 
ATOM     13  C   UNL     1      -0.074   9.602  22.616  0.00  0.00    +0.000 A 
ATOM     14  C   UNL     1      -1.055  10.366  23.310  0.00  0.00    +0.000 A 
ATOM     15  C   UNL     1      -1.397  11.510  22.624  0.00  0.00    +0.000 A 
ATOM     16  S   UNL     1      -0.539  11.656  21.152  0.00  0.00    +0.000 S 
ENDBRANCH  11  12
ENDBRANCH   9  11
ENDBRANCH   1   8
BRANCH   5  17
ATOM     17  C   UNL     1       4.977   3.502  19.361  0.00  0.00    +0.000 C 
BRANCH  17  18
ATOM     18  C   UNL     1       5.891   4.517  18.669  0.00  0.00    +0.000 A 
ATOM     19  N   UNL     1       6.605   5.281  19.445  0.00  0.00    +0.000 NA
ATOM     20  N   UNL     1       7.395   6.215  18.854  0.00  0.00    +0.000 N 
ATOM     21  C   UNL     1       7.495   6.449  17.511  0.00  0.00    +0.000 A 
ATOM     22  O   UNL     1       8.172   7.365  17.053  0.00  0.00    +0.000 OA
ATOM     23  C   UNL     1       6.747   5.515  16.636  0.00  0.00    +0.000 A 
ATOM     24  C   UNL     1       5.944   4.577  17.174  0.00  0.00    +0.000 A 
ATOM     25  C   UNL     1       5.157   3.616  16.327  0.00  0.00    +0.000 C 
ATOM     26  C   UNL     1       5.131   3.989  14.840  0.00  0.00    +0.000 C 
ATOM     27  C   UNL     1       6.504   4.445  14.363  0.00  0.00    +0.000 C 
ATOM     28  C   UNL     1       6.966   5.668  15.155  0.00  0.00    +0.000 C 
ATOM     29  H   UNL     1       7.896   6.843  19.474  0.00  0.00    +0.000 HD
ENDBRANCH  17  18
ENDBRANCH   5  17
TORSDOF 5
ENDMDL
MODEL 3
REMARK VINA RESULT:      -8.0      4.380      9.402
REMARK  Name = 
REMARK  5 active torsions:
REMARK  status: ('A' for Active; 'I' for Inactive)
REMARK    1  A    between atoms: C_2  and  C_10
REMARK    2  A    between atoms: N_3  and  C_4
REMARK    3  A    between atoms: C_4  and  C_5
REMARK    4  A    between atoms: C_14  and  C_15
REMARK    5  A    between atoms: C_15  and  C_16
REMARK                            x       y       z     vdW  Elec       q    Type
REMARK                         _______ _______ _______ _____ _____    ______ ____
ROOT
ATOM      1  C   UNL     1       2.237   6.050  19.911  0.00  0.00    +0.000 A 
ATOM      2  C   UNL     1       1.420   5.396  20.840  0.00  0.00    +0.000 A 
ATOM      3  C   UNL     1       1.646   4.051  21.135  0.00  0.00    +0.000 A 
ATOM      4  C   UNL     1       2.686   3.362  20.510  0.00  0.00    +0.000 A 
ATOM      5  C   UNL     1       3.506   4.001  19.571  0.00  0.00    +0.000 A 
ATOM      6  C   UNL     1       3.263   5.347  19.261  0.00  0.00    +0.000 A 
ENDROOT
BRANCH   1   8
ATOM      7  O   UNL     1       2.545   7.946  18.552  0.00  0.00    +0.000 OA
ATOM      8  C   UNL     1       2.049   7.486  19.576  0.00  0.00    +0.000 C 
ATOM      9  N   UNL     1       1.349   8.239  20.489  0.00  0.00    +0.000 N 
ATOM     10  H   UNL     1       1.190   7.865  21.415  0.00  0.00    +0.000 HD
BRANCH   9  11
ATOM     11  C   UNL     1       1.245   9.671  20.330  0.00  0.00    +0.000 C 
BRANCH  11  12
ATOM     12  C   UNL     1       0.308  10.193  21.371  0.00  0.00    +0.000 A 
ATOM     13  C   UNL     1      -0.110   9.563  22.527  0.00  0.00    +0.000 A 
ATOM     14  C   UNL     1      -1.007  10.364  23.289  0.00  0.00    +0.000 A 
ATOM     15  C   UNL     1      -1.247  11.580  22.689  0.00  0.00    +0.000 A 
ATOM     16  S   UNL     1      -0.396  11.748  21.215  0.00  0.00    +0.000 S 
ENDBRANCH  11  12
ENDBRANCH   9  11
ENDBRANCH   1   8
BRANCH   5  17
ATOM     17  C   UNL     1       4.681   3.268  18.963  0.00  0.00    +0.000 C 
BRANCH  17  18
ATOM     18  C   UNL     1       5.214   3.986  17.721  0.00  0.00    +0.000 A 
ATOM     19  N   UNL     1       4.697   3.634  16.578  0.00  0.00    +0.000 NA
ATOM     20  N   UNL     1       5.181   4.230  15.457  0.00  0.00    +0.000 N 
ATOM     21  C   UNL     1       6.187   5.155  15.410  0.00  0.00    +0.000 A 
ATOM     22  O   UNL     1       6.625   5.594  14.351  0.00  0.00    +0.000 OA
ATOM     23  C   UNL     1       6.704   5.613  16.722  0.00  0.00    +0.000 A 
ATOM     24  C   UNL     1       6.262   5.047  17.861  0.00  0.00    +0.000 A 
ATOM     25  C   UNL     1       6.766   5.469  19.213  0.00  0.00    +0.000 C 
ATOM     26  C   UNL     1       8.005   6.369  19.151  0.00  0.00    +0.000 C 
ATOM     27  C   UNL     1       7.873   7.413  18.050  0.00  0.00    +0.000 C 
ATOM     28  C   UNL     1       7.705   6.737  16.689  0.00  0.00    +0.000 C 
ATOM     29  H   UNL     1       4.812   3.899  14.572  0.00  0.00    +0.000 HD
ENDBRANCH  17  18
ENDBRANCH   5  17
TORSDOF 5
ENDMDL
MODEL 4
REMARK VINA RESULT:      -8.0      1.124      1.252
REMARK  Name = 
REMARK  5 active torsions:
REMARK  status: ('A' for Active; 'I' for Inactive)
REMARK    1  A    between atoms: C_2  and  C_10
REMARK    2  A    between atoms: N_3  and  C_4
REMARK    3  A    between atoms: C_4  and  C_5
REMARK    4  A    between atoms: C_14  and  C_15
REMARK    5  A    between atoms: C_15  and  C_16
REMARK                            x       y       z     vdW  Elec       q    Type
REMARK                         _______ _______ _______ _____ _____    ______ ____
ROOT
ATOM      1  C   UNL     1       0.676   9.426  20.896  0.00  0.00    +0.000 A 
ATOM      2  C   UNL     1       0.458   8.964  22.199  0.00  0.00    +0.000 A 
ATOM      3  C   UNL     1      -0.315   9.720  23.081  0.00  0.00    +0.000 A 
ATOM      4  C   UNL     1      -0.873  10.929  22.664  0.00  0.00    +0.000 A 
ATOM      5  C   UNL     1      -0.656  11.408  21.365  0.00  0.00    +0.000 A 
ATOM      6  C   UNL     1       0.138  10.656  20.488  0.00  0.00    +0.000 A 
ENDROOT
BRANCH   1   8
ATOM      7  O   UNL     1       1.566   9.038  18.752  0.00  0.00    +0.000 OA
ATOM      8  C   UNL     1       1.475   8.649  19.913  0.00  0.00    +0.000 C 
ATOM      9  N   UNL     1       2.041   7.482  20.371  0.00  0.00    +0.000 N 
ATOM     10  H   UNL     1       1.723   7.095  21.250  0.00  0.00    +0.000 HD
BRANCH   9  11
ATOM     11  C   UNL     1       2.706   6.582  19.457  0.00  0.00    +0.000 C 
BRANCH  11  12
ATOM     12  C   UNL     1       2.047   5.244  19.552  0.00  0.00    +0.000 A 
ATOM     13  C   UNL     1       1.457   4.667  20.660  0.00  0.00    +0.000 A 
ATOM     14  C   UNL     1       0.924   3.376  20.381  0.00  0.00    +0.000 A 
ATOM     15  C   UNL     1       1.126   3.009  19.070  0.00  0.00    +0.000 A 
ATOM     16  S   UNL     1       1.955   4.215  18.185  0.00  0.00    +0.000 S 
ENDBRANCH  11  12
ENDBRANCH   9  11
ENDBRANCH   1   8
BRANCH   5  17
ATOM     17  C   UNL     1      -1.335  12.677  20.899  0.00  0.00    +0.000 C 
BRANCH  17  18
ATOM     18  C   UNL     1      -2.838  12.472  20.694  0.00  0.00    +0.000 A 
ATOM     19  N   UNL     1      -3.605  12.730  21.715  0.00  0.00    +0.000 NA
ATOM     20  N   UNL     1      -4.939  12.518  21.568  0.00  0.00    +0.000 N 
ATOM     21  C   UNL     1      -5.558  12.033  20.450  0.00  0.00    +0.000 A 
ATOM     22  O   UNL     1      -6.761  11.794  20.418  0.00  0.00    +0.000 OA
ATOM     23  C   UNL     1      -4.686  11.829  19.268  0.00  0.00    +0.000 A 
ATOM     24  C   UNL     1      -3.357  12.017  19.365  0.00  0.00    +0.000 A 
ATOM     25  C   UNL     1      -2.433  11.812  18.197  0.00  0.00    +0.000 C 
ATOM     26  C   UNL     1      -3.094  11.105  17.008  0.00  0.00    +0.000 C 
ATOM     27  C   UNL     1      -4.496  11.646  16.758  0.00  0.00    +0.000 C 
ATOM     28  C   UNL     1      -5.378  11.438  17.990  0.00  0.00    +0.000 C 
ATOM     29  H   UNL     1      -5.514  12.664  22.392  0.00  0.00    +0.000 HD
ENDBRANCH  17  18
ENDBRANCH   5  17
TORSDOF 5
ENDMDL
MODEL 5
REMARK VINA RESULT:      -7.9      1.380      2.356
REMARK  Name = 
REMARK  5 active torsions:
REMARK  status: ('A' for Active; 'I' for Inactive)
REMARK    1  A    between atoms: C_2  and  C_10
REMARK    2  A    between atoms: N_3  and  C_4
REMARK    3  A    between atoms: C_4  and  C_5
REMARK    4  A    between atoms: C_14  and  C_15
REMARK    5  A    between atoms: C_15  and  C_16
REMARK                            x       y       z     vdW  Elec       q    Type
REMARK                         _______ _______ _______ _____ _____    ______ ____
ROOT
ATOM      1  C   UNL     1       1.046   9.043  20.428  0.00  0.00    +0.000 A 
ATOM      2  C   UNL     1       0.684   8.637  21.718  0.00  0.00    +0.000 A 
ATOM      3  C   UNL     1      -0.106   9.471  22.510  0.00  0.00    +0.000 A 
ATOM      4  C   UNL     1      -0.539  10.702  22.015  0.00  0.00    +0.000 A 
ATOM      5  C   UNL     1      -0.177  11.125  20.729  0.00  0.00    +0.000 A 
ATOM      6  C   UNL     1       0.635  10.294  19.944  0.00  0.00    +0.000 A 
ENDROOT
BRANCH   1   8
ATOM      7  O   UNL     1       2.107   8.539  18.389  0.00  0.00    +0.000 OA
ATOM      8  C   UNL     1       1.871   8.183  19.540  0.00  0.00    +0.000 C 
ATOM      9  N   UNL     1       2.290   6.984  20.067  0.00  0.00    +0.000 N 
ATOM     10  H   UNL     1       1.857   6.643  20.915  0.00  0.00    +0.000 HD
BRANCH   9  11
ATOM     11  C   UNL     1       2.965   6.014  19.235  0.00  0.00    +0.000 C 
BRANCH  11  12
ATOM     12  C   UNL     1       2.181   4.742  19.266  0.00  0.00    +0.000 A 
ATOM     13  C   UNL     1       1.317   4.303  20.251  0.00  0.00    +0.000 A 
ATOM     14  C   UNL     1       0.739   3.039  19.943  0.00  0.00    +0.000 A 
ATOM     15  C   UNL     1       1.183   2.552  18.733  0.00  0.00    +0.000 A 
ATOM     16  S   UNL     1       2.289   3.616  17.979  0.00  0.00    +0.000 S 
ENDBRANCH  11  12
ENDBRANCH   9  11
ENDBRANCH   1   8
BRANCH   5  17
ATOM     17  C   UNL     1      -0.721  12.423  20.173  0.00  0.00    +0.000 C 
BRANCH  17  18
ATOM     18  C   UNL     1      -1.993  12.197  19.351  0.00  0.00    +0.000 A 
ATOM     19  N   UNL     1      -1.827  11.813  18.118  0.00  0.00    +0.000 NA
ATOM     20  N   UNL     1      -2.941  11.642  17.357  0.00  0.00    +0.000 N 
ATOM     21  C   UNL     1      -4.229  11.861  17.758  0.00  0.00    +0.000 A 
ATOM     22  O   UNL     1      -5.181  11.761  16.991  0.00  0.00    +0.000 OA
ATOM     23  C   UNL     1      -4.409  12.210  19.189  0.00  0.00    +0.000 A 
ATOM     24  C   UNL     1      -3.336  12.398  19.980  0.00  0.00    +0.000 A 
ATOM     25  C   UNL     1      -3.469  12.765  21.432  0.00  0.00    +0.000 C 
ATOM     26  C   UNL     1      -4.889  13.179  21.833  0.00  0.00    +0.000 C 
ATOM     27  C   UNL     1      -5.929  12.262  21.203  0.00  0.00    +0.000 C 
ATOM     28  C   UNL     1      -5.829  12.308  19.677  0.00  0.00    +0.000 C 
ATOM     29  H   UNL     1      -2.792  11.404  16.382  0.00  0.00    +0.000 HD
ENDBRANCH  17  18
ENDBRANCH   5  17
TORSDOF 5
ENDMDL
MODEL 6
REMARK VINA RESULT:      -7.8      6.718      9.644
REMARK  Name = 
REMARK  5 active torsions:
REMARK  status: ('A' for Active; 'I' for Inactive)
REMARK    1  A    between atoms: C_2  and  C_10
REMARK    2  A    between atoms: N_3  and  C_4
REMARK    3  A    between atoms: C_4  and  C_5
REMARK    4  A    between atoms: C_14  and  C_15
REMARK    5  A    between atoms: C_15  and  C_16
REMARK                            x       y       z     vdW  Elec       q    Type
REMARK                         _______ _______ _______ _____ _____    ______ ____
ROOT
ATOM      1  C   UNL     1       7.605   7.644  18.052  0.00  0.00    +0.000 A 
ATOM      2  C   UNL     1       8.278   6.732  18.873  0.00  0.00    +0.000 A 
ATOM      3  C   UNL     1       7.833   5.411  18.951  0.00  0.00    +0.000 A 
ATOM      4  C   UNL     1       6.725   5.001  18.208  0.00  0.00    +0.000 A 
ATOM      5  C   UNL     1       6.037   5.905  17.388  0.00  0.00    +0.000 A 
ATOM      6  C   UNL     1       6.474   7.236  17.328  0.00  0.00    +0.000 A 
ENDROOT
BRANCH   1   8
ATOM      7  O   UNL     1       7.558   9.776  17.057  0.00  0.00    +0.000 OA
ATOM      8  C   UNL     1       8.051   9.056  17.920  0.00  0.00    +0.000 C 
ATOM      9  N   UNL     1       9.052   9.462  18.772  0.00  0.00    +0.000 N 
ATOM     10  H   UNL     1       9.582   8.763  19.276  0.00  0.00    +0.000 HD
BRANCH   9  11
ATOM     11  C   UNL     1       9.657  10.765  18.620  0.00  0.00    +0.000 C 
BRANCH  11  12
ATOM     12  C   UNL     1       9.346  11.573  19.838  0.00  0.00    +0.000 A 
ATOM     13  C   UNL     1       9.232  11.130  21.142  0.00  0.00    +0.000 A 
ATOM     14  C   UNL     1       8.928  12.184  22.049  0.00  0.00    +0.000 A 
ATOM     15  C   UNL     1       8.817  13.397  21.408  0.00  0.00    +0.000 A 
ATOM     16  S   UNL     1       9.077  13.261  19.724  0.00  0.00    +0.000 S 
ENDBRANCH  11  12
ENDBRANCH   9  11
ENDBRANCH   1   8
BRANCH   5  17
ATOM     17  C   UNL     1       4.890   5.428  16.524  0.00  0.00    +0.000 C 
BRANCH  17  18
ATOM     18  C   UNL     1       3.949   4.500  17.295  0.00  0.00    +0.000 A 
ATOM     19  N   UNL     1       3.974   3.240  16.965  0.00  0.00    +0.000 NA
ATOM     20  N   UNL     1       3.119   2.404  17.610  0.00  0.00    +0.000 N 
ATOM     21  C   UNL     1       2.210   2.764  18.564  0.00  0.00    +0.000 A 
ATOM     22  O   UNL     1       1.415   1.964  19.048  0.00  0.00    +0.000 OA
ATOM     23  C   UNL     1       2.254   4.182  18.995  0.00  0.00    +0.000 A 
ATOM     24  C   UNL     1       3.078   5.052  18.381  0.00  0.00    +0.000 A 
ATOM     25  C   UNL     1       3.149   6.501  18.775  0.00  0.00    +0.000 C 
ATOM     26  C   UNL     1       2.017   6.938  19.712  0.00  0.00    +0.000 C 
ATOM     27  C   UNL     1       1.756   5.890  20.786  0.00  0.00    +0.000 C 
ATOM     28  C   UNL     1       1.362   4.557  20.148  0.00  0.00    +0.000 C 
ATOM     29  H   UNL     1       3.107   1.439  17.296  0.00  0.00    +0.000 HD
ENDBRANCH  17  18
ENDBRANCH   5  17
TORSDOF 5
ENDMDL
MODEL 7
REMARK VINA RESULT:      -7.8      2.208      3.126
REMARK  Name = 
REMARK  5 active torsions:
REMARK  status: ('A' for Active; 'I' for Inactive)
REMARK    1  A    between atoms: C_2  and  C_10
REMARK    2  A    between atoms: N_3  and  C_4
REMARK    3  A    between atoms: C_4  and  C_5
REMARK    4  A    between atoms: C_14  and  C_15
REMARK    5  A    between atoms: C_15  and  C_16
REMARK                            x       y       z     vdW  Elec       q    Type
REMARK                         _______ _______ _______ _____ _____    ______ ____
ROOT
ATOM      1  C   UNL     1       1.936   7.587  19.608  0.00  0.00    +0.000 A 
ATOM      2  C   UNL     1       1.407   7.405  20.891  0.00  0.00    +0.000 A 
ATOM      3  C   UNL     1       0.678   8.432  21.492  0.00  0.00    +0.000 A 
ATOM      4  C   UNL     1       0.473   9.634  20.814  0.00  0.00    +0.000 A 
ATOM      5  C   UNL     1       1.004   9.834  19.532  0.00  0.00    +0.000 A 
ATOM      6  C   UNL     1       1.753   8.808  18.940  0.00  0.00    +0.000 A 
ENDROOT
BRANCH   1   8
ATOM      7  O   UNL     1       2.700   5.375  19.366  0.00  0.00    +0.000 OA
ATOM      8  C   UNL     1       2.703   6.517  18.918  0.00  0.00    +0.000 C 
ATOM      9  N   UNL     1       3.427   6.901  17.813  0.00  0.00    +0.000 N 
ATOM     10  H   UNL     1       3.588   7.886  17.650  0.00  0.00    +0.000 HD
BRANCH   9  11
ATOM     11  C   UNL     1       4.323   5.971  17.166  0.00  0.00    +0.000 C 
BRANCH  11  12
ATOM     12  C   UNL     1       5.703   6.204  17.691  0.00  0.00    +0.000 A 
ATOM     13  C   UNL     1       6.618   7.152  17.275  0.00  0.00    +0.000 A 
ATOM     14  C   UNL     1       7.838   7.088  18.006  0.00  0.00    +0.000 A 
ATOM     15  C   UNL     1       7.815   6.091  18.956  0.00  0.00    +0.000 A 
ATOM     16  S   UNL     1       6.332   5.240  18.960  0.00  0.00    +0.000 S 
ENDBRANCH  11  12
ENDBRANCH   9  11
ENDBRANCH   1   8
BRANCH   5  17
ATOM     17  C   UNL     1       0.703  11.109  18.774  0.00  0.00    +0.000 C 
BRANCH  17  18
ATOM     18  C   UNL     1      -0.659  11.689  19.162  0.00  0.00    +0.000 A 
ATOM     19  N   UNL     1      -0.666  12.552  20.138  0.00  0.00    +0.000 NA
ATOM     20  N   UNL     1      -1.869  13.053  20.525  0.00  0.00    +0.000 N 
ATOM     21  C   UNL     1      -3.086  12.717  20.001  0.00  0.00    +0.000 A 
ATOM     22  O   UNL     1      -4.139  13.153  20.456  0.00  0.00    +0.000 OA
ATOM     23  C   UNL     1      -3.055  11.804  18.833  0.00  0.00    +0.000 A 
ATOM     24  C   UNL     1      -1.889  11.275  18.417  0.00  0.00    +0.000 A 
ATOM     25  C   UNL     1      -1.810  10.335  17.245  0.00  0.00    +0.000 C 
ATOM     26  C   UNL     1      -3.177   9.825  16.775  0.00  0.00    +0.000 C 
ATOM     27  C   UNL     1      -4.207  10.948  16.757  0.00  0.00    +0.000 C 
ATOM     28  C   UNL     1      -4.373  11.544  18.155  0.00  0.00    +0.000 C 
ATOM     29  H   UNL     1      -1.864  13.675  21.327  0.00  0.00    +0.000 HD
ENDBRANCH  17  18
ENDBRANCH   5  17
TORSDOF 5
ENDMDL
MODEL 8
REMARK VINA RESULT:      -7.7      1.943      2.788
REMARK  Name = 
REMARK  5 active torsions:
REMARK  status: ('A' for Active; 'I' for Inactive)
REMARK    1  A    between atoms: C_2  and  C_10
REMARK    2  A    between atoms: N_3  and  C_4
REMARK    3  A    between atoms: C_4  and  C_5
REMARK    4  A    between atoms: C_14  and  C_15
REMARK    5  A    between atoms: C_15  and  C_16
REMARK                            x       y       z     vdW  Elec       q    Type
REMARK                         _______ _______ _______ _____ _____    ______ ____
ROOT
ATOM      1  C   UNL     1       2.039   7.455  19.670  0.00  0.00    +0.000 A 
ATOM      2  C   UNL     1       1.517   7.343  20.964  0.00  0.00    +0.000 A 
ATOM      3  C   UNL     1       0.807   8.409  21.519  0.00  0.00    +0.000 A 
ATOM      4  C   UNL     1       0.612   9.579  20.784  0.00  0.00    +0.000 A 
ATOM      5  C   UNL     1       1.136   9.708  19.491  0.00  0.00    +0.000 A 
ATOM      6  C   UNL     1       1.867   8.644  18.944  0.00  0.00    +0.000 A 
ENDROOT
BRANCH   1   8
ATOM      7  O   UNL     1       2.715   6.178  17.814  0.00  0.00    +0.000 OA
ATOM      8  C   UNL     1       2.786   6.343  19.028  0.00  0.00    +0.000 C 
ATOM      9  N   UNL     1       3.493   5.516  19.870  0.00  0.00    +0.000 N 
ATOM     10  H   UNL     1       3.308   5.552  20.863  0.00  0.00    +0.000 HD
BRANCH   9  11
ATOM     11  C   UNL     1       4.125   4.321  19.360  0.00  0.00    +0.000 C 
BRANCH  11  12
ATOM     12  C   UNL     1       5.433   4.705  18.747  0.00  0.00    +0.000 A 
ATOM     13  C   UNL     1       6.480   5.383  19.341  0.00  0.00    +0.000 A 
ATOM     14  C   UNL     1       7.577   5.574  18.454  0.00  0.00    +0.000 A 
ATOM     15  C   UNL     1       7.331   5.038  17.209  0.00  0.00    +0.000 A 
ATOM     16  S   UNL     1       5.785   4.312  17.117  0.00  0.00    +0.000 S 
ENDBRANCH  11  12
ENDBRANCH   9  11
ENDBRANCH   1   8
BRANCH   5  17
ATOM     17  C   UNL     1       0.847  10.948  18.674  0.00  0.00    +0.000 C 
BRANCH  17  18
ATOM     18  C   UNL     1      -0.470  11.607  19.092  0.00  0.00    +0.000 A 
ATOM     19  N   UNL     1      -0.398  12.502  20.036  0.00  0.00    +0.000 NA
ATOM     20  N   UNL     1      -1.559  13.073  20.451  0.00  0.00    +0.000 N 
ATOM     21  C   UNL     1      -2.811  12.778  19.986  0.00  0.00    +0.000 A 
ATOM     22  O   UNL     1      -3.823  13.280  20.465  0.00  0.00    +0.000 OA
ATOM     23  C   UNL     1      -2.869  11.825  18.852  0.00  0.00    +0.000 A 
ATOM     24  C   UNL     1      -1.747  11.227  18.410  0.00  0.00    +0.000 A 
ATOM     25  C   UNL     1      -1.760  10.245  17.272  0.00  0.00    +0.000 C 
ATOM     26  C   UNL     1      -3.167   9.785  16.874  0.00  0.00    +0.000 C 
ATOM     27  C   UNL     1      -4.143  10.955  16.854  0.00  0.00    +0.000 C 
ATOM     28  C   UNL     1      -4.225  11.606  18.235  0.00  0.00    +0.000 C 
ATOM     29  H   UNL     1      -1.493  13.722  21.229  0.00  0.00    +0.000 HD
ENDBRANCH  17  18
ENDBRANCH   5  17
TORSDOF 5
ENDMDL
MODEL 9
REMARK VINA RESULT:      -7.7      3.632      9.224
REMARK  Name = 
REMARK  5 active torsions:
REMARK  status: ('A' for Active; 'I' for Inactive)
REMARK    1  A    between atoms: C_2  and  C_10
REMARK    2  A    between atoms: N_3  and  C_4
REMARK    3  A    between atoms: C_4  and  C_5
REMARK    4  A    between atoms: C_14  and  C_15
REMARK    5  A    between atoms: C_15  and  C_16
REMARK                            x       y       z     vdW  Elec       q    Type
REMARK                         _______ _______ _______ _____ _____    ______ ____
ROOT
ATOM      1  C   UNL     1       1.937   6.097  20.102  0.00  0.00    +0.000 A 
ATOM      2  C   UNL     1       0.867   5.309  20.543  0.00  0.00    +0.000 A 
ATOM      3  C   UNL     1       0.960   3.918  20.482  0.00  0.00    +0.000 A 
ATOM      4  C   UNL     1       2.118   3.315  19.988  0.00  0.00    +0.000 A 
ATOM      5  C   UNL     1       3.193   4.091  19.535  0.00  0.00    +0.000 A 
ATOM      6  C   UNL     1       3.088   5.489  19.579  0.00  0.00    +0.000 A 
ENDROOT
BRANCH   1   8
ATOM      7  O   UNL     1       1.750   8.146  21.245  0.00  0.00    +0.000 OA
ATOM      8  C   UNL     1       1.894   7.582  20.164  0.00  0.00    +0.000 C 
ATOM      9  N   UNL     1       1.975   8.245  18.962  0.00  0.00    +0.000 N 
ATOM     10  H   UNL     1       1.838   7.726  18.105  0.00  0.00    +0.000 HD
BRANCH   9  11
ATOM     11  C   UNL     1       1.789   9.677  18.903  0.00  0.00    +0.000 C 
BRANCH  11  12
ATOM     12  C   UNL     1       0.354   9.952  18.590  0.00  0.00    +0.000 A 
ATOM     13  C   UNL     1      -0.386   9.480  17.523  0.00  0.00    +0.000 A 
ATOM     14  C   UNL     1      -1.731   9.947  17.545  0.00  0.00    +0.000 A 
ATOM     15  C   UNL     1      -1.974  10.763  18.628  0.00  0.00    +0.000 A 
ATOM     16  S   UNL     1      -0.586  10.963  19.606  0.00  0.00    +0.000 S 
ENDBRANCH  11  12
ENDBRANCH   9  11
ENDBRANCH   1   8
BRANCH   5  17
ATOM     17  C   UNL     1       4.473   3.426  19.080  0.00  0.00    +0.000 C 
BRANCH  17  18
ATOM     18  C   UNL     1       5.041   4.090  17.824  0.00  0.00    +0.000 A 
ATOM     19  N   UNL     1       4.495   3.752  16.690  0.00  0.00    +0.000 NA
ATOM     20  N   UNL     1       5.008   4.301  15.557  0.00  0.00    +0.000 N 
ATOM     21  C   UNL     1       6.067   5.162  15.490  0.00  0.00    +0.000 A 
ATOM     22  O   UNL     1       6.525   5.557  14.422  0.00  0.00    +0.000 OA
ATOM     23  C   UNL     1       6.620   5.608  16.792  0.00  0.00    +0.000 A 
ATOM     24  C   UNL     1       6.151   5.088  17.941  0.00  0.00    +0.000 A 
ATOM     25  C   UNL     1       6.689   5.500  19.284  0.00  0.00    +0.000 C 
ATOM     26  C   UNL     1       7.981   6.322  19.201  0.00  0.00    +0.000 C 
ATOM     27  C   UNL     1       7.905   7.355  18.084  0.00  0.00    +0.000 C 
ATOM     28  C   UNL     1       7.686   6.669  16.734  0.00  0.00    +0.000 C 
ATOM     29  H   UNL     1       4.613   3.979  14.680  0.00  0.00    +0.000 HD
ENDBRANCH  17  18
ENDBRANCH   5  17
TORSDOF 5
ENDMDL
