MODEL 1
REMARK VINA RESULT:      -8.0      0.000      0.000
REMARK  Name = 
REMARK  8 active torsions:
REMARK  status: ('A' for Active; 'I' for Inactive)
REMARK    1  A    between atoms: C_1  and  N_2
REMARK    2  A    between atoms: N_2  and  C_3
REMARK    3  A    between atoms: N_2  and  C_4
REMARK    4  A    between atoms: C_4  and  C_5
REMARK    5  A    between atoms: C_5  and  N_6
REMARK    6  A    between atoms: N_6  and  C_7
REMARK    7  A    between atoms: C_13  and  O_14
REMARK    8  A    between atoms: O_14  and  C_15
REMARK                            x       y       z     vdW  Elec       q    Type
REMARK                         _______ _______ _______ _____ _____    ______ ____
ROOT
ATOM      1  C   UNL     1       3.658   3.411  17.586  0.00  0.00    +0.000 C 
ATOM      2  C   UNL     1       2.885   2.087  17.807  0.00  0.00    +0.000 C 
ATOM      3  C   UNL     1       2.401   2.086  19.259  0.00  0.00    +0.000 C 
ATOM      4  C   UNL     1       2.174   3.548  19.472  0.00  0.00    +0.000 A 
ATOM      5  C   UNL     1       1.417   4.157  20.456  0.00  0.00    +0.000 A 
ATOM      6  C   UNL     1       1.406   5.554  20.522  0.00  0.00    +0.000 A 
ATOM      7  C   UNL     1       2.190   6.320  19.647  0.00  0.00    +0.000 A 
ATOM      8  C   UNL     1       2.915   5.689  18.627  0.00  0.00    +0.000 A 
ATOM      9  C   UNL     1       2.900   4.303  18.544  0.00  0.00    +0.000 A 
ENDROOT
BRANCH   1  10
ATOM     10  N   UNL     1       5.074   3.419  17.961  0.00  0.00    +0.000 NA
ATOM     11  H   UNL     1       5.170   2.737  18.709  0.00  0.00    +0.000 HD
BRANCH  10  12
ATOM     12  C   UNL     1       5.578   4.712  18.420  0.00  0.00    +0.000 C 
BRANCH  12  13
ATOM     13  C   UNL     1       6.646   5.471  17.508  0.00  0.00    +0.000 C 
ATOM     14  C   UNL     1       7.201   4.474  16.440  0.00  0.00    +0.000 C 
ATOM     15  C   UNL     1       6.321   4.275  15.208  0.00  0.00    +0.000 C 
ATOM     16  O   UNL     1       5.902   5.519  14.660  0.00  0.00    +0.000 OA
ATOM     17  C   UNL     1       5.121   6.270  15.586  0.00  0.00    +0.000 C 
ATOM     18  C   UNL     1       5.968   6.671  16.788  0.00  0.00    +0.000 C 
BRANCH  13  20
ATOM     19  C   UNL     1       8.098   7.344  18.402  0.00  0.00    +0.000 C 
ATOM     20  N   UNL     1       7.777   5.908  18.429  0.00  0.00    +0.000 NA
ATOM     21  C   UNL     1       7.606   5.523  19.840  0.00  0.00    +0.000 C 
ENDBRANCH  13  20
ENDBRANCH  12  13
ENDBRANCH  10  12
ENDBRANCH   1  10
BRANCH   7  22
ATOM     22  O   UNL     1       2.304   7.677  19.662  0.00  0.00    +0.000 OA
BRANCH  22  23
ATOM     23  C   UNL     1       2.143   8.407  18.453  0.00  0.00    +0.000 C 
ATOM     24  F   UNL     1       1.267   7.861  17.582  0.00  0.00    +0.000 F 
ATOM     25  F   UNL     1       1.697   9.646  18.758  0.00  0.00    +0.000 F 
ATOM     26  F   UNL     1       3.342   8.533  17.844  0.00  0.00    +0.000 F 
ENDBRANCH  22  23
ENDBRANCH   7  22
TORSDOF 6
ENDMDL
MODEL 2
REMARK VINA RESULT:      -7.8      1.263      1.577
REMARK  Name = 
REMARK  8 active torsions:
REMARK  status: ('A' for Active; 'I' for Inactive)
REMARK    1  A    between atoms: C_1  and  N_2
REMARK    2  A    between atoms: N_2  and  C_3
REMARK    3  A    between atoms: N_2  and  C_4
REMARK    4  A    between atoms: C_4  and  C_5
REMARK    5  A    between atoms: C_5  and  N_6
REMARK    6  A    between atoms: N_6  and  C_7
REMARK    7  A    between atoms: C_13  and  O_14
REMARK    8  A    between atoms: O_14  and  C_15
REMARK                            x       y       z     vdW  Elec       q    Type
REMARK                         _______ _______ _______ _____ _____    ______ ____
ROOT
ATOM      1  C   UNL     1       2.530   3.447  18.127  0.00  0.00    +0.000 C 
ATOM      2  C   UNL     1       1.648   2.560  19.040  0.00  0.00    +0.000 C 
ATOM      3  C   UNL     1       1.657   3.198  20.432  0.00  0.00    +0.000 C 
ATOM      4  C   UNL     1       1.768   4.643  20.068  0.00  0.00    +0.000 A 
ATOM      5  C   UNL     1       1.481   5.743  20.857  0.00  0.00    +0.000 A 
ATOM      6  C   UNL     1       1.737   7.018  20.343  0.00  0.00    +0.000 A 
ATOM      7  C   UNL     1       2.324   7.178  19.079  0.00  0.00    +0.000 A 
ATOM      8  C   UNL     1       2.565   6.055  18.275  0.00  0.00    +0.000 A 
ATOM      9  C   UNL     1       2.283   4.792  18.775  0.00  0.00    +0.000 A 
ENDROOT
BRANCH   1  10
ATOM     10  N   UNL     1       3.970   3.180  18.139  0.00  0.00    +0.000 NA
ATOM     11  H   UNL     1       4.356   3.755  18.882  0.00  0.00    +0.000 HD
BRANCH  10  12
ATOM     12  C   UNL     1       4.659   3.486  16.886  0.00  0.00    +0.000 C 
BRANCH  12  13
ATOM     13  C   UNL     1       5.881   4.513  16.930  0.00  0.00    +0.000 C 
ATOM     14  C   UNL     1       6.968   4.051  15.907  0.00  0.00    +0.000 C 
ATOM     15  C   UNL     1       6.713   4.447  14.454  0.00  0.00    +0.000 C 
ATOM     16  O   UNL     1       6.376   5.824  14.342  0.00  0.00    +0.000 OA
ATOM     17  C   UNL     1       5.181   6.138  15.051  0.00  0.00    +0.000 C 
ATOM     18  C   UNL     1       5.388   5.937  16.548  0.00  0.00    +0.000 C 
BRANCH  13  20
ATOM     19  C   UNL     1       7.914   4.597  18.438  0.00  0.00    +0.000 C 
ATOM     20  N   UNL     1       6.453   4.453  18.340  0.00  0.00    +0.000 NA
ATOM     21  C   UNL     1       5.854   5.407  19.288  0.00  0.00    +0.000 C 
ENDBRANCH  13  20
ENDBRANCH  12  13
ENDBRANCH  10  12
ENDBRANCH   1  10
BRANCH   7  22
ATOM     22  O   UNL     1       2.672   8.365  18.508  0.00  0.00    +0.000 OA
BRANCH  22  23
ATOM     23  C   UNL     1       1.668   9.335  18.238  0.00  0.00    +0.000 C 
ATOM     24  F   UNL     1       1.105   9.878  19.339  0.00  0.00    +0.000 F 
ATOM     25  F   UNL     1       2.225  10.340  17.526  0.00  0.00    +0.000 F 
ATOM     26  F   UNL     1       0.698   8.776  17.483  0.00  0.00    +0.000 F 
ENDBRANCH  22  23
ENDBRANCH   7  22
TORSDOF 6
ENDMDL
MODEL 3
REMARK VINA RESULT:      -7.6      1.758      2.873
REMARK  Name = 
REMARK  8 active torsions:
REMARK  status: ('A' for Active; 'I' for Inactive)
REMARK    1  A    between atoms: C_1  and  N_2
REMARK    2  A    between atoms: N_2  and  C_3
REMARK    3  A    between atoms: N_2  and  C_4
REMARK    4  A    between atoms: C_4  and  C_5
REMARK    5  A    between atoms: C_5  and  N_6
REMARK    6  A    between atoms: N_6  and  C_7
REMARK    7  A    between atoms: C_13  and  O_14
REMARK    8  A    between atoms: O_14  and  C_15
REMARK                            x       y       z     vdW  Elec       q    Type
REMARK                         _______ _______ _______ _____ _____    ______ ____
ROOT
ATOM      1  C   UNL     1       3.083   3.648  17.422  0.00  0.00    +0.000 C 
ATOM      2  C   UNL     1       2.399   2.285  17.686  0.00  0.00    +0.000 C 
ATOM      3  C   UNL     1       2.245   2.145  19.204  0.00  0.00    +0.000 C 
ATOM      4  C   UNL     1       2.047   3.575  19.590  0.00  0.00    +0.000 A 
ATOM      5  C   UNL     1       1.514   4.073  20.765  0.00  0.00    +0.000 A 
ATOM      6  C   UNL     1       1.496   5.459  20.957  0.00  0.00    +0.000 A 
ATOM      7  C   UNL     1       2.057   6.322  20.004  0.00  0.00    +0.000 A 
ATOM      8  C   UNL     1       2.550   5.804  18.798  0.00  0.00    +0.000 A 
ATOM      9  C   UNL     1       2.540   4.431  18.597  0.00  0.00    +0.000 A 
ENDROOT
BRANCH   1  10
ATOM     10  N   UNL     1       4.547   3.675  17.480  0.00  0.00    +0.000 NA
ATOM     11  H   UNL     1       4.797   4.591  17.843  0.00  0.00    +0.000 HD
BRANCH  10  12
ATOM     12  C   UNL     1       5.213   3.466  16.196  0.00  0.00    +0.000 C 
BRANCH  12  13
ATOM     13  C   UNL     1       6.246   4.576  15.695  0.00  0.00    +0.000 C 
ATOM     14  C   UNL     1       5.504   5.947  15.586  0.00  0.00    +0.000 C 
ATOM     15  C   UNL     1       5.347   6.715  16.896  0.00  0.00    +0.000 C 
ATOM     16  O   UNL     1       6.577   6.790  17.607  0.00  0.00    +0.000 OA
ATOM     17  C   UNL     1       7.063   5.498  17.962  0.00  0.00    +0.000 C 
ATOM     18  C   UNL     1       7.417   4.705  16.710  0.00  0.00    +0.000 C 
BRANCH  13  20
ATOM     19  C   UNL     1       5.658   3.737  13.378  0.00  0.00    +0.000 C 
ATOM     20  N   UNL     1       6.719   4.144  14.313  0.00  0.00    +0.000 NA
ATOM     21  C   UNL     1       7.565   5.127  13.616  0.00  0.00    +0.000 C 
ENDBRANCH  13  20
ENDBRANCH  12  13
ENDBRANCH  10  12
ENDBRANCH   1  10
BRANCH   7  22
ATOM     22  O   UNL     1       2.150   7.676  20.115  0.00  0.00    +0.000 OA
BRANCH  22  23
ATOM     23  C   UNL     1       1.212   8.380  20.919  0.00  0.00    +0.000 C 
ATOM     24  F   UNL     1       0.054   7.720  21.136  0.00  0.00    +0.000 F 
ATOM     25  F   UNL     1       1.778   8.619  22.124  0.00  0.00    +0.000 F 
ATOM     26  F   UNL     1       0.935   9.570  20.345  0.00  0.00    +0.000 F 
ENDBRANCH  22  23
ENDBRANCH   7  22
TORSDOF 6
ENDMDL
MODEL 4
REMARK VINA RESULT:      -7.6      3.235      5.442
REMARK  Name = 
REMARK  8 active torsions:
REMARK  status: ('A' for Active; 'I' for Inactive)
REMARK    1  A    between atoms: C_1  and  N_2
REMARK    2  A    between atoms: N_2  and  C_3
REMARK    3  A    between atoms: N_2  and  C_4
REMARK    4  A    between atoms: C_4  and  C_5
REMARK    5  A    between atoms: C_5  and  N_6
REMARK    6  A    between atoms: N_6  and  C_7
REMARK    7  A    between atoms: C_13  and  O_14
REMARK    8  A    between atoms: O_14  and  C_15
REMARK                            x       y       z     vdW  Elec       q    Type
REMARK                         _______ _______ _______ _____ _____    ______ ____
ROOT
ATOM      1  C   UNL     1       2.713   7.305  19.308  0.00  0.00    +0.000 C 
ATOM      2  C   UNL     1       2.944   7.668  17.820  0.00  0.00    +0.000 C 
ATOM      3  C   UNL     1       1.722   8.464  17.356  0.00  0.00    +0.000 C 
ATOM      4  C   UNL     1       1.360   9.170  18.623  0.00  0.00    +0.000 A 
ATOM      5  C   UNL     1       0.563  10.291  18.775  0.00  0.00    +0.000 A 
ATOM      6  C   UNL     1       0.284  10.742  20.069  0.00  0.00    +0.000 A 
ATOM      7  C   UNL     1       0.753  10.041  21.189  0.00  0.00    +0.000 A 
ATOM      8  C   UNL     1       1.597   8.935  21.018  0.00  0.00    +0.000 A 
ATOM      9  C   UNL     1       1.897   8.506  19.732  0.00  0.00    +0.000 A 
ENDROOT
BRANCH   1  10
ATOM     10  N   UNL     1       1.936   6.094  19.579  0.00  0.00    +0.000 NA
ATOM     11  H   UNL     1       1.170   6.380  20.182  0.00  0.00    +0.000 HD
BRANCH  10  12
ATOM     12  C   UNL     1       2.684   5.020  20.230  0.00  0.00    +0.000 C 
BRANCH  12  13
ATOM     13  C   UNL     1       2.903   3.658  19.425  0.00  0.00    +0.000 C 
ATOM     14  C   UNL     1       2.633   3.917  17.908  0.00  0.00    +0.000 C 
ATOM     15  C   UNL     1       3.792   4.539  17.131  0.00  0.00    +0.000 C 
ATOM     16  O   UNL     1       5.013   3.855  17.382  0.00  0.00    +0.000 OA
ATOM     17  C   UNL     1       5.383   3.915  18.757  0.00  0.00    +0.000 C 
ATOM     18  C   UNL     1       4.366   3.165  19.609  0.00  0.00    +0.000 C 
BRANCH  13  20
ATOM     19  C   UNL     1       1.372   2.942  21.312  0.00  0.00    +0.000 C 
ATOM     20  N   UNL     1       1.882   2.664  19.960  0.00  0.00    +0.000 NA
ATOM     21  C   UNL     1       0.715   2.450  19.086  0.00  0.00    +0.000 C 
ENDBRANCH  13  20
ENDBRANCH  12  13
ENDBRANCH  10  12
ENDBRANCH   1  10
BRANCH   7  22
ATOM     22  O   UNL     1       0.492  10.353  22.490  0.00  0.00    +0.000 OA
BRANCH  22  23
ATOM     23  C   UNL     1      -0.487   9.611  23.205  0.00  0.00    +0.000 C 
ATOM     24  F   UNL     1      -0.969   8.537  22.543  0.00  0.00    +0.000 F 
ATOM     25  F   UNL     1       0.070   9.166  24.354  0.00  0.00    +0.000 F 
ATOM     26  F   UNL     1      -1.517  10.422  23.528  0.00  0.00    +0.000 F 
ENDBRANCH  22  23
ENDBRANCH   7  22
TORSDOF 6
ENDMDL
MODEL 5
REMARK VINA RESULT:      -7.5      3.664      6.675
REMARK  Name = 
REMARK  8 active torsions:
REMARK  status: ('A' for Active; 'I' for Inactive)
REMARK    1  A    between atoms: C_1  and  N_2
REMARK    2  A    between atoms: N_2  and  C_3
REMARK    3  A    between atoms: N_2  and  C_4
REMARK    4  A    between atoms: C_4  and  C_5
REMARK    5  A    between atoms: C_5  and  N_6
REMARK    6  A    between atoms: N_6  and  C_7
REMARK    7  A    between atoms: C_13  and  O_14
REMARK    8  A    between atoms: O_14  and  C_15
REMARK                            x       y       z     vdW  Elec       q    Type
REMARK                         _______ _______ _______ _____ _____    ______ ____
ROOT
ATOM      1  C   UNL     1       5.043   5.908  17.425  0.00  0.00    +0.000 C 
ATOM      2  C   UNL     1       6.282   6.742  17.835  0.00  0.00    +0.000 C 
ATOM      3  C   UNL     1       7.515   6.011  17.296  0.00  0.00    +0.000 C 
ATOM      4  C   UNL     1       6.950   5.409  16.049  0.00  0.00    +0.000 A 
ATOM      5  C   UNL     1       7.638   4.921  14.953  0.00  0.00    +0.000 A 
ATOM      6  C   UNL     1       6.911   4.320  13.921  0.00  0.00    +0.000 A 
ATOM      7  C   UNL     1       5.521   4.162  14.020  0.00  0.00    +0.000 A 
ATOM      8  C   UNL     1       4.834   4.703  15.117  0.00  0.00    +0.000 A 
ATOM      9  C   UNL     1       5.555   5.326  16.126  0.00  0.00    +0.000 A 
ENDROOT
BRANCH   1  10
ATOM     10  N   UNL     1       4.665   4.807  18.313  0.00  0.00    +0.000 NA
ATOM     11  H   UNL     1       4.004   4.238  17.790  0.00  0.00    +0.000 HD
BRANCH  10  12
ATOM     12  C   UNL     1       4.051   5.221  19.573  0.00  0.00    +0.000 C 
BRANCH  12  13
ATOM     13  C   UNL     1       2.514   5.653  19.557  0.00  0.00    +0.000 C 
ATOM     14  C   UNL     1       1.839   5.078  18.270  0.00  0.00    +0.000 C 
ATOM     15  C   UNL     1       1.406   3.616  18.352  0.00  0.00    +0.000 C 
ATOM     16  O   UNL     1       0.673   3.356  19.542  0.00  0.00    +0.000 OA
ATOM     17  C   UNL     1       1.450   3.603  20.710  0.00  0.00    +0.000 C 
ATOM     18  C   UNL     1       1.792   5.085  20.812  0.00  0.00    +0.000 C 
BRANCH  13  20
ATOM     19  C   UNL     1       2.140   7.762  18.205  0.00  0.00    +0.000 C 
ATOM     20  N   UNL     1       2.486   7.174  19.509  0.00  0.00    +0.000 NA
ATOM     21  C   UNL     1       1.620   7.807  20.518  0.00  0.00    +0.000 C 
ENDBRANCH  13  20
ENDBRANCH  12  13
ENDBRANCH  10  12
ENDBRANCH   1  10
BRANCH   7  22
ATOM     22  O   UNL     1       4.723   3.539  13.108  0.00  0.00    +0.000 OA
BRANCH  22  23
ATOM     23  C   UNL     1       5.251   3.194  11.835  0.00  0.00    +0.000 C 
ATOM     24  F   UNL     1       6.322   3.926  11.456  0.00  0.00    +0.000 F 
ATOM     25  F   UNL     1       5.634   1.898  11.867  0.00  0.00    +0.000 F 
ATOM     26  F   UNL     1       4.285   3.321  10.900  0.00  0.00    +0.000 F 
ENDBRANCH  22  23
ENDBRANCH   7  22
TORSDOF 6
ENDMDL
MODEL 6
REMARK VINA RESULT:      -7.5      1.212      1.540
REMARK  Name = 
REMARK  8 active torsions:
REMARK  status: ('A' for Active; 'I' for Inactive)
REMARK    1  A    between atoms: C_1  and  N_2
REMARK    2  A    between atoms: N_2  and  C_3
REMARK    3  A    between atoms: N_2  and  C_4
REMARK    4  A    between atoms: C_4  and  C_5
REMARK    5  A    between atoms: C_5  and  N_6
REMARK    6  A    between atoms: N_6  and  C_7
REMARK    7  A    between atoms: C_13  and  O_14
REMARK    8  A    between atoms: O_14  and  C_15
REMARK                            x       y       z     vdW  Elec       q    Type
REMARK                         _______ _______ _______ _____ _____    ______ ____
ROOT
ATOM      1  C   UNL     1       3.218   3.587  17.417  0.00  0.00    +0.000 C 
ATOM      2  C   UNL     1       2.498   2.233  17.637  0.00  0.00    +0.000 C 
ATOM      3  C   UNL     1       2.257   2.091  19.143  0.00  0.00    +0.000 C 
ATOM      4  C   UNL     1       2.060   3.523  19.523  0.00  0.00    +0.000 A 
ATOM      5  C   UNL     1       1.471   4.025  20.670  0.00  0.00    +0.000 A 
ATOM      6  C   UNL     1       1.464   5.410  20.866  0.00  0.00    +0.000 A 
ATOM      7  C   UNL     1       2.091   6.267  19.950  0.00  0.00    +0.000 A 
ATOM      8  C   UNL     1       2.643   5.746  18.771  0.00  0.00    +0.000 A 
ATOM      9  C   UNL     1       2.622   4.374  18.564  0.00  0.00    +0.000 A 
ENDROOT
BRANCH   1  10
ATOM     10  N   UNL     1       4.676   3.589  17.557  0.00  0.00    +0.000 NA
ATOM     11  H   UNL     1       4.911   2.735  18.056  0.00  0.00    +0.000 HD
BRANCH  10  12
ATOM     12  C   UNL     1       5.218   4.736  18.283  0.00  0.00    +0.000 C 
BRANCH  12  13
ATOM     13  C   UNL     1       6.349   5.610  17.572  0.00  0.00    +0.000 C 
ATOM     14  C   UNL     1       7.279   4.664  16.748  0.00  0.00    +0.000 C 
ATOM     15  C   UNL     1       6.754   4.262  15.371  0.00  0.00    +0.000 C 
ATOM     16  O   UNL     1       6.299   5.392  14.637  0.00  0.00    +0.000 OA
ATOM     17  C   UNL     1       5.221   6.053  15.294  0.00  0.00    +0.000 C 
ATOM     18  C   UNL     1       5.693   6.646  16.616  0.00  0.00    +0.000 C 
BRANCH  13  20
ATOM     19  C   UNL     1       7.988   5.366  19.489  0.00  0.00    +0.000 C 
ATOM     20  N   UNL     1       7.155   6.272  18.682  0.00  0.00    +0.000 NA
ATOM     21  C   UNL     1       8.015   7.383  18.241  0.00  0.00    +0.000 C 
ENDBRANCH  13  20
ENDBRANCH  12  13
ENDBRANCH  10  12
ENDBRANCH   1  10
BRANCH   7  22
ATOM     22  O   UNL     1       2.199   7.620  20.071  0.00  0.00    +0.000 OA
BRANCH  22  23
ATOM     23  C   UNL     1       1.259   8.330  20.866  0.00  0.00    +0.000 C 
ATOM     24  F   UNL     1       0.092   7.680  21.067  0.00  0.00    +0.000 F 
ATOM     25  F   UNL     1       1.812   8.560  22.079  0.00  0.00    +0.000 F 
ATOM     26  F   UNL     1       1.000   9.525  20.293  0.00  0.00    +0.000 F 
ENDBRANCH  22  23
ENDBRANCH   7  22
TORSDOF 6
ENDMDL
MODEL 7
REMARK VINA RESULT:      -7.5      1.518      2.692
REMARK  Name = 
REMARK  8 active torsions:
REMARK  status: ('A' for Active; 'I' for Inactive)
REMARK    1  A    between atoms: C_1  and  N_2
REMARK    2  A    between atoms: N_2  and  C_3
REMARK    3  A    between atoms: N_2  and  C_4
REMARK    4  A    between atoms: C_4  and  C_5
REMARK    5  A    between atoms: C_5  and  N_6
REMARK    6  A    between atoms: N_6  and  C_7
REMARK    7  A    between atoms: C_13  and  O_14
REMARK    8  A    between atoms: O_14  and  C_15
REMARK                            x       y       z     vdW  Elec       q    Type
REMARK                         _______ _______ _______ _____ _____    ______ ____
ROOT
ATOM      1  C   UNL     1       3.080   3.757  17.498  0.00  0.00    +0.000 C 
ATOM      2  C   UNL     1       2.324   2.569  18.143  0.00  0.00    +0.000 C 
ATOM      3  C   UNL     1       2.212   2.867  19.641  0.00  0.00    +0.000 C 
ATOM      4  C   UNL     1       2.112   4.358  19.615  0.00  0.00    +0.000 A 
ATOM      5  C   UNL     1       1.649   5.197  20.613  0.00  0.00    +0.000 A 
ATOM      6  C   UNL     1       1.719   6.579  20.410  0.00  0.00    +0.000 A 
ATOM      7  C   UNL     1       2.298   7.104  19.247  0.00  0.00    +0.000 A 
ATOM      8  C   UNL     1       2.721   6.241  18.226  0.00  0.00    +0.000 A 
ATOM      9  C   UNL     1       2.622   4.870  18.416  0.00  0.00    +0.000 A 
ENDROOT
BRANCH   1  10
ATOM     10  N   UNL     1       4.543   3.702  17.525  0.00  0.00    +0.000 NA
ATOM     11  H   UNL     1       4.850   4.585  17.924  0.00  0.00    +0.000 HD
BRANCH  10  12
ATOM     12  C   UNL     1       5.172   3.519  16.218  0.00  0.00    +0.000 C 
BRANCH  12  13
ATOM     13  C   UNL     1       6.321   4.541  15.786  0.00  0.00    +0.000 C 
ATOM     14  C   UNL     1       5.737   5.990  15.787  0.00  0.00    +0.000 C 
ATOM     15  C   UNL     1       5.674   6.672  17.152  0.00  0.00    +0.000 C 
ATOM     16  O   UNL     1       6.908   6.556  17.850  0.00  0.00    +0.000 OA
ATOM     17  C   UNL     1       7.248   5.196  18.103  0.00  0.00    +0.000 C 
ATOM     18  C   UNL     1       7.504   4.463  16.792  0.00  0.00    +0.000 C 
BRANCH  13  20
ATOM     19  C   UNL     1       5.633   3.820  13.457  0.00  0.00    +0.000 C 
ATOM     20  N   UNL     1       6.734   4.162  14.370  0.00  0.00    +0.000 NA
ATOM     21  C   UNL     1       7.577   5.158  13.687  0.00  0.00    +0.000 C 
ENDBRANCH  13  20
ENDBRANCH  12  13
ENDBRANCH  10  12
ENDBRANCH   1  10
BRANCH   7  22
ATOM     22  O   UNL     1       2.475   8.427  18.973  0.00  0.00    +0.000 OA
BRANCH  22  23
ATOM     23  C   UNL     1       1.412   9.171  18.393  0.00  0.00    +0.000 C 
ATOM     24  F   UNL     1       0.409   9.473  19.246  0.00  0.00    +0.000 F 
ATOM     25  F   UNL     1       1.912  10.336  17.922  0.00  0.00    +0.000 F 
ATOM     26  F   UNL     1       0.903   8.484  17.348  0.00  0.00    +0.000 F 
ENDBRANCH  22  23
ENDBRANCH   7  22
TORSDOF 6
ENDMDL
MODEL 8
REMARK VINA RESULT:      -7.4      0.819      1.016
REMARK  Name = 
REMARK  8 active torsions:
REMARK  status: ('A' for Active; 'I' for Inactive)
REMARK    1  A    between atoms: C_1  and  N_2
REMARK    2  A    between atoms: N_2  and  C_3
REMARK    3  A    between atoms: N_2  and  C_4
REMARK    4  A    between atoms: C_4  and  C_5
REMARK    5  A    between atoms: C_5  and  N_6
REMARK    6  A    between atoms: N_6  and  C_7
REMARK    7  A    between atoms: C_13  and  O_14
REMARK    8  A    between atoms: O_14  and  C_15
REMARK                            x       y       z     vdW  Elec       q    Type
REMARK                         _______ _______ _______ _____ _____    ______ ____
ROOT
ATOM      1  C   UNL     1       3.273   3.559  17.479  0.00  0.00    +0.000 C 
ATOM      2  C   UNL     1       2.551   2.442  18.273  0.00  0.00    +0.000 C 
ATOM      3  C   UNL     1       2.502   2.889  19.736  0.00  0.00    +0.000 C 
ATOM      4  C   UNL     1       2.395   4.370  19.565  0.00  0.00    +0.000 A 
ATOM      5  C   UNL     1       1.972   5.306  20.492  0.00  0.00    +0.000 A 
ATOM      6  C   UNL     1       2.028   6.660  20.148  0.00  0.00    +0.000 A 
ATOM      7  C   UNL     1       2.555   7.065  18.913  0.00  0.00    +0.000 A 
ATOM      8  C   UNL     1       2.936   6.103  17.967  0.00  0.00    +0.000 A 
ATOM      9  C   UNL     1       2.851   4.758  18.300  0.00  0.00    +0.000 A 
ENDROOT
BRANCH   1  10
ATOM     10  N   UNL     1       4.736   3.506  17.448  0.00  0.00    +0.000 NA
ATOM     11  H   UNL     1       4.996   2.636  17.906  0.00  0.00    +0.000 HD
BRANCH  10  12
ATOM     12  C   UNL     1       5.403   4.620  18.119  0.00  0.00    +0.000 C 
BRANCH  12  13
ATOM     13  C   UNL     1       6.554   5.396  17.329  0.00  0.00    +0.000 C 
ATOM     14  C   UNL     1       7.184   4.430  16.274  0.00  0.00    +0.000 C 
ATOM     15  C   UNL     1       6.409   4.290  14.966  0.00  0.00    +0.000 C 
ATOM     16  O   UNL     1       6.053   5.559  14.433  0.00  0.00    +0.000 OA
ATOM     17  C   UNL     1       5.205   6.287  15.317  0.00  0.00    +0.000 C 
ATOM     18  C   UNL     1       5.953   6.631  16.600  0.00  0.00    +0.000 C 
BRANCH  13  20
ATOM     19  C   UNL     1       8.047   7.187  18.318  0.00  0.00    +0.000 C 
ATOM     20  N   UNL     1       7.608   5.783  18.357  0.00  0.00    +0.000 NA
ATOM     21  C   UNL     1       7.250   5.473  19.751  0.00  0.00    +0.000 C 
ENDBRANCH  13  20
ENDBRANCH  12  13
ENDBRANCH  10  12
ENDBRANCH   1  10
BRANCH   7  22
ATOM     22  O   UNL     1       2.715   8.354  18.500  0.00  0.00    +0.000 OA
BRANCH  22  23
ATOM     23  C   UNL     1       1.570   9.173  18.300  0.00  0.00    +0.000 C 
ATOM     24  F   UNL     1       0.830   9.381  19.411  0.00  0.00    +0.000 F 
ATOM     25  F   UNL     1       1.981  10.380  17.852  0.00  0.00    +0.000 F 
ATOM     26  F   UNL     1       0.785   8.620  17.351  0.00  0.00    +0.000 F 
ENDBRANCH  22  23
ENDBRANCH   7  22
TORSDOF 6
ENDMDL
MODEL 9
REMARK VINA RESULT:      -7.4      1.901      2.893
REMARK  Name = 
REMARK  8 active torsions:
REMARK  status: ('A' for Active; 'I' for Inactive)
REMARK    1  A    between atoms: C_1  and  N_2
REMARK    2  A    between atoms: N_2  and  C_3
REMARK    3  A    between atoms: N_2  and  C_4
REMARK    4  A    between atoms: C_4  and  C_5
REMARK    5  A    between atoms: C_5  and  N_6
REMARK    6  A    between atoms: N_6  and  C_7
REMARK    7  A    between atoms: C_13  and  O_14
REMARK    8  A    between atoms: O_14  and  C_15
REMARK                            x       y       z     vdW  Elec       q    Type
REMARK                         _______ _______ _______ _____ _____    ______ ____
ROOT
ATOM      1  C   UNL     1       3.021   3.745  17.346  0.00  0.00    +0.000 C 
ATOM      2  C   UNL     1       2.446   2.345  17.672  0.00  0.00    +0.000 C 
ATOM      3  C   UNL     1       2.434   2.207  19.197  0.00  0.00    +0.000 C 
ATOM      4  C   UNL     1       2.184   3.625  19.597  0.00  0.00    +0.000 A 
ATOM      5  C   UNL     1       1.727   4.098  20.813  0.00  0.00    +0.000 A 
ATOM      6  C   UNL     1       1.641   5.481  21.003  0.00  0.00    +0.000 A 
ATOM      7  C   UNL     1       2.063   6.370  20.004  0.00  0.00    +0.000 A 
ATOM      8  C   UNL     1       2.480   5.874  18.760  0.00  0.00    +0.000 A 
ATOM      9  C   UNL     1       2.536   4.502  18.563  0.00  0.00    +0.000 A 
ENDROOT
BRANCH   1  10
ATOM     10  N   UNL     1       4.479   3.860  17.276  0.00  0.00    +0.000 NA
ATOM     11  H   UNL     1       4.801   3.943  18.237  0.00  0.00    +0.000 HD
BRANCH  10  12
ATOM     12  C   UNL     1       4.966   5.003  16.506  0.00  0.00    +0.000 C 
BRANCH  12  13
ATOM     13  C   UNL     1       6.537   5.117  16.239  0.00  0.00    +0.000 C 
ATOM     14  C   UNL     1       6.927   6.628  16.150  0.00  0.00    +0.000 C 
ATOM     15  C   UNL     1       7.125   7.335  17.489  0.00  0.00    +0.000 C 
ATOM     16  O   UNL     1       7.962   6.582  18.357  0.00  0.00    +0.000 OA
ATOM     17  C   UNL     1       7.401   5.308  18.663  0.00  0.00    +0.000 C 
ATOM     18  C   UNL     1       7.321   4.452  17.405  0.00  0.00    +0.000 C 
BRANCH  13  20
ATOM     19  C   UNL     1       5.609   4.028  14.148  0.00  0.00    +0.000 C 
ATOM     20  N   UNL     1       6.804   4.445  14.899  0.00  0.00    +0.000 NA
ATOM     21  C   UNL     1       7.651   5.222  13.978  0.00  0.00    +0.000 C 
ENDBRANCH  13  20
ENDBRANCH  12  13
ENDBRANCH  10  12
ENDBRANCH   1  10
BRANCH   7  22
ATOM     22  O   UNL     1       2.083   7.729  20.103  0.00  0.00    +0.000 OA
BRANCH  22  23
ATOM     23  C   UNL     1       1.166   8.381  20.971  0.00  0.00    +0.000 C 
ATOM     24  F   UNL     1       0.728   9.579  20.525  0.00  0.00    +0.000 F 
ATOM     25  F   UNL     1       0.085   7.585  21.129  0.00  0.00    +0.000 F 
ATOM     26  F   UNL     1       1.739   8.551  22.182  0.00  0.00    +0.000 F 
ENDBRANCH  22  23
ENDBRANCH   7  22
TORSDOF 6
ENDMDL
