MODEL 1
REMARK VINA RESULT:      -7.2      0.000      0.000
REMARK  Name = 
REMARK  7 active torsions:
REMARK  status: ('A' for Active; 'I' for Inactive)
REMARK    1  A    between atoms: C_1  and  C_2
REMARK    2  A    between atoms: C_2  and  C_3
REMARK    3  A    between atoms: C_8  and  N_9
REMARK    4  A    between atoms: C_10  and  S_11
REMARK    5  A    between atoms: N_12  and  C_13
REMARK    6  A    between atoms: N_20  and  C_21
REMARK    7  A    between atoms: C_21  and  C_22
REMARK                            x       y       z     vdW  Elec       q    Type
REMARK                         _______ _______ _______ _____ _____    ______ ____
ROOT
ATOM      1  N   UNL     1       2.319   5.801  18.119  0.00  0.00    +0.000 NA
ATOM      2  C   UNL     1       3.314   6.634  18.023  0.00  0.00    +0.000 C 
ATOM      3  N   UNL     1       3.165   7.996  17.993  0.00  0.00    +0.000 N 
ATOM      4  H   UNL     1       4.026   8.521  18.082  0.00  0.00    +0.000 HD
ENDROOT
BRANCH   3   5
ATOM      5  C   UNL     1       1.920   8.712  18.226  0.00  0.00    +0.000 C 
ATOM      6  C   UNL     1       1.449   8.530  19.691  0.00  0.00    +0.000 C 
ATOM      7  C   UNL     1       0.413   9.605  20.119  0.00  0.00    +0.000 C 
ATOM      8  C   UNL     1       1.025  10.901  20.700  0.00  0.00    +0.000 C 
ATOM      9  C   UNL     1       1.098  11.881  19.527  0.00  0.00    +0.000 C 
ATOM     10  C   UNL     1       0.790  10.984  18.333  0.00  0.00    +0.000 C 
ATOM     11  C   UNL     1       2.097  10.206  17.977  0.00  0.00    +0.000 C 
ATOM     12  N   UNL     1      -0.232  10.051  18.872  0.00  0.00    +0.000 NA
BRANCH  12  13
ATOM     13  C   UNL     1      -1.550  10.675  19.113  0.00  0.00    +0.000 C 
BRANCH  13  14
ATOM     14  C   UNL     1      -2.381  10.693  17.871  0.00  0.00    +0.000 A 
ATOM     15  C   UNL     1      -2.334   9.993  16.683  0.00  0.00    +0.000 A 
ATOM     16  C   UNL     1      -3.467  10.398  15.935  0.00  0.00    +0.000 A 
ATOM     17  C   UNL     1      -4.122  11.330  16.705  0.00  0.00    +0.000 A 
ATOM     18  O   UNL     1      -3.471  11.519  17.880  0.00  0.00    +0.000 OA
ENDBRANCH  13  14
ENDBRANCH  12  13
ENDBRANCH   3   5
BRANCH   1  24
ATOM     19  C   UNL     1       2.489   3.752  19.465  0.00  0.00    +0.000 A 
ATOM     20  C   UNL     1       2.761   2.367  19.517  0.00  0.00    +0.000 A 
ATOM     21  C   UNL     1       2.923   1.626  18.349  0.00  0.00    +0.000 A 
ATOM     22  C   UNL     1       2.859   2.259  17.119  0.00  0.00    +0.000 A 
ATOM     23  C   UNL     1       2.658   3.644  17.056  0.00  0.00    +0.000 A 
ATOM     24  C   UNL     1       2.435   4.396  18.206  0.00  0.00    +0.000 A 
BRANCH  19  26
ATOM     25  C   UNL     1       2.100   3.522  21.931  0.00  0.00    +0.000 C 
ATOM     26  C   UNL     1       2.245   4.484  20.757  0.00  0.00    +0.000 C 
ENDBRANCH  19  26
ENDBRANCH   1  24
BRANCH   2  27
ATOM     27  S   UNL     1       5.009   6.196  17.911  0.00  0.00    +0.000 S 
ATOM     28  H   UNL     1       5.510   7.399  18.234  0.00  0.00    +0.000 HD
ENDBRANCH   2  27
TORSDOF 6
ENDMDL
MODEL 2
REMARK VINA RESULT:      -7.1      3.531      8.363
REMARK  Name = 
REMARK  7 active torsions:
REMARK  status: ('A' for Active; 'I' for Inactive)
REMARK    1  A    between atoms: C_1  and  C_2
REMARK    2  A    between atoms: C_2  and  C_3
REMARK    3  A    between atoms: C_8  and  N_9
REMARK    4  A    between atoms: C_10  and  S_11
REMARK    5  A    between atoms: N_12  and  C_13
REMARK    6  A    between atoms: N_20  and  C_21
REMARK    7  A    between atoms: C_21  and  C_22
REMARK                            x       y       z     vdW  Elec       q    Type
REMARK                         _______ _______ _______ _____ _____    ______ ____
ROOT
ATOM      1  N   UNL     1       0.965   9.644  19.741  0.00  0.00    +0.000 NA
ATOM      2  C   UNL     1       0.700   9.053  20.869  0.00  0.00    +0.000 C 
ATOM      3  N   UNL     1       1.150   7.800  21.195  0.00  0.00    +0.000 N 
ATOM      4  H   UNL     1       1.007   7.534  22.162  0.00  0.00    +0.000 HD
ENDROOT
BRANCH   3   5
ATOM      5  C   UNL     1       2.106   7.022  20.423  0.00  0.00    +0.000 C 
ATOM      6  C   UNL     1       2.183   5.568  20.954  0.00  0.00    +0.000 C 
ATOM      7  C   UNL     1       2.816   4.594  19.922  0.00  0.00    +0.000 C 
ATOM      8  C   UNL     1       1.812   3.954  18.935  0.00  0.00    +0.000 C 
ATOM      9  C   UNL     1       1.862   4.826  17.679  0.00  0.00    +0.000 C 
ATOM     10  C   UNL     1       2.665   6.032  18.151  0.00  0.00    +0.000 C 
ATOM     11  C   UNL     1       1.698   6.959  18.955  0.00  0.00    +0.000 C 
ATOM     12  N   UNL     1       3.671   5.428  19.061  0.00  0.00    +0.000 NA
BRANCH  12  13
ATOM     13  C   UNL     1       4.713   4.640  18.370  0.00  0.00    +0.000 C 
BRANCH  13  14
ATOM     14  C   UNL     1       6.028   5.348  18.379  0.00  0.00    +0.000 A 
ATOM     15  C   UNL     1       6.594   6.316  17.575  0.00  0.00    +0.000 A 
ATOM     16  C   UNL     1       7.838   6.650  18.165  0.00  0.00    +0.000 A 
ATOM     17  C   UNL     1       7.960   5.854  19.279  0.00  0.00    +0.000 A 
ATOM     18  O   UNL     1       6.870   5.058  19.417  0.00  0.00    +0.000 OA
ENDBRANCH  13  14
ENDBRANCH  12  13
ENDBRANCH   3   5
BRANCH   1  24
ATOM     19  C   UNL     1      -0.643  11.177  18.689  0.00  0.00    +0.000 A 
ATOM     20  C   UNL     1      -0.935  12.477  18.220  0.00  0.00    +0.000 A 
ATOM     21  C   UNL     1      -0.075  13.541  18.483  0.00  0.00    +0.000 A 
ATOM     22  C   UNL     1       1.101  13.318  19.178  0.00  0.00    +0.000 A 
ATOM     23  C   UNL     1       1.434  12.021  19.590  0.00  0.00    +0.000 A 
ATOM     24  C   UNL     1       0.565  10.952  19.391  0.00  0.00    +0.000 A 
BRANCH  19  26
ATOM     25  C   UNL     1      -1.952   9.923  16.956  0.00  0.00    +0.000 C 
ATOM     26  C   UNL     1      -1.647  10.083  18.442  0.00  0.00    +0.000 C 
ENDBRANCH  19  26
ENDBRANCH   1  24
BRANCH   2  27
ATOM     27  S   UNL     1      -0.267   9.720  22.174  0.00  0.00    +0.000 S 
ATOM     28  H   UNL     1       0.730  10.364  22.802  0.00  0.00    +0.000 HD
ENDBRANCH   2  27
TORSDOF 6
ENDMDL
MODEL 3
REMARK VINA RESULT:      -7.0      0.734      1.952
REMARK  Name = 
REMARK  7 active torsions:
REMARK  status: ('A' for Active; 'I' for Inactive)
REMARK    1  A    between atoms: C_1  and  C_2
REMARK    2  A    between atoms: C_2  and  C_3
REMARK    3  A    between atoms: C_8  and  N_9
REMARK    4  A    between atoms: C_10  and  S_11
REMARK    5  A    between atoms: N_12  and  C_13
REMARK    6  A    between atoms: N_20  and  C_21
REMARK    7  A    between atoms: C_21  and  C_22
REMARK                            x       y       z     vdW  Elec       q    Type
REMARK                         _______ _______ _______ _____ _____    ______ ____
ROOT
ATOM      1  N   UNL     1       1.951   5.993  19.320  0.00  0.00    +0.000 NA
ATOM      2  C   UNL     1       2.960   6.644  18.820  0.00  0.00    +0.000 C 
ATOM      3  N   UNL     1       2.871   7.919  18.325  0.00  0.00    +0.000 N 
ATOM      4  H   UNL     1       3.760   8.359  18.120  0.00  0.00    +0.000 HD
ENDROOT
BRANCH   3   5
ATOM      5  C   UNL     1       1.707   8.784  18.431  0.00  0.00    +0.000 C 
ATOM      6  C   UNL     1       1.179   8.815  19.888  0.00  0.00    +0.000 C 
ATOM      7  C   UNL     1       0.256  10.035  20.158  0.00  0.00    +0.000 C 
ATOM      8  C   UNL     1       0.990  11.314  20.622  0.00  0.00    +0.000 C 
ATOM      9  C   UNL     1       1.203  12.146  19.355  0.00  0.00    +0.000 C 
ATOM     10  C   UNL     1       0.831  11.162  18.253  0.00  0.00    +0.000 C 
ATOM     11  C   UNL     1       2.053  10.215  18.033  0.00  0.00    +0.000 C 
ATOM     12  N   UNL     1      -0.302  10.407  18.846  0.00  0.00    +0.000 NA
BRANCH  12  13
ATOM     13  C   UNL     1      -1.550  11.190  18.968  0.00  0.00    +0.000 C 
BRANCH  13  14
ATOM     14  C   UNL     1      -2.420  11.020  17.766  0.00  0.00    +0.000 A 
ATOM     15  C   UNL     1      -2.328  10.251  16.624  0.00  0.00    +0.000 A 
ATOM     16  C   UNL     1      -3.529  10.460  15.902  0.00  0.00    +0.000 A 
ATOM     17  C   UNL     1      -4.269  11.354  16.640  0.00  0.00    +0.000 A 
ATOM     18  O   UNL     1      -3.605  11.703  17.770  0.00  0.00    +0.000 OA
ENDBRANCH  13  14
ENDBRANCH  12  13
ENDBRANCH   3   5
BRANCH   1  24
ATOM     19  C   UNL     1       1.756   3.552  19.101  0.00  0.00    +0.000 A 
ATOM     20  C   UNL     1       1.673   2.291  19.732  0.00  0.00    +0.000 A 
ATOM     21  C   UNL     1       1.891   2.162  21.102  0.00  0.00    +0.000 A 
ATOM     22  C   UNL     1       2.152   3.287  21.865  0.00  0.00    +0.000 A 
ATOM     23  C   UNL     1       2.169   4.552  21.262  0.00  0.00    +0.000 A 
ATOM     24  C   UNL     1       2.013   4.701  19.887  0.00  0.00    +0.000 A 
BRANCH  19  26
ATOM     25  C   UNL     1       2.873   3.241  16.878  0.00  0.00    +0.000 C 
ATOM     26  C   UNL     1       1.588   3.619  17.607  0.00  0.00    +0.000 C 
ENDBRANCH  19  26
ENDBRANCH   1  24
BRANCH   2  27
ATOM     27  S   UNL     1       4.600   6.038  18.674  0.00  0.00    +0.000 S 
ATOM     28  H   UNL     1       4.537   5.151  19.681  0.00  0.00    +0.000 HD
ENDBRANCH   2  27
TORSDOF 6
ENDMDL
MODEL 4
REMARK VINA RESULT:      -6.8      3.078      8.150
REMARK  Name = 
REMARK  7 active torsions:
REMARK  status: ('A' for Active; 'I' for Inactive)
REMARK    1  A    between atoms: C_1  and  C_2
REMARK    2  A    between atoms: C_2  and  C_3
REMARK    3  A    between atoms: C_8  and  N_9
REMARK    4  A    between atoms: C_10  and  S_11
REMARK    5  A    between atoms: N_12  and  C_13
REMARK    6  A    between atoms: N_20  and  C_21
REMARK    7  A    between atoms: C_21  and  C_22
REMARK                            x       y       z     vdW  Elec       q    Type
REMARK                         _______ _______ _______ _____ _____    ______ ____
ROOT
ATOM      1  N   UNL     1       1.106   9.012  19.455  0.00  0.00    +0.000 NA
ATOM      2  C   UNL     1       1.309   8.475  20.623  0.00  0.00    +0.000 C 
ATOM      3  N   UNL     1       1.709   7.177  20.803  0.00  0.00    +0.000 N 
ATOM      4  H   UNL     1       1.985   6.943  21.749  0.00  0.00    +0.000 HD
ENDROOT
BRANCH   3   5
ATOM      5  C   UNL     1       2.120   6.267  19.744  0.00  0.00    +0.000 C 
ATOM      6  C   UNL     1       3.623   5.914  19.880  0.00  0.00    +0.000 C 
ATOM      7  C   UNL     1       4.003   4.633  19.088  0.00  0.00    +0.000 C 
ATOM      8  C   UNL     1       3.839   3.312  19.874  0.00  0.00    +0.000 C 
ATOM      9  C   UNL     1       2.462   2.771  19.484  0.00  0.00    +0.000 C 
ATOM     10  C   UNL     1       1.848   3.951  18.739  0.00  0.00    +0.000 C 
ATOM     11  C   UNL     1       1.329   4.965  19.807  0.00  0.00    +0.000 C 
ATOM     12  N   UNL     1       3.007   4.524  18.008  0.00  0.00    +0.000 NA
BRANCH  12  13
ATOM     13  C   UNL     1       3.485   3.689  16.885  0.00  0.00    +0.000 C 
BRANCH  13  14
ATOM     14  C   UNL     1       4.743   4.236  16.295  0.00  0.00    +0.000 A 
ATOM     15  C   UNL     1       5.908   3.659  15.832  0.00  0.00    +0.000 A 
ATOM     16  C   UNL     1       6.692   4.711  15.298  0.00  0.00    +0.000 A 
ATOM     17  C   UNL     1       5.965   5.863  15.485  0.00  0.00    +0.000 A 
ATOM     18  O   UNL     1       4.783   5.588  16.091  0.00  0.00    +0.000 OA
ENDBRANCH  13  14
ENDBRANCH  12  13
ENDBRANCH   3   5
BRANCH   1  24
ATOM     19  C   UNL     1      -0.529  10.689  18.711  0.00  0.00    +0.000 A 
ATOM     20  C   UNL     1      -0.799  12.028  18.350  0.00  0.00    +0.000 A 
ATOM     21  C   UNL     1       0.154  13.026  18.541  0.00  0.00    +0.000 A 
ATOM     22  C   UNL     1       1.397  12.699  19.055  0.00  0.00    +0.000 A 
ATOM     23  C   UNL     1       1.700  11.364  19.354  0.00  0.00    +0.000 A 
ATOM     24  C   UNL     1       0.746  10.358  19.227  0.00  0.00    +0.000 A 
BRANCH  19  26
ATOM     25  C   UNL     1      -2.519   9.982  17.359  0.00  0.00    +0.000 C 
ATOM     26  C   UNL     1      -1.625   9.669  18.554  0.00  0.00    +0.000 C 
ENDBRANCH  19  26
ENDBRANCH   1  24
BRANCH   2  27
ATOM     27  S   UNL     1       1.114   9.281  22.169  0.00  0.00    +0.000 S 
ATOM     28  H   UNL     1       1.903   8.461  22.881  0.00  0.00    +0.000 HD
ENDBRANCH   2  27
TORSDOF 6
ENDMDL
MODEL 5
REMARK VINA RESULT:      -6.7      3.438      8.214
REMARK  Name = 
REMARK  7 active torsions:
REMARK  status: ('A' for Active; 'I' for Inactive)
REMARK    1  A    between atoms: C_1  and  C_2
REMARK    2  A    between atoms: C_2  and  C_3
REMARK    3  A    between atoms: C_8  and  N_9
REMARK    4  A    between atoms: C_10  and  S_11
REMARK    5  A    between atoms: N_12  and  C_13
REMARK    6  A    between atoms: N_20  and  C_21
REMARK    7  A    between atoms: C_21  and  C_22
REMARK                            x       y       z     vdW  Elec       q    Type
REMARK                         _______ _______ _______ _____ _____    ______ ____
ROOT
ATOM      1  N   UNL     1       1.103   9.245  19.679  0.00  0.00    +0.000 NA
ATOM      2  C   UNL     1       0.954   8.709  20.855  0.00  0.00    +0.000 C 
ATOM      3  N   UNL     1       1.380   7.447  21.174  0.00  0.00    +0.000 N 
ATOM      4  H   UNL     1       1.347   7.222  22.161  0.00  0.00    +0.000 HD
ENDROOT
BRANCH   3   5
ATOM      5  C   UNL     1       2.193   6.591  20.323  0.00  0.00    +0.000 C 
ATOM      6  C   UNL     1       2.172   5.129  20.837  0.00  0.00    +0.000 C 
ATOM      7  C   UNL     1       2.624   4.114  19.751  0.00  0.00    +0.000 C 
ATOM      8  C   UNL     1       1.489   3.587  18.843  0.00  0.00    +0.000 C 
ATOM      9  C   UNL     1       1.524   4.469  17.593  0.00  0.00    +0.000 C 
ATOM     10  C   UNL     1       2.474   5.586  18.008  0.00  0.00    +0.000 C 
ATOM     11  C   UNL     1       1.666   6.589  18.892  0.00  0.00    +0.000 C 
ATOM     12  N   UNL     1       3.485   4.876  18.831  0.00  0.00    +0.000 NA
BRANCH  12  13
ATOM     13  C   UNL     1       4.389   4.001  18.054  0.00  0.00    +0.000 C 
BRANCH  13  14
ATOM     14  C   UNL     1       5.526   4.774  17.468  0.00  0.00    +0.000 A 
ATOM     15  C   UNL     1       6.147   5.959  17.806  0.00  0.00    +0.000 A 
ATOM     16  C   UNL     1       7.236   6.109  16.912  0.00  0.00    +0.000 A 
ATOM     17  C   UNL     1       7.199   5.019  16.076  0.00  0.00    +0.000 A 
ATOM     18  O   UNL     1       6.164   4.204  16.401  0.00  0.00    +0.000 OA
ENDBRANCH  13  14
ENDBRANCH  12  13
ENDBRANCH   3   5
BRANCH   1  24
ATOM     19  C   UNL     1      -0.486  10.806  18.640  0.00  0.00    +0.000 A 
ATOM     20  C   UNL     1      -0.757  12.109  18.167  0.00  0.00    +0.000 A 
ATOM     21  C   UNL     1       0.128  13.156  18.412  0.00  0.00    +0.000 A 
ATOM     22  C   UNL     1       1.310  12.912  19.092  0.00  0.00    +0.000 A 
ATOM     23  C   UNL     1       1.621  11.611  19.507  0.00  0.00    +0.000 A 
ATOM     24  C   UNL     1       0.727  10.559  19.326  0.00  0.00    +0.000 A 
BRANCH  19  26
ATOM     25  C   UNL     1      -2.504  10.120  17.318  0.00  0.00    +0.000 C 
ATOM     26  C   UNL     1      -1.517   9.732  18.413  0.00  0.00    +0.000 C 
ENDBRANCH  19  26
ENDBRANCH   1  24
BRANCH   2  27
ATOM     27  S   UNL     1       0.192   9.472  22.239  0.00  0.00    +0.000 S 
ATOM     28  H   UNL     1      -0.859   8.641  22.326  0.00  0.00    +0.000 HD
ENDBRANCH   2  27
TORSDOF 6
ENDMDL
MODEL 6
REMARK VINA RESULT:      -6.6      1.634      2.299
REMARK  Name = 
REMARK  7 active torsions:
REMARK  status: ('A' for Active; 'I' for Inactive)
REMARK    1  A    between atoms: C_1  and  C_2
REMARK    2  A    between atoms: C_2  and  C_3
REMARK    3  A    between atoms: C_8  and  N_9
REMARK    4  A    between atoms: C_10  and  S_11
REMARK    5  A    between atoms: N_12  and  C_13
REMARK    6  A    between atoms: N_20  and  C_21
REMARK    7  A    between atoms: C_21  and  C_22
REMARK                            x       y       z     vdW  Elec       q    Type
REMARK                         _______ _______ _______ _____ _____    ______ ____
ROOT
ATOM      1  N   UNL     1       2.484   6.422  18.944  0.00  0.00    +0.000 NA
ATOM      2  C   UNL     1       2.192   6.196  20.191  0.00  0.00    +0.000 C 
ATOM      3  N   UNL     1       1.392   7.014  20.945  0.00  0.00    +0.000 N 
ATOM      4  H   UNL     1       1.118   6.634  21.842  0.00  0.00    +0.000 HD
ENDROOT
BRANCH   3   5
ATOM      5  C   UNL     1       0.628   8.144  20.438  0.00  0.00    +0.000 C 
ATOM      6  C   UNL     1      -0.243   8.764  21.561  0.00  0.00    +0.000 C 
ATOM      7  C   UNL     1      -0.712  10.204  21.219  0.00  0.00    +0.000 C 
ATOM      8  C   UNL     1       0.264  11.324  21.650  0.00  0.00    +0.000 C 
ATOM      9  C   UNL     1       1.103  11.634  20.409  0.00  0.00    +0.000 C 
ATOM     10  C   UNL     1       0.735  10.491  19.471  0.00  0.00    +0.000 C 
ATOM     11  C   UNL     1       1.554   9.236  19.913  0.00  0.00    +0.000 C 
ATOM     12  N   UNL     1      -0.709  10.284  19.748  0.00  0.00    +0.000 NA
BRANCH  12  13
ATOM     13  C   UNL     1      -1.581  11.365  19.242  0.00  0.00    +0.000 C 
BRANCH  13  14
ATOM     14  C   UNL     1      -2.238  10.979  17.957  0.00  0.00    +0.000 A 
ATOM     15  C   UNL     1      -1.973  10.019  17.002  0.00  0.00    +0.000 A 
ATOM     16  C   UNL     1      -3.029  10.090  16.059  0.00  0.00    +0.000 A 
ATOM     17  C   UNL     1      -3.858  11.099  16.488  0.00  0.00    +0.000 A 
ATOM     18  O   UNL     1      -3.388  11.647  17.636  0.00  0.00    +0.000 OA
ENDBRANCH  13  14
ENDBRANCH  12  13
ENDBRANCH   3   5
BRANCH   1  24
ATOM     19  C   UNL     1       2.725   4.365  17.620  0.00  0.00    +0.000 A 
ATOM     20  C   UNL     1       3.575   3.472  16.931  0.00  0.00    +0.000 A 
ATOM     21  C   UNL     1       4.910   3.792  16.696  0.00  0.00    +0.000 A 
ATOM     22  C   UNL     1       5.425   4.984  17.179  0.00  0.00    +0.000 A 
ATOM     23  C   UNL     1       4.610   5.847  17.923  0.00  0.00    +0.000 A 
ATOM     24  C   UNL     1       3.259   5.576  18.120  0.00  0.00    +0.000 A 
BRANCH  19  26
ATOM     25  C   UNL     1       1.099   2.709  18.569  0.00  0.00    +0.000 C 
ATOM     26  C   UNL     1       1.273   3.999  17.775  0.00  0.00    +0.000 C 
ENDBRANCH  19  26
ENDBRANCH   1  24
BRANCH   2  27
ATOM     27  S   UNL     1       2.750   4.832  21.144  0.00  0.00    +0.000 S 
ATOM     28  H   UNL     1       3.541   5.528  21.977  0.00  0.00    +0.000 HD
ENDBRANCH   2  27
TORSDOF 6
ENDMDL
MODEL 7
REMARK VINA RESULT:      -6.4      2.878      4.748
REMARK  Name = 
REMARK  7 active torsions:
REMARK  status: ('A' for Active; 'I' for Inactive)
REMARK    1  A    between atoms: C_1  and  C_2
REMARK    2  A    between atoms: C_2  and  C_3
REMARK    3  A    between atoms: C_8  and  N_9
REMARK    4  A    between atoms: C_10  and  S_11
REMARK    5  A    between atoms: N_12  and  C_13
REMARK    6  A    between atoms: N_20  and  C_21
REMARK    7  A    between atoms: C_21  and  C_22
REMARK                            x       y       z     vdW  Elec       q    Type
REMARK                         _______ _______ _______ _____ _____    ______ ____
ROOT
ATOM      1  N   UNL     1       4.194   6.541  18.038  0.00  0.00    +0.000 NA
ATOM      2  C   UNL     1       3.444   6.071  18.991  0.00  0.00    +0.000 C 
ATOM      3  N   UNL     1       2.588   6.840  19.734  0.00  0.00    +0.000 N 
ATOM      4  H   UNL     1       1.952   6.320  20.326  0.00  0.00    +0.000 HD
ENDROOT
BRANCH   3   5
ATOM      5  C   UNL     1       2.266   8.235  19.472  0.00  0.00    +0.000 C 
ATOM      6  C   UNL     1       1.764   8.415  18.016  0.00  0.00    +0.000 C 
ATOM      7  C   UNL     1       0.991   9.748  17.818  0.00  0.00    +0.000 C 
ATOM      8  C   UNL     1      -0.525   9.668  18.106  0.00  0.00    +0.000 C 
ATOM      9  C   UNL     1      -0.694  10.144  19.550  0.00  0.00    +0.000 C 
ATOM     10  C   UNL     1       0.746  10.186  20.049  0.00  0.00    +0.000 C 
ATOM     11  C   UNL     1       1.165   8.724  20.407  0.00  0.00    +0.000 C 
ATOM     12  N   UNL     1       1.498  10.658  18.859  0.00  0.00    +0.000 NA
BRANCH  12  13
ATOM     13  C   UNL     1       1.266  12.080  18.525  0.00  0.00    +0.000 C 
BRANCH  13  14
ATOM     14  C   UNL     1       2.273  12.966  19.182  0.00  0.00    +0.000 A 
ATOM     15  C   UNL     1       3.231  13.837  18.704  0.00  0.00    +0.000 A 
ATOM     16  C   UNL     1       3.805  14.462  19.839  0.00  0.00    +0.000 A 
ATOM     17  C   UNL     1       3.176  13.921  20.934  0.00  0.00    +0.000 A 
ATOM     18  O   UNL     1       2.247  13.010  20.548  0.00  0.00    +0.000 OA
ENDBRANCH  13  14
ENDBRANCH  12  13
ENDBRANCH   3   5
BRANCH   1  24
ATOM     19  C   UNL     1       6.449   5.972  17.241  0.00  0.00    +0.000 A 
ATOM     20  C   UNL     1       7.256   5.299  16.298  0.00  0.00    +0.000 A 
ATOM     21  C   UNL     1       6.697   4.410  15.384  0.00  0.00    +0.000 A 
ATOM     22  C   UNL     1       5.326   4.210  15.369  0.00  0.00    +0.000 A 
ATOM     23  C   UNL     1       4.508   4.923  16.255  0.00  0.00    +0.000 A 
ATOM     24  C   UNL     1       5.048   5.773  17.216  0.00  0.00    +0.000 A 
BRANCH  19  26
ATOM     25  C   UNL     1       7.787   8.062  17.597  0.00  0.00    +0.000 C 
ATOM     26  C   UNL     1       7.119   6.861  18.255  0.00  0.00    +0.000 C 
ENDBRANCH  19  26
ENDBRANCH   1  24
BRANCH   2  27
ATOM     27  S   UNL     1       3.379   4.396  19.513  0.00  0.00    +0.000 S 
ATOM     28  H   UNL     1       4.619   4.337  20.026  0.00  0.00    +0.000 HD
ENDBRANCH   2  27
TORSDOF 6
ENDMDL
MODEL 8
REMARK VINA RESULT:      -6.4      2.792      4.441
REMARK  Name = 
REMARK  7 active torsions:
REMARK  status: ('A' for Active; 'I' for Inactive)
REMARK    1  A    between atoms: C_1  and  C_2
REMARK    2  A    between atoms: C_2  and  C_3
REMARK    3  A    between atoms: C_8  and  N_9
REMARK    4  A    between atoms: C_10  and  S_11
REMARK    5  A    between atoms: N_12  and  C_13
REMARK    6  A    between atoms: N_20  and  C_21
REMARK    7  A    between atoms: C_21  and  C_22
REMARK                            x       y       z     vdW  Elec       q    Type
REMARK                         _______ _______ _______ _____ _____    ______ ____
ROOT
ATOM      1  N   UNL     1       4.127   6.631  18.018  0.00  0.00    +0.000 NA
ATOM      2  C   UNL     1       3.235   6.127  18.821  0.00  0.00    +0.000 C 
ATOM      3  N   UNL     1       2.320   6.881  19.508  0.00  0.00    +0.000 N 
ATOM      4  H   UNL     1       1.588   6.351  19.964  0.00  0.00    +0.000 HD
ENDROOT
BRANCH   3   5
ATOM      5  C   UNL     1       2.097   8.307  19.327  0.00  0.00    +0.000 C 
ATOM      6  C   UNL     1       1.524   8.596  17.915  0.00  0.00    +0.000 C 
ATOM      7  C   UNL     1       0.852   9.993  17.824  0.00  0.00    +0.000 C 
ATOM      8  C   UNL     1      -0.646  10.018  18.205  0.00  0.00    +0.000 C 
ATOM      9  C   UNL     1      -0.688  10.436  19.676  0.00  0.00    +0.000 C 
ATOM     10  C   UNL     1       0.778  10.342  20.083  0.00  0.00    +0.000 C 
ATOM     11  C   UNL     1       1.098   8.836  20.350  0.00  0.00    +0.000 C 
ATOM     12  N   UNL     1       1.492  10.810  18.869  0.00  0.00    +0.000 NA
BRANCH  12  13
ATOM     13  C   UNL     1       1.357  12.259  18.611  0.00  0.00    +0.000 C 
BRANCH  13  14
ATOM     14  C   UNL     1       1.687  13.064  19.825  0.00  0.00    +0.000 A 
ATOM     15  C   UNL     1       2.871  13.482  20.399  0.00  0.00    +0.000 A 
ATOM     16  C   UNL     1       2.515  14.305  21.495  0.00  0.00    +0.000 A 
ATOM     17  C   UNL     1       1.141  14.323  21.532  0.00  0.00    +0.000 A 
ATOM     18  O   UNL     1       0.628  13.571  20.526  0.00  0.00    +0.000 OA
ENDBRANCH  13  14
ENDBRANCH  12  13
ENDBRANCH   3   5
BRANCH   1  24
ATOM     19  C   UNL     1       6.263   5.431  17.822  0.00  0.00    +0.000 A 
ATOM     20  C   UNL     1       7.230   4.825  16.990  0.00  0.00    +0.000 A 
ATOM     21  C   UNL     1       6.982   4.627  15.634  0.00  0.00    +0.000 A 
ATOM     22  C   UNL     1       5.789   5.064  15.082  0.00  0.00    +0.000 A 
ATOM     23  C   UNL     1       4.851   5.728  15.884  0.00  0.00    +0.000 A 
ATOM     24  C   UNL     1       5.050   5.886  17.252  0.00  0.00    +0.000 A 
BRANCH  19  26
ATOM     25  C   UNL     1       8.041   5.770  19.558  0.00  0.00    +0.000 C 
ATOM     26  C   UNL     1       6.556   5.548  19.294  0.00  0.00    +0.000 C 
ENDBRANCH  19  26
ENDBRANCH   1  24
BRANCH   2  27
ATOM     27  S   UNL     1       3.028   4.423  19.183  0.00  0.00    +0.000 S 
ATOM     28  H   UNL     1       4.223   4.013  18.728  0.00  0.00    +0.000 HD
ENDBRANCH   2  27
TORSDOF 6
ENDMDL
MODEL 9
REMARK VINA RESULT:      -6.4      3.417      8.300
REMARK  Name = 
REMARK  7 active torsions:
REMARK  status: ('A' for Active; 'I' for Inactive)
REMARK    1  A    between atoms: C_1  and  C_2
REMARK    2  A    between atoms: C_2  and  C_3
REMARK    3  A    between atoms: C_8  and  N_9
REMARK    4  A    between atoms: C_10  and  S_11
REMARK    5  A    between atoms: N_12  and  C_13
REMARK    6  A    between atoms: N_20  and  C_21
REMARK    7  A    between atoms: C_21  and  C_22
REMARK                            x       y       z     vdW  Elec       q    Type
REMARK                         _______ _______ _______ _____ _____    ______ ____
ROOT
ATOM      1  N   UNL     1       0.813   8.833  19.487  0.00  0.00    +0.000 NA
ATOM      2  C   UNL     1       1.323   8.411  20.607  0.00  0.00    +0.000 C 
ATOM      3  N   UNL     1       1.985   7.218  20.739  0.00  0.00    +0.000 N 
ATOM      4  H   UNL     1       2.468   7.093  21.620  0.00  0.00    +0.000 HD
ENDROOT
BRANCH   3   5
ATOM      5  C   UNL     1       2.358   6.337  19.643  0.00  0.00    +0.000 C 
ATOM      6  C   UNL     1       3.873   6.011  19.695  0.00  0.00    +0.000 C 
ATOM      7  C   UNL     1       4.236   4.752  18.860  0.00  0.00    +0.000 C 
ATOM      8  C   UNL     1       4.137   3.414  19.628  0.00  0.00    +0.000 C 
ATOM      9  C   UNL     1       2.752   2.854  19.298  0.00  0.00    +0.000 C 
ATOM     10  C   UNL     1       2.079   4.034  18.608  0.00  0.00    +0.000 C 
ATOM     11  C   UNL     1       1.596   5.018  19.720  0.00  0.00    +0.000 C 
ATOM     12  N   UNL     1       3.188   4.643  17.831  0.00  0.00    +0.000 NA
BRANCH  12  13
ATOM     13  C   UNL     1       3.622   3.839  16.669  0.00  0.00    +0.000 C 
BRANCH  13  14
ATOM     14  C   UNL     1       4.886   4.373  16.077  0.00  0.00    +0.000 A 
ATOM     15  C   UNL     1       5.281   5.623  15.644  0.00  0.00    +0.000 A 
ATOM     16  C   UNL     1       6.644   5.506  15.275  0.00  0.00    +0.000 A 
ATOM     17  C   UNL     1       6.988   4.192  15.490  0.00  0.00    +0.000 A 
ATOM     18  O   UNL     1       5.928   3.495  15.972  0.00  0.00    +0.000 OA
ENDBRANCH  13  14
ENDBRANCH  12  13
ENDBRANCH   3   5
BRANCH   1  24
ATOM     19  C   UNL     1       0.880  11.184  18.772  0.00  0.00    +0.000 A 
ATOM     20  C   UNL     1       0.254  12.450  18.743  0.00  0.00    +0.000 A 
ATOM     21  C   UNL     1      -1.059  12.608  19.178  0.00  0.00    +0.000 A 
ATOM     22  C   UNL     1      -1.752  11.520  19.684  0.00  0.00    +0.000 A 
ATOM     23  C   UNL     1      -1.119  10.274  19.781  0.00  0.00    +0.000 A 
ATOM     24  C   UNL     1       0.172  10.078  19.300  0.00  0.00    +0.000 A 
BRANCH  19  26
ATOM     25  C   UNL     1       2.888  12.424  17.924  0.00  0.00    +0.000 C 
ATOM     26  C   UNL     1       2.273  11.059  18.216  0.00  0.00    +0.000 C 
ENDBRANCH  19  26
ENDBRANCH   1  24
BRANCH   2  27
ATOM     27  S   UNL     1       1.267   9.258  22.143  0.00  0.00    +0.000 S 
ATOM     28  H   UNL     1      -0.016   9.645  22.070  0.00  0.00    +0.000 HD
ENDBRANCH   2  27
TORSDOF 6
ENDMDL
