MODEL 1
REMARK VINA RESULT:      -5.6      0.000      0.000
REMARK  Name = 
REMARK  0 active torsions:
REMARK  status: ('A' for Active; 'I' for Inactive)
REMARK                            x       y       z     vdW  Elec       q    Type
REMARK                         _______ _______ _______ _____ _____    ______ ____
ROOT
ATOM      1  N   UNL     1       8.089   4.423  16.937  0.00  0.00    +0.000 N 
ATOM      2  C   UNL     1       7.286   4.743  17.963  0.00  0.00    +0.000 A 
ATOM      3  N   UNL     1       7.719   5.024  19.194  0.00  0.00    +0.000 NA
ATOM      4  O   UNL     1       6.585   5.298  19.941  0.00  0.00    +0.000 OA
ATOM      5  C   UNL     1       5.485   5.179  19.153  0.00  0.00    +0.000 A 
ATOM      6  C   UNL     1       4.166   5.380  19.556  0.00  0.00    +0.000 A 
ATOM      7  C   UNL     1       3.183   5.201  18.579  0.00  0.00    +0.000 A 
ATOM      8  C   UNL     1       3.523   4.844  17.271  0.00  0.00    +0.000 A 
ATOM      9  C   UNL     1       4.865   4.652  16.904  0.00  0.00    +0.000 A 
ATOM     10 BR   UNL     1       5.259   4.167  15.117  0.00  0.00    +0.000 Br
ATOM     11  C   UNL     1       5.872   4.823  17.871  0.00  0.00    +0.000 A 
ATOM     12  H   UNL     1       9.093   4.370  17.064  0.00  0.00    +0.000 HD
ATOM     13  H   UNL     1       7.741   4.203  16.011  0.00  0.00    +0.000 HD
ENDROOT
TORSDOF 0
ENDMDL
MODEL 2
REMARK VINA RESULT:      -5.5      3.088      3.701
REMARK  Name = 
REMARK  0 active torsions:
REMARK  status: ('A' for Active; 'I' for Inactive)
REMARK                            x       y       z     vdW  Elec       q    Type
REMARK                         _______ _______ _______ _____ _____    ______ ____
ROOT
ATOM      1  N   UNL     1       4.837   2.152  19.838  0.00  0.00    +0.000 N 
ATOM      2  C   UNL     1       4.732   3.420  19.410  0.00  0.00    +0.000 A 
ATOM      3  N   UNL     1       5.616   4.014  18.606  0.00  0.00    +0.000 NA
ATOM      4  O   UNL     1       5.143   5.301  18.408  0.00  0.00    +0.000 OA
ATOM      5  C   UNL     1       3.983   5.467  19.094  0.00  0.00    +0.000 A 
ATOM      6  C   UNL     1       3.217   6.630  19.135  0.00  0.00    +0.000 A 
ATOM      7  C   UNL     1       2.055   6.583  19.910  0.00  0.00    +0.000 A 
ATOM      8  C   UNL     1       1.693   5.420  20.598  0.00  0.00    +0.000 A 
ATOM      9  C   UNL     1       2.492   4.268  20.531  0.00  0.00    +0.000 A 
ATOM     10 BR   UNL     1       1.949   2.727  21.487  0.00  0.00    +0.000 Br
ATOM     11  C   UNL     1       3.668   4.293  19.760  0.00  0.00    +0.000 A 
ATOM     12  H   UNL     1       5.626   1.578  19.565  0.00  0.00    +0.000 HD
ATOM     13  H   UNL     1       4.160   1.722  20.458  0.00  0.00    +0.000 HD
ENDROOT
TORSDOF 0
ENDMDL
MODEL 3
REMARK VINA RESULT:      -5.5      1.300      1.300
REMARK  Name = 
REMARK  0 active torsions:
REMARK  status: ('A' for Active; 'I' for Inactive)
REMARK                            x       y       z     vdW  Elec       q    Type
REMARK                         _______ _______ _______ _____ _____    ______ ____
ROOT
ATOM      1  N   UNL     1       7.703   6.416  16.599  0.00  0.00    +0.000 N 
ATOM      2  C   UNL     1       7.112   5.854  17.665  0.00  0.00    +0.000 A 
ATOM      3  N   UNL     1       7.473   6.086  18.930  0.00  0.00    +0.000 NA
ATOM      4  O   UNL     1       6.623   5.322  19.712  0.00  0.00    +0.000 OA
ATOM      5  C   UNL     1       5.764   4.639  18.912  0.00  0.00    +0.000 A 
ATOM      6  C   UNL     1       4.764   3.768  19.341  0.00  0.00    +0.000 A 
ATOM      7  C   UNL     1       3.992   3.166  18.343  0.00  0.00    +0.000 A 
ATOM      8  C   UNL     1       4.221   3.439  16.991  0.00  0.00    +0.000 A 
ATOM      9  C   UNL     1       5.238   4.324  16.599  0.00  0.00    +0.000 A 
ATOM     10 BR   UNL     1       5.500   4.649  14.752  0.00  0.00    +0.000 Br
ATOM     11  C   UNL     1       6.030   4.939  17.586  0.00  0.00    +0.000 A 
ATOM     12  H   UNL     1       8.481   7.054  16.716  0.00  0.00    +0.000 HD
ATOM     13  H   UNL     1       7.423   6.219  15.646  0.00  0.00    +0.000 HD
ENDROOT
TORSDOF 0
ENDMDL
MODEL 4
REMARK VINA RESULT:      -5.5      2.567      2.768
REMARK  Name = 
REMARK  0 active torsions:
REMARK  status: ('A' for Active; 'I' for Inactive)
REMARK                            x       y       z     vdW  Elec       q    Type
REMARK                         _______ _______ _______ _____ _____    ______ ____
ROOT
ATOM      1  N   UNL     1       5.989   3.272  15.780  0.00  0.00    +0.000 N 
ATOM      2  C   UNL     1       5.694   4.557  16.032  0.00  0.00    +0.000 A 
ATOM      3  N   UNL     1       6.390   5.592  15.556  0.00  0.00    +0.000 NA
ATOM      4  O   UNL     1       5.763   6.726  16.045  0.00  0.00    +0.000 OA
ATOM      5  C   UNL     1       4.701   6.362  16.809  0.00  0.00    +0.000 A 
ATOM      6  C   UNL     1       3.831   7.230  17.467  0.00  0.00    +0.000 A 
ATOM      7  C   UNL     1       2.801   6.639  18.203  0.00  0.00    +0.000 A 
ATOM      8  C   UNL     1       2.663   5.249  18.263  0.00  0.00    +0.000 A 
ATOM      9  C   UNL     1       3.559   4.408  17.584  0.00  0.00    +0.000 A 
ATOM     10 BR   UNL     1       3.319   2.534  17.706  0.00  0.00    +0.000 Br
ATOM     11  C   UNL     1       4.606   4.980  16.839  0.00  0.00    +0.000 A 
ATOM     12  H   UNL     1       6.787   3.029  15.205  0.00  0.00    +0.000 HD
ATOM     13  H   UNL     1       5.455   2.499  16.159  0.00  0.00    +0.000 HD
ENDROOT
TORSDOF 0
ENDMDL
MODEL 5
REMARK VINA RESULT:      -5.5      2.485      3.166
REMARK  Name = 
REMARK  0 active torsions:
REMARK  status: ('A' for Active; 'I' for Inactive)
REMARK                            x       y       z     vdW  Elec       q    Type
REMARK                         _______ _______ _______ _____ _____    ______ ____
ROOT
ATOM      1  N   UNL     1       5.288   4.158  14.490  0.00  0.00    +0.000 N 
ATOM      2  C   UNL     1       6.128   4.854  15.273  0.00  0.00    +0.000 A 
ATOM      3  N   UNL     1       7.147   5.584  14.815  0.00  0.00    +0.000 NA
ATOM      4  O   UNL     1       7.753   6.131  15.933  0.00  0.00    +0.000 OA
ATOM      5  C   UNL     1       7.095   5.725  17.049  0.00  0.00    +0.000 A 
ATOM      6  C   UNL     1       7.416   6.073  18.360  0.00  0.00    +0.000 A 
ATOM      7  C   UNL     1       6.603   5.538  19.363  0.00  0.00    +0.000 A 
ATOM      8  C   UNL     1       5.527   4.702  19.050  0.00  0.00    +0.000 A 
ATOM      9  C   UNL     1       5.235   4.376  17.715  0.00  0.00    +0.000 A 
ATOM     10 BR   UNL     1       3.765   3.238  17.357  0.00  0.00    +0.000 Br
ATOM     11  C   UNL     1       6.041   4.900  16.689  0.00  0.00    +0.000 A 
ATOM     12  H   UNL     1       5.405   4.152  13.484  0.00  0.00    +0.000 HD
ATOM     13  H   UNL     1       4.526   3.601  14.858  0.00  0.00    +0.000 HD
ENDROOT
TORSDOF 0
ENDMDL
MODEL 6
REMARK VINA RESULT:      -5.4      3.314      3.867
REMARK  Name = 
REMARK  0 active torsions:
REMARK  status: ('A' for Active; 'I' for Inactive)
REMARK                            x       y       z     vdW  Elec       q    Type
REMARK                         _______ _______ _______ _____ _____    ______ ____
ROOT
ATOM      1  N   UNL     1       4.735   3.141  17.040  0.00  0.00    +0.000 N 
ATOM      2  C   UNL     1       3.787   2.854  17.946  0.00  0.00    +0.000 A 
ATOM      3  N   UNL     1       3.370   1.618  18.228  0.00  0.00    +0.000 NA
ATOM      4  O   UNL     1       2.398   1.760  19.204  0.00  0.00    +0.000 OA
ATOM      5  C   UNL     1       2.240   3.076  19.497  0.00  0.00    +0.000 A 
ATOM      6  C   UNL     1       1.351   3.605  20.431  0.00  0.00    +0.000 A 
ATOM      7  C   UNL     1       1.351   4.995  20.573  0.00  0.00    +0.000 A 
ATOM      8  C   UNL     1       2.207   5.798  19.813  0.00  0.00    +0.000 A 
ATOM      9  C   UNL     1       3.090   5.226  18.882  0.00  0.00    +0.000 A 
ATOM     10 BR   UNL     1       4.221   6.368  17.881  0.00  0.00    +0.000 Br
ATOM     11  C   UNL     1       3.105   3.829  18.720  0.00  0.00    +0.000 A 
ATOM     12  H   UNL     1       5.180   2.403  16.507  0.00  0.00    +0.000 HD
ATOM     13  H   UNL     1       5.031   4.087  16.832  0.00  0.00    +0.000 HD
ENDROOT
TORSDOF 0
ENDMDL
MODEL 7
REMARK VINA RESULT:      -5.4      2.865      3.372
REMARK  Name = 
REMARK  0 active torsions:
REMARK  status: ('A' for Active; 'I' for Inactive)
REMARK                            x       y       z     vdW  Elec       q    Type
REMARK                         _______ _______ _______ _____ _____    ______ ____
ROOT
ATOM      1  N   UNL     1       5.833   3.658  18.556  0.00  0.00    +0.000 N 
ATOM      2  C   UNL     1       4.844   3.311  19.395  0.00  0.00    +0.000 A 
ATOM      3  N   UNL     1       4.851   2.206  20.143  0.00  0.00    +0.000 NA
ATOM      4  O   UNL     1       3.664   2.224  20.856  0.00  0.00    +0.000 OA
ATOM      5  C   UNL     1       2.957   3.337  20.528  0.00  0.00    +0.000 A 
ATOM      6  C   UNL     1       1.713   3.696  21.043  0.00  0.00    +0.000 A 
ATOM      7  C   UNL     1       1.161   4.887  20.564  0.00  0.00    +0.000 A 
ATOM      8  C   UNL     1       1.837   5.667  19.621  0.00  0.00    +0.000 A 
ATOM      9  C   UNL     1       3.091   5.272  19.128  0.00  0.00    +0.000 A 
ATOM     10 BR   UNL     1       3.954   6.371  17.850  0.00  0.00    +0.000 Br
ATOM     11  C   UNL     1       3.664   4.075  19.593  0.00  0.00    +0.000 A 
ATOM     12  H   UNL     1       6.649   3.067  18.446  0.00  0.00    +0.000 HD
ATOM     13  H   UNL     1       5.806   4.497  17.988  0.00  0.00    +0.000 HD
ENDROOT
TORSDOF 0
ENDMDL
MODEL 8
REMARK VINA RESULT:      -5.4      4.095      4.852
REMARK  Name = 
REMARK  0 active torsions:
REMARK  status: ('A' for Active; 'I' for Inactive)
REMARK                            x       y       z     vdW  Elec       q    Type
REMARK                         _______ _______ _______ _____ _____    ______ ____
ROOT
ATOM      1  N   UNL     1       2.010   6.195  20.901  0.00  0.00    +0.000 N 
ATOM      2  C   UNL     1       2.399   5.798  19.679  0.00  0.00    +0.000 A 
ATOM      3  N   UNL     1       2.803   6.629  18.715  0.00  0.00    +0.000 NA
ATOM      4  O   UNL     1       3.111   5.827  17.629  0.00  0.00    +0.000 OA
ATOM      5  C   UNL     1       2.889   4.527  17.950  0.00  0.00    +0.000 A 
ATOM      6  C   UNL     1       3.086   3.432  17.109  0.00  0.00    +0.000 A 
ATOM      7  C   UNL     1       2.791   2.176  17.644  0.00  0.00    +0.000 A 
ATOM      8  C   UNL     1       2.326   2.041  18.956  0.00  0.00    +0.000 A 
ATOM      9  C   UNL     1       2.141   3.169  19.772  0.00  0.00    +0.000 A 
ATOM     10 BR   UNL     1       1.506   2.920  21.538  0.00  0.00    +0.000 Br
ATOM     11  C   UNL     1       2.428   4.445  19.254  0.00  0.00    +0.000 A 
ATOM     12  H   UNL     1       1.997   7.178  21.145  0.00  0.00    +0.000 HD
ATOM     13  H   UNL     1       1.696   5.550  21.617  0.00  0.00    +0.000 HD
ENDROOT
TORSDOF 0
ENDMDL
MODEL 9
REMARK VINA RESULT:      -5.4      3.665      4.299
REMARK  Name = 
REMARK  0 active torsions:
REMARK  status: ('A' for Active; 'I' for Inactive)
REMARK                            x       y       z     vdW  Elec       q    Type
REMARK                         _______ _______ _______ _____ _____    ______ ____
ROOT
ATOM      1  N   UNL     1       3.070   1.577  18.516  0.00  0.00    +0.000 N 
ATOM      2  C   UNL     1       3.271   2.860  18.179  0.00  0.00    +0.000 A 
ATOM      3  N   UNL     1       3.925   3.253  17.083  0.00  0.00    +0.000 NA
ATOM      4  O   UNL     1       3.909   4.637  17.108  0.00  0.00    +0.000 OA
ATOM      5  C   UNL     1       3.248   5.062  18.216  0.00  0.00    +0.000 A 
ATOM      6  C   UNL     1       3.030   6.389  18.579  0.00  0.00    +0.000 A 
ATOM      7  C   UNL     1       2.325   6.602  19.767  0.00  0.00    +0.000 A 
ATOM      8  C   UNL     1       1.866   5.528  20.536  0.00  0.00    +0.000 A 
ATOM      9  C   UNL     1       2.105   4.204  20.134  0.00  0.00    +0.000 A 
ATOM     10 BR   UNL     1       1.460   2.793  21.220  0.00  0.00    +0.000 Br
ATOM     11  C   UNL     1       2.816   3.965  18.944  0.00  0.00    +0.000 A 
ATOM     12  H   UNL     1       3.429   0.828  17.936  0.00  0.00    +0.000 HD
ATOM     13  H   UNL     1       2.580   1.298  19.358  0.00  0.00    +0.000 HD
ENDROOT
TORSDOF 0
ENDMDL
