MODEL 1
REMARK VINA RESULT:      -9.0      0.000      0.000
REMARK  Name = 
REMARK  3 active torsions:
REMARK  status: ('A' for Active; 'I' for Inactive)
REMARK    1  A    between atoms: N_2  and  C_4
REMARK    2  A    between atoms: N_12  and  C_13
REMARK    3  A    between atoms: C_17  and  C_18
REMARK                            x       y       z     vdW  Elec       q    Type
REMARK                         _______ _______ _______ _____ _____    ______ ____
ROOT
ATOM      1  C   UNL     1       5.764   3.521  12.700  0.00  0.00    +0.000 A 
ATOM      2  C   UNL     1       6.984   4.143  12.463  0.00  0.00    +0.000 A 
ATOM      3  C   UNL     1       7.552   4.937  13.464  0.00  0.00    +0.000 A 
ATOM      4  C   UNL     1       6.941   5.111  14.702  0.00  0.00    +0.000 A 
ATOM      5  N   UNL     1       7.561   5.876  15.599  0.00  0.00    +0.000 NA
ATOM      6  C   UNL     1       6.979   5.987  16.797  0.00  0.00    +0.000 A 
ATOM      7  N   UNL     1       5.848   5.392  17.175  0.00  0.00    +0.000 NA
ATOM      8  C   UNL     1       5.226   4.618  16.269  0.00  0.00    +0.000 A 
ATOM      9  N   UNL     1       4.090   3.878  16.671  0.00  0.00    +0.000 N 
ATOM     10  C   UNL     1       5.723   4.457  14.959  0.00  0.00    +0.000 A 
ATOM     11  C   UNL     1       5.125   3.670  13.940  0.00  0.00    +0.000 A 
ATOM     12  H   UNL     1       3.284   4.057  16.085  0.00  0.00    +0.000 HD
ENDROOT
BRANCH   9  13
ATOM     13  C   UNL     1       3.775   3.339  17.938  0.00  0.00    +0.000 A 
ATOM     14  C   UNL     1       4.796   2.760  18.705  0.00  0.00    +0.000 A 
ATOM     15  C   UNL     1       4.570   2.357  20.025  0.00  0.00    +0.000 A 
ATOM     16  C   UNL     1       3.319   2.541  20.611  0.00  0.00    +0.000 A 
ATOM     17  C   UNL     1       2.283   3.128  19.876  0.00  0.00    +0.000 A 
ATOM     18  C   UNL     1       2.527   3.518  18.549  0.00  0.00    +0.000 A 
BRANCH  17  19
ATOM     19  C   UNL     1       0.925   3.376  20.484  0.00  0.00    +0.000 C 
ATOM     20  F   UNL     1      -0.105   2.914  19.721  0.00  0.00    +0.000 F 
ATOM     21  F   UNL     1       0.780   2.776  21.699  0.00  0.00    +0.000 F 
ATOM     22  F   UNL     1       0.674   4.698  20.688  0.00  0.00    +0.000 F 
ENDBRANCH  17  19
ENDBRANCH   9  13
BRANCH   1  24
ATOM     23  O   UNL     1       4.060   3.062  11.195  0.00  0.00    +0.000 OA
ATOM     24  N   UNL     1       5.150   2.693  11.660  0.00  0.00    +0.000 N 
ATOM     25  O   UNL     1       5.748   1.664  11.311  0.00  0.00    +0.000 OA
ENDBRANCH   1  24
TORSDOF 3
ENDMDL
MODEL 2
REMARK VINA RESULT:      -8.8      0.140      1.007
REMARK  Name = 
REMARK  3 active torsions:
REMARK  status: ('A' for Active; 'I' for Inactive)
REMARK    1  A    between atoms: N_2  and  C_4
REMARK    2  A    between atoms: N_12  and  C_13
REMARK    3  A    between atoms: C_17  and  C_18
REMARK                            x       y       z     vdW  Elec       q    Type
REMARK                         _______ _______ _______ _____ _____    ______ ____
ROOT
ATOM      1  C   UNL     1       5.783   3.703  12.755  0.00  0.00    +0.000 A 
ATOM      2  C   UNL     1       7.006   4.328  12.540  0.00  0.00    +0.000 A 
ATOM      3  C   UNL     1       7.571   5.094  13.564  0.00  0.00    +0.000 A 
ATOM      4  C   UNL     1       6.954   5.236  14.804  0.00  0.00    +0.000 A 
ATOM      5  N   UNL     1       7.571   5.975  15.724  0.00  0.00    +0.000 NA
ATOM      6  C   UNL     1       6.983   6.056  16.921  0.00  0.00    +0.000 A 
ATOM      7  N   UNL     1       5.849   5.453  17.278  0.00  0.00    +0.000 NA
ATOM      8  C   UNL     1       5.229   4.705  16.349  0.00  0.00    +0.000 A 
ATOM      9  N   UNL     1       4.090   3.958  16.725  0.00  0.00    +0.000 N 
ATOM     10  C   UNL     1       5.733   4.578  15.037  0.00  0.00    +0.000 A 
ATOM     11  C   UNL     1       5.138   3.820  13.994  0.00  0.00    +0.000 A 
ATOM     12  H   UNL     1       3.287   4.153  16.140  0.00  0.00    +0.000 HD
ENDROOT
BRANCH   9  13
ATOM     13  C   UNL     1       3.768   3.386  17.976  0.00  0.00    +0.000 A 
ATOM     14  C   UNL     1       4.777   2.755  18.717  0.00  0.00    +0.000 A 
ATOM     15  C   UNL     1       4.548   2.315  20.024  0.00  0.00    +0.000 A 
ATOM     16  C   UNL     1       3.305   2.513  20.624  0.00  0.00    +0.000 A 
ATOM     17  C   UNL     1       2.282   3.151  19.915  0.00  0.00    +0.000 A 
ATOM     18  C   UNL     1       2.529   3.578  18.600  0.00  0.00    +0.000 A 
BRANCH  17  19
ATOM     19  C   UNL     1       0.934   3.415  20.539  0.00  0.00    +0.000 C 
ATOM     20  F   UNL     1       0.685   4.736  20.757  0.00  0.00    +0.000 F 
ATOM     21  F   UNL     1      -0.095   2.969  19.765  0.00  0.00    +0.000 F 
ATOM     22  F   UNL     1       0.784   2.804  21.746  0.00  0.00    +0.000 F 
ENDBRANCH  17  19
ENDBRANCH   9  13
BRANCH   1  24
ATOM     23  O   UNL     1       5.730   1.842  11.371  0.00  0.00    +0.000 OA
ATOM     24  N   UNL     1       5.173   2.904  11.689  0.00  0.00    +0.000 N 
ATOM     25  O   UNL     1       4.142   3.342  11.157  0.00  0.00    +0.000 OA
ENDBRANCH   1  24
TORSDOF 3
ENDMDL
MODEL 3
REMARK VINA RESULT:      -8.7      6.499      8.404
REMARK  Name = 
REMARK  3 active torsions:
REMARK  status: ('A' for Active; 'I' for Inactive)
REMARK    1  A    between atoms: N_2  and  C_4
REMARK    2  A    between atoms: N_12  and  C_13
REMARK    3  A    between atoms: C_17  and  C_18
REMARK                            x       y       z     vdW  Elec       q    Type
REMARK                         _______ _______ _______ _____ _____    ______ ____
ROOT
ATOM      1  C   UNL     1       0.195  10.044  21.773  0.00  0.00    +0.000 A 
ATOM      2  C   UNL     1       0.042  10.983  20.759  0.00  0.00    +0.000 A 
ATOM      3  C   UNL     1       0.592  10.723  19.500  0.00  0.00    +0.000 A 
ATOM      4  C   UNL     1       1.276   9.543  19.223  0.00  0.00    +0.000 A 
ATOM      5  N   UNL     1       1.757   9.377  17.992  0.00  0.00    +0.000 NA
ATOM      6  C   UNL     1       2.365   8.215  17.738  0.00  0.00    +0.000 A 
ATOM      7  N   UNL     1       2.520   7.208  18.598  0.00  0.00    +0.000 NA
ATOM      8  C   UNL     1       2.032   7.377  19.839  0.00  0.00    +0.000 A 
ATOM      9  N   UNL     1       2.072   6.288  20.740  0.00  0.00    +0.000 N 
ATOM     10  C   UNL     1       1.405   8.577  20.237  0.00  0.00    +0.000 A 
ATOM     11  C   UNL     1       0.873   8.842  21.526  0.00  0.00    +0.000 A 
ATOM     12  H   UNL     1       2.533   6.523  21.611  0.00  0.00    +0.000 HD
ENDROOT
BRANCH   9  13
ATOM     13  C   UNL     1       2.012   4.903  20.473  0.00  0.00    +0.000 A 
ATOM     14  C   UNL     1       0.759   4.277  20.400  0.00  0.00    +0.000 A 
ATOM     15  C   UNL     1       0.637   2.948  19.984  0.00  0.00    +0.000 A 
ATOM     16  C   UNL     1       1.768   2.221  19.616  0.00  0.00    +0.000 A 
ATOM     17  C   UNL     1       3.030   2.820  19.666  0.00  0.00    +0.000 A 
ATOM     18  C   UNL     1       3.134   4.155  20.095  0.00  0.00    +0.000 A 
BRANCH  17  19
ATOM     19  C   UNL     1       4.275   2.080  19.244  0.00  0.00    +0.000 C 
ATOM     20  F   UNL     1       4.978   1.558  20.288  0.00  0.00    +0.000 F 
ATOM     21  F   UNL     1       4.002   1.028  18.422  0.00  0.00    +0.000 F 
ATOM     22  F   UNL     1       5.151   2.868  18.562  0.00  0.00    +0.000 F 
ENDBRANCH  17  19
ENDBRANCH   9  13
BRANCH   1  24
ATOM     23  O   UNL     1      -1.321  11.094  23.180  0.00  0.00    +0.000 OA
ATOM     24  N   UNL     1      -0.367  10.304  23.100  0.00  0.00    +0.000 N 
ATOM     25  O   UNL     1       0.150   9.729  24.070  0.00  0.00    +0.000 OA
ENDBRANCH   1  24
TORSDOF 3
ENDMDL
MODEL 4
REMARK VINA RESULT:      -8.7      6.534      8.431
REMARK  Name = 
REMARK  3 active torsions:
REMARK  status: ('A' for Active; 'I' for Inactive)
REMARK    1  A    between atoms: N_2  and  C_4
REMARK    2  A    between atoms: N_12  and  C_13
REMARK    3  A    between atoms: C_17  and  C_18
REMARK                            x       y       z     vdW  Elec       q    Type
REMARK                         _______ _______ _______ _____ _____    ______ ____
ROOT
ATOM      1  C   UNL     1       0.087  10.069  21.771  0.00  0.00    +0.000 A 
ATOM      2  C   UNL     1      -0.178  10.992  20.765  0.00  0.00    +0.000 A 
ATOM      3  C   UNL     1       0.350  10.781  19.488  0.00  0.00    +0.000 A 
ATOM      4  C   UNL     1       1.121   9.663  19.185  0.00  0.00    +0.000 A 
ATOM      5  N   UNL     1       1.573   9.539  17.938  0.00  0.00    +0.000 NA
ATOM      6  C   UNL     1       2.269   8.433  17.660  0.00  0.00    +0.000 A 
ATOM      7  N   UNL     1       2.537   7.442  18.511  0.00  0.00    +0.000 NA
ATOM      8  C   UNL     1       2.078   7.568  19.768  0.00  0.00    +0.000 A 
ATOM      9  N   UNL     1       2.240   6.486  20.663  0.00  0.00    +0.000 N 
ATOM     10  C   UNL     1       1.365   8.710  20.190  0.00  0.00    +0.000 A 
ATOM     11  C   UNL     1       0.856   8.929  21.497  0.00  0.00    +0.000 A 
ATOM     12  H   UNL     1       2.708   6.759  21.519  0.00  0.00    +0.000 HD
ENDROOT
BRANCH   9  13
ATOM     13  C   UNL     1       2.288   5.101  20.394  0.00  0.00    +0.000 A 
ATOM     14  C   UNL     1       1.563   4.222  21.212  0.00  0.00    +0.000 A 
ATOM     15  C   UNL     1       1.450   2.865  20.894  0.00  0.00    +0.000 A 
ATOM     16  C   UNL     1       2.047   2.362  19.740  0.00  0.00    +0.000 A 
ATOM     17  C   UNL     1       2.765   3.215  18.896  0.00  0.00    +0.000 A 
ATOM     18  C   UNL     1       2.876   4.574  19.236  0.00  0.00    +0.000 A 
BRANCH  17  19
ATOM     19  C   UNL     1       3.398   2.718  17.620  0.00  0.00    +0.000 C 
ATOM     20  F   UNL     1       2.661   2.987  16.506  0.00  0.00    +0.000 F 
ATOM     21  F   UNL     1       4.622   3.273  17.394  0.00  0.00    +0.000 F 
ATOM     22  F   UNL     1       3.594   1.371  17.620  0.00  0.00    +0.000 F 
ENDBRANCH  17  19
ENDBRANCH   9  13
BRANCH   1  24
ATOM     23  O   UNL     1      -1.465  10.985  23.231  0.00  0.00    +0.000 OA
ATOM     24  N   UNL     1      -0.450  10.280  23.116  0.00  0.00    +0.000 N 
ATOM     25  O   UNL     1       0.146   9.751  24.067  0.00  0.00    +0.000 OA
ENDBRANCH   1  24
TORSDOF 3
ENDMDL
MODEL 5
REMARK VINA RESULT:      -8.7      6.525      8.371
REMARK  Name = 
REMARK  3 active torsions:
REMARK  status: ('A' for Active; 'I' for Inactive)
REMARK    1  A    between atoms: N_2  and  C_4
REMARK    2  A    between atoms: N_12  and  C_13
REMARK    3  A    between atoms: C_17  and  C_18
REMARK                            x       y       z     vdW  Elec       q    Type
REMARK                         _______ _______ _______ _____ _____    ______ ____
ROOT
ATOM      1  C   UNL     1       0.128  10.253  21.471  0.00  0.00    +0.000 A 
ATOM      2  C   UNL     1       0.008  11.135  20.403  0.00  0.00    +0.000 A 
ATOM      3  C   UNL     1       0.604  10.812  19.180  0.00  0.00    +0.000 A 
ATOM      4  C   UNL     1       1.302   9.623  18.992  0.00  0.00    +0.000 A 
ATOM      5  N   UNL     1       1.827   9.394  17.790  0.00  0.00    +0.000 NA
ATOM      6  C   UNL     1       2.449   8.224  17.620  0.00  0.00    +0.000 A 
ATOM      7  N   UNL     1       2.577   7.265  18.538  0.00  0.00    +0.000 NA
ATOM      8  C   UNL     1       2.043   7.497  19.750  0.00  0.00    +0.000 A 
ATOM      9  N   UNL     1       2.055   6.458  20.709  0.00  0.00    +0.000 N 
ATOM     10  C   UNL     1       1.397   8.713  20.060  0.00  0.00    +0.000 A 
ATOM     11  C   UNL     1       0.818   9.043  21.313  0.00  0.00    +0.000 A 
ATOM     12  H   UNL     1       2.483   6.741  21.581  0.00  0.00    +0.000 HD
ENDROOT
BRANCH   9  13
ATOM     13  C   UNL     1       2.009   5.060  20.514  0.00  0.00    +0.000 A 
ATOM     14  C   UNL     1       0.764   4.434  20.358  0.00  0.00    +0.000 A 
ATOM     15  C   UNL     1       0.671   3.084  20.007  0.00  0.00    +0.000 A 
ATOM     16  C   UNL     1       1.826   2.335  19.788  0.00  0.00    +0.000 A 
ATOM     17  C   UNL     1       3.083   2.933  19.923  0.00  0.00    +0.000 A 
ATOM     18  C   UNL     1       3.156   4.289  20.285  0.00  0.00    +0.000 A 
BRANCH  17  19
ATOM     19  C   UNL     1       4.356   2.167  19.661  0.00  0.00    +0.000 C 
ATOM     20  F   UNL     1       4.182   1.081  18.858  0.00  0.00    +0.000 F 
ATOM     21  F   UNL     1       5.306   2.929  19.050  0.00  0.00    +0.000 F 
ATOM     22  F   UNL     1       4.931   1.698  20.802  0.00  0.00    +0.000 F 
ENDBRANCH  17  19
ENDBRANCH   9  13
BRANCH   1  24
ATOM     23  O   UNL     1      -0.026  10.028  23.774  0.00  0.00    +0.000 OA
ATOM     24  N   UNL     1      -0.483  10.580  22.761  0.00  0.00    +0.000 N 
ATOM     25  O   UNL     1      -1.430  11.380  22.767  0.00  0.00    +0.000 OA
ENDBRANCH   1  24
TORSDOF 3
ENDMDL
MODEL 6
REMARK VINA RESULT:      -8.5      5.050      6.682
REMARK  Name = 
REMARK  3 active torsions:
REMARK  status: ('A' for Active; 'I' for Inactive)
REMARK    1  A    between atoms: N_2  and  C_4
REMARK    2  A    between atoms: N_12  and  C_13
REMARK    3  A    between atoms: C_17  and  C_18
REMARK                            x       y       z     vdW  Elec       q    Type
REMARK                         _______ _______ _______ _____ _____    ______ ____
ROOT
ATOM      1  C   UNL     1       4.655   5.473  16.968  0.00  0.00    +0.000 A 
ATOM      2  C   UNL     1       4.374   4.132  16.731  0.00  0.00    +0.000 A 
ATOM      3  C   UNL     1       3.473   3.464  17.566  0.00  0.00    +0.000 A 
ATOM      4  C   UNL     1       2.833   4.106  18.622  0.00  0.00    +0.000 A 
ATOM      5  N   UNL     1       1.982   3.394  19.358  0.00  0.00    +0.000 NA
ATOM      6  C   UNL     1       1.343   4.045  20.334  0.00  0.00    +0.000 A 
ATOM      7  N   UNL     1       1.470   5.340  20.624  0.00  0.00    +0.000 NA
ATOM      8  C   UNL     1       2.327   6.058  19.878  0.00  0.00    +0.000 A 
ATOM      9  N   UNL     1       2.399   7.455  20.079  0.00  0.00    +0.000 N 
ATOM     10  C   UNL     1       3.089   5.471  18.845  0.00  0.00    +0.000 A 
ATOM     11  C   UNL     1       4.022   6.151  18.019  0.00  0.00    +0.000 A 
ATOM     12  H   UNL     1       3.342   7.771  20.268  0.00  0.00    +0.000 HD
ENDROOT
BRANCH   9  13
ATOM     13  C   UNL     1       1.393   8.351  20.503  0.00  0.00    +0.000 A 
ATOM     14  C   UNL     1       1.241   8.606  21.874  0.00  0.00    +0.000 A 
ATOM     15  C   UNL     1       0.371   9.599  22.333  0.00  0.00    +0.000 A 
ATOM     16  C   UNL     1      -0.354  10.371  21.427  0.00  0.00    +0.000 A 
ATOM     17  C   UNL     1      -0.215  10.151  20.053  0.00  0.00    +0.000 A 
ATOM     18  C   UNL     1       0.658   9.142  19.611  0.00  0.00    +0.000 A 
BRANCH  17  19
ATOM     19  C   UNL     1      -0.955  10.986  19.038  0.00  0.00    +0.000 C 
ATOM     20  F   UNL     1      -1.295  10.300  17.912  0.00  0.00    +0.000 F 
ATOM     21  F   UNL     1      -2.122  11.490  19.530  0.00  0.00    +0.000 F 
ATOM     22  F   UNL     1      -0.234  12.061  18.615  0.00  0.00    +0.000 F 
ENDBRANCH  17  19
ENDBRANCH   9  13
BRANCH   1  24
ATOM     23  O   UNL     1       6.811   6.092  16.378  0.00  0.00    +0.000 OA
ATOM     24  N   UNL     1       5.603   6.185  16.109  0.00  0.00    +0.000 N 
ATOM     25  O   UNL     1       5.144   6.850  15.168  0.00  0.00    +0.000 OA
ENDBRANCH   1  24
TORSDOF 3
ENDMDL
MODEL 7
REMARK VINA RESULT:      -8.4      5.071      6.731
REMARK  Name = 
REMARK  3 active torsions:
REMARK  status: ('A' for Active; 'I' for Inactive)
REMARK    1  A    between atoms: N_2  and  C_4
REMARK    2  A    between atoms: N_12  and  C_13
REMARK    3  A    between atoms: C_17  and  C_18
REMARK                            x       y       z     vdW  Elec       q    Type
REMARK                         _______ _______ _______ _____ _____    ______ ____
ROOT
ATOM      1  C   UNL     1       4.659   5.346  17.068  0.00  0.00    +0.000 A 
ATOM      2  C   UNL     1       4.330   4.022  16.806  0.00  0.00    +0.000 A 
ATOM      3  C   UNL     1       3.367   3.388  17.596  0.00  0.00    +0.000 A 
ATOM      4  C   UNL     1       2.712   4.048  18.632  0.00  0.00    +0.000 A 
ATOM      5  N   UNL     1       1.801   3.368  19.325  0.00  0.00    +0.000 NA
ATOM      6  C   UNL     1       1.151   4.039  20.280  0.00  0.00    +0.000 A 
ATOM      7  N   UNL     1       1.323   5.325  20.589  0.00  0.00    +0.000 NA
ATOM      8  C   UNL     1       2.241   6.010  19.886  0.00  0.00    +0.000 A 
ATOM      9  N   UNL     1       2.366   7.401  20.104  0.00  0.00    +0.000 N 
ATOM     10  C   UNL     1       3.019   5.398  18.880  0.00  0.00    +0.000 A 
ATOM     11  C   UNL     1       4.014   6.043  18.099  0.00  0.00    +0.000 A 
ATOM     12  H   UNL     1       3.314   7.673  20.334  0.00  0.00    +0.000 HD
ENDROOT
BRANCH   9  13
ATOM     13  C   UNL     1       1.384   8.337  20.496  0.00  0.00    +0.000 A 
ATOM     14  C   UNL     1       1.212   8.615  21.859  0.00  0.00    +0.000 A 
ATOM     15  C   UNL     1       0.369   9.644  22.288  0.00  0.00    +0.000 A 
ATOM     16  C   UNL     1      -0.310  10.429  21.357  0.00  0.00    +0.000 A 
ATOM     17  C   UNL     1      -0.149  10.186  19.989  0.00  0.00    +0.000 A 
ATOM     18  C   UNL     1       0.696   9.142  19.578  0.00  0.00    +0.000 A 
BRANCH  17  19
ATOM     19  C   UNL     1      -0.838  11.034  18.949  0.00  0.00    +0.000 C 
ATOM     20  F   UNL     1      -2.014  11.572  19.377  0.00  0.00    +0.000 F 
ATOM     21  F   UNL     1      -0.075  12.089  18.548  0.00  0.00    +0.000 F 
ATOM     22  F   UNL     1      -1.137  10.339  17.817  0.00  0.00    +0.000 F 
ENDBRANCH  17  19
ENDBRANCH   9  13
BRANCH   1  24
ATOM     23  O   UNL     1       5.282   6.716  15.303  0.00  0.00    +0.000 OA
ATOM     24  N   UNL     1       5.672   6.023  16.255  0.00  0.00    +0.000 N 
ATOM     25  O   UNL     1       6.864   5.855  16.557  0.00  0.00    +0.000 OA
ENDBRANCH   1  24
TORSDOF 3
ENDMDL
MODEL 8
REMARK VINA RESULT:      -8.4      4.415      5.872
REMARK  Name = 
REMARK  3 active torsions:
REMARK  status: ('A' for Active; 'I' for Inactive)
REMARK    1  A    between atoms: N_2  and  C_4
REMARK    2  A    between atoms: N_12  and  C_13
REMARK    3  A    between atoms: C_17  and  C_18
REMARK                            x       y       z     vdW  Elec       q    Type
REMARK                         _______ _______ _______ _____ _____    ______ ____
ROOT
ATOM      1  C   UNL     1       5.938   4.671  16.990  0.00  0.00    +0.000 A 
ATOM      2  C   UNL     1       5.513   3.546  16.294  0.00  0.00    +0.000 A 
ATOM      3  C   UNL     1       4.198   3.098  16.458  0.00  0.00    +0.000 A 
ATOM      4  C   UNL     1       3.293   3.755  17.286  0.00  0.00    +0.000 A 
ATOM      5  N   UNL     1       2.059   3.263  17.372  0.00  0.00    +0.000 NA
ATOM      6  C   UNL     1       1.195   3.940  18.134  0.00  0.00    +0.000 A 
ATOM      7  N   UNL     1       1.455   5.065  18.800  0.00  0.00    +0.000 NA
ATOM      8  C   UNL     1       2.700   5.562  18.709  0.00  0.00    +0.000 A 
ATOM      9  N   UNL     1       2.979   6.814  19.303  0.00  0.00    +0.000 N 
ATOM     10  C   UNL     1       3.710   4.913  17.967  0.00  0.00    +0.000 A 
ATOM     11  C   UNL     1       5.049   5.361  17.828  0.00  0.00    +0.000 A 
ATOM     12  H   UNL     1       3.760   6.773  19.946  0.00  0.00    +0.000 HD
ENDROOT
BRANCH   9  13
ATOM     13  C   UNL     1       2.123   7.920  19.504  0.00  0.00    +0.000 A 
ATOM     14  C   UNL     1       1.739   8.694  18.400  0.00  0.00    +0.000 A 
ATOM     15  C   UNL     1       0.773   9.697  18.520  0.00  0.00    +0.000 A 
ATOM     16  C   UNL     1       0.158   9.936  19.747  0.00  0.00    +0.000 A 
ATOM     17  C   UNL     1       0.509   9.172  20.865  0.00  0.00    +0.000 A 
ATOM     18  C   UNL     1       1.488   8.174  20.727  0.00  0.00    +0.000 A 
BRANCH  17  19
ATOM     19  C   UNL     1      -0.158   9.375  22.203  0.00  0.00    +0.000 C 
ATOM     20  F   UNL     1      -1.020   8.375  22.539  0.00  0.00    +0.000 F 
ATOM     21  F   UNL     1       0.740   9.447  23.226  0.00  0.00    +0.000 F 
ATOM     22  F   UNL     1      -0.882  10.526  22.261  0.00  0.00    +0.000 F 
ENDBRANCH  17  19
ENDBRANCH   9  13
BRANCH   1  24
ATOM     23  O   UNL     1       8.231   4.401  17.211  0.00  0.00    +0.000 OA
ATOM     24  N   UNL     1       7.313   5.149  16.837  0.00  0.00    +0.000 N 
ATOM     25  O   UNL     1       7.484   6.279  16.355  0.00  0.00    +0.000 OA
ENDBRANCH   1  24
TORSDOF 3
ENDMDL
MODEL 9
REMARK VINA RESULT:      -8.3      4.597      6.230
REMARK  Name = 
REMARK  3 active torsions:
REMARK  status: ('A' for Active; 'I' for Inactive)
REMARK    1  A    between atoms: N_2  and  C_4
REMARK    2  A    between atoms: N_12  and  C_13
REMARK    3  A    between atoms: C_17  and  C_18
REMARK                            x       y       z     vdW  Elec       q    Type
REMARK                         _______ _______ _______ _____ _____    ______ ____
ROOT
ATOM      1  C   UNL     1       5.249   4.730  17.201  0.00  0.00    +0.000 A 
ATOM      2  C   UNL     1       4.806   3.439  16.936  0.00  0.00    +0.000 A 
ATOM      3  C   UNL     1       3.678   2.953  17.605  0.00  0.00    +0.000 A 
ATOM      4  C   UNL     1       2.972   3.729  18.519  0.00  0.00    +0.000 A 
ATOM      5  N   UNL     1       1.903   3.187  19.100  0.00  0.00    +0.000 NA
ATOM      6  C   UNL     1       1.213   3.969  19.934  0.00  0.00    +0.000 A 
ATOM      7  N   UNL     1       1.490   5.240  20.225  0.00  0.00    +0.000 NA
ATOM      8  C   UNL     1       2.567   5.787  19.635  0.00  0.00    +0.000 A 
ATOM      9  N   UNL     1       2.822   7.164  19.826  0.00  0.00    +0.000 N 
ATOM     10  C   UNL     1       3.396   5.047  18.765  0.00  0.00    +0.000 A 
ATOM     11  C   UNL     1       4.555   5.541  18.111  0.00  0.00    +0.000 A 
ATOM     12  H   UNL     1       3.756   7.340  20.177  0.00  0.00    +0.000 HD
ENDROOT
BRANCH   9  13
ATOM     13  C   UNL     1       1.912   8.220  20.049  0.00  0.00    +0.000 A 
ATOM     14  C   UNL     1       1.448   8.963  18.954  0.00  0.00    +0.000 A 
ATOM     15  C   UNL     1       0.431   9.910  19.101  0.00  0.00    +0.000 A 
ATOM     16  C   UNL     1      -0.156  10.123  20.347  0.00  0.00    +0.000 A 
ATOM     17  C   UNL     1       0.276   9.390  21.457  0.00  0.00    +0.000 A 
ATOM     18  C   UNL     1       1.306   8.448  21.291  0.00  0.00    +0.000 A 
BRANCH  17  19
ATOM     19  C   UNL     1      -0.355   9.565  22.815  0.00  0.00    +0.000 C 
ATOM     20  F   UNL     1      -1.019  10.746  22.959  0.00  0.00    +0.000 F 
ATOM     21  F   UNL     1      -1.269   8.593  23.094  0.00  0.00    +0.000 F 
ATOM     22  F   UNL     1       0.554   9.524  23.827  0.00  0.00    +0.000 F 
ENDBRANCH  17  19
ENDBRANCH   9  13
BRANCH   1  24
ATOM     23  O   UNL     1       6.280   6.214  15.748  0.00  0.00    +0.000 OA
ATOM     24  N   UNL     1       6.433   5.252  16.516  0.00  0.00    +0.000 N 
ATOM     25  O   UNL     1       7.520   4.695  16.733  0.00  0.00    +0.000 OA
ENDBRANCH   1  24
TORSDOF 3
ENDMDL
