MODEL 1
REMARK VINA RESULT:      -7.7      0.000      0.000
REMARK  Name = 
REMARK  6 active torsions:
REMARK  status: ('A' for Active; 'I' for Inactive)
REMARK    1  A    between atoms: C_1  and  C_2
REMARK    2  A    between atoms: C_5  and  C_6
REMARK    3  A    between atoms: C_6  and  C_7
REMARK    4  A    between atoms: C_6  and  N_8
REMARK    5  A    between atoms: C_9  and  C_11
REMARK    6  A    between atoms: C_11  and  N_12
REMARK                            x       y       z     vdW  Elec       q    Type
REMARK                         _______ _______ _______ _____ _____    ______ ____
ROOT
ATOM      1  N   UNL     1       5.754   5.936  17.481  0.00  0.00    +0.000 N 
ATOM      2  C   UNL     1       4.885   6.837  16.905  0.00  0.00    +0.000 C 
ATOM      3  O   UNL     1       5.106   7.385  15.825  0.00  0.00    +0.000 OA
ATOM      4  H   UNL     1       5.517   5.524  18.379  0.00  0.00    +0.000 HD
ENDROOT
BRANCH   1   5
ATOM      5  C   UNL     1       6.999   5.542  16.843  0.00  0.00    +0.000 C 
ATOM      6  C   UNL     1       7.819   4.642  17.769  0.00  0.00    +0.000 C 
BRANCH   5  11
ATOM      7  C   UNL     1       5.924   2.951  11.718  0.00  0.00    +0.000 C 
ATOM      8  C   UNL     1       6.190   3.614  13.036  0.00  0.00    +0.000 A 
ATOM      9  C   UNL     1       5.458   3.276  14.177  0.00  0.00    +0.000 A 
ATOM     10  C   UNL     1       5.728   3.896  15.404  0.00  0.00    +0.000 A 
ATOM     11  C   UNL     1       6.732   4.870  15.509  0.00  0.00    +0.000 A 
ATOM     12  C   UNL     1       7.459   5.208  14.356  0.00  0.00    +0.000 A 
ATOM     13  C   UNL     1       7.191   4.588  13.136  0.00  0.00    +0.000 A 
ENDBRANCH   5  11
ENDBRANCH   1   5
BRANCH   2  14
ATOM     14  C   UNL     1       3.656   7.173  17.735  0.00  0.00    +0.000 C 
BRANCH  14  15
ATOM     15  N   UNL     1       2.942   5.960  18.101  0.00  0.00    +0.000 N 
ATOM     16  N   UNL     1       2.816   5.007  17.128  0.00  0.00    +0.000 NA
ATOM     17  N   UNL     1       2.186   3.946  17.332  0.00  0.00    +0.000 NA
ATOM     18  C   UNL     1       1.815   3.609  18.638  0.00  0.00    +0.000 A 
ATOM     19  C   UNL     1       1.358   2.311  18.904  0.00  0.00    +0.000 A 
ATOM     20  C   UNL     1       1.074   1.914  20.215  0.00  0.00    +0.000 A 
ATOM     21  C   UNL     1       1.236   2.822  21.256  0.00  0.00    +0.000 A 
ATOM     22  F   UNL     1       1.013   2.426  22.516  0.00  0.00    +0.000 F 
ATOM     23  C   UNL     1       1.639   4.126  21.011  0.00  0.00    +0.000 A 
ATOM     24  C   UNL     1       1.914   4.504  19.693  0.00  0.00    +0.000 A 
ATOM     25  C   UNL     1       2.386   5.843  19.357  0.00  0.00    +0.000 A 
ATOM     26  O   UNL     1       2.317   6.750  20.181  0.00  0.00    +0.000 OA
ENDBRANCH  14  15
ENDBRANCH   2  14
TORSDOF 4
ENDMDL
MODEL 2
REMARK VINA RESULT:      -7.7      3.032      5.003
REMARK  Name = 
REMARK  6 active torsions:
REMARK  status: ('A' for Active; 'I' for Inactive)
REMARK    1  A    between atoms: C_1  and  C_2
REMARK    2  A    between atoms: C_5  and  C_6
REMARK    3  A    between atoms: C_6  and  C_7
REMARK    4  A    between atoms: C_6  and  N_8
REMARK    5  A    between atoms: C_9  and  C_11
REMARK    6  A    between atoms: C_11  and  N_12
REMARK                            x       y       z     vdW  Elec       q    Type
REMARK                         _______ _______ _______ _____ _____    ______ ____
ROOT
ATOM      1  N   UNL     1       4.752   4.802  17.661  0.00  0.00    +0.000 N 
ATOM      2  C   UNL     1       4.074   4.010  18.561  0.00  0.00    +0.000 C 
ATOM      3  O   UNL     1       4.617   3.110  19.204  0.00  0.00    +0.000 OA
ATOM      4  H   UNL     1       4.245   5.523  17.155  0.00  0.00    +0.000 HD
ENDROOT
BRANCH   1   5
ATOM      5  C   UNL     1       6.177   4.654  17.415  0.00  0.00    +0.000 C 
ATOM      6  C   UNL     1       6.432   4.213  15.972  0.00  0.00    +0.000 C 
BRANCH   5  11
ATOM      7  C   UNL     1       8.991   9.617  18.668  0.00  0.00    +0.000 C 
ATOM      8  C   UNL     1       8.261   8.349  18.342  0.00  0.00    +0.000 A 
ATOM      9  C   UNL     1       7.335   8.294  17.297  0.00  0.00    +0.000 A 
ATOM     10  C   UNL     1       6.671   7.099  16.997  0.00  0.00    +0.000 A 
ATOM     11  C   UNL     1       6.917   5.936  17.744  0.00  0.00    +0.000 A 
ATOM     12  C   UNL     1       7.844   6.001  18.796  0.00  0.00    +0.000 A 
ATOM     13  C   UNL     1       8.507   7.192  19.091  0.00  0.00    +0.000 A 
ENDBRANCH   5  11
ENDBRANCH   1   5
BRANCH   2  14
ATOM     14  C   UNL     1       2.579   4.269  18.655  0.00  0.00    +0.000 C 
BRANCH  14  15
ATOM     15  N   UNL     1       2.322   5.673  18.934  0.00  0.00    +0.000 N 
ATOM     16  N   UNL     1       2.440   6.537  17.881  0.00  0.00    +0.000 NA
ATOM     17  N   UNL     1       2.277   7.769  18.027  0.00  0.00    +0.000 NA
ATOM     18  C   UNL     1       1.725   8.252  19.218  0.00  0.00    +0.000 A 
ATOM     19  C   UNL     1       1.293   9.583  19.280  0.00  0.00    +0.000 A 
ATOM     20  C   UNL     1       0.647  10.067  20.422  0.00  0.00    +0.000 A 
ATOM     21  C   UNL     1       0.446   9.219  21.507  0.00  0.00    +0.000 A 
ATOM     22  F   UNL     1      -0.217   9.669  22.580  0.00  0.00    +0.000 F 
ATOM     23  C   UNL     1       0.910   7.912  21.487  0.00  0.00    +0.000 A 
ATOM     24  C   UNL     1       1.557   7.450  20.338  0.00  0.00    +0.000 A 
ATOM     25  C   UNL     1       2.033   6.076  20.221  0.00  0.00    +0.000 A 
ATOM     26  O   UNL     1       2.107   5.358  21.214  0.00  0.00    +0.000 OA
ENDBRANCH  14  15
ENDBRANCH   2  14
TORSDOF 4
ENDMDL
MODEL 3
REMARK VINA RESULT:      -7.6      7.712     10.531
REMARK  Name = 
REMARK  6 active torsions:
REMARK  status: ('A' for Active; 'I' for Inactive)
REMARK    1  A    between atoms: C_1  and  C_2
REMARK    2  A    between atoms: C_5  and  C_6
REMARK    3  A    between atoms: C_6  and  C_7
REMARK    4  A    between atoms: C_6  and  N_8
REMARK    5  A    between atoms: C_9  and  C_11
REMARK    6  A    between atoms: C_11  and  N_12
REMARK                            x       y       z     vdW  Elec       q    Type
REMARK                         _______ _______ _______ _____ _____    ______ ____
ROOT
ATOM      1  N   UNL     1      -3.034  12.699  21.133  0.00  0.00    +0.000 N 
ATOM      2  C   UNL     1      -2.939  12.471  22.488  0.00  0.00    +0.000 C 
ATOM      3  O   UNL     1      -3.915  12.217  23.196  0.00  0.00    +0.000 OA
ATOM      4  H   UNL     1      -2.193  12.912  20.606  0.00  0.00    +0.000 HD
ENDROOT
BRANCH   1   5
ATOM      5  C   UNL     1      -4.300  12.633  20.422  0.00  0.00    +0.000 C 
ATOM      6  C   UNL     1      -4.964  14.011  20.372  0.00  0.00    +0.000 C 
BRANCH   5  11
ATOM      7  C   UNL     1      -3.597  10.443  15.052  0.00  0.00    +0.000 C 
ATOM      8  C   UNL     1      -3.785  11.010  16.427  0.00  0.00    +0.000 A 
ATOM      9  C   UNL     1      -5.041  11.437  16.868  0.00  0.00    +0.000 A 
ATOM     10  C   UNL     1      -5.203  11.952  18.160  0.00  0.00    +0.000 A 
ATOM     11  C   UNL     1      -4.109  12.057  19.032  0.00  0.00    +0.000 A 
ATOM     12  C   UNL     1      -2.850  11.632  18.579  0.00  0.00    +0.000 A 
ATOM     13  C   UNL     1      -2.690  11.115  17.293  0.00  0.00    +0.000 A 
ENDBRANCH   5  11
ENDBRANCH   1   5
BRANCH   2  14
ATOM     14  C   UNL     1      -1.546  12.632  23.076  0.00  0.00    +0.000 C 
BRANCH  14  15
ATOM     15  N   UNL     1      -0.665  11.581  22.591  0.00  0.00    +0.000 N 
ATOM     16  N   UNL     1      -0.409  10.551  23.454  0.00  0.00    +0.000 NA
ATOM     17  N   UNL     1       0.366   9.619  23.146  0.00  0.00    +0.000 NA
ATOM     18  C   UNL     1       0.787   9.487  21.818  0.00  0.00    +0.000 A 
ATOM     19  C   UNL     1       1.425   8.306  21.419  0.00  0.00    +0.000 A 
ATOM     20  C   UNL     1       1.767   8.103  20.078  0.00  0.00    +0.000 A 
ATOM     21  C   UNL     1       1.481   9.091  19.141  0.00  0.00    +0.000 A 
ATOM     22  F   UNL     1       1.763   8.875  17.849  0.00  0.00    +0.000 F 
ATOM     23  C   UNL     1       0.896  10.289  19.522  0.00  0.00    +0.000 A 
ATOM     24  C   UNL     1       0.565  10.473  20.867  0.00  0.00    +0.000 A 
ATOM     25  C   UNL     1      -0.094  11.685  21.340  0.00  0.00    +0.000 A 
ATOM     26  O   UNL     1      -0.151  12.680  20.624  0.00  0.00    +0.000 OA
ENDBRANCH  14  15
ENDBRANCH   2  14
TORSDOF 4
ENDMDL
MODEL 4
REMARK VINA RESULT:      -7.5      4.714      8.041
REMARK  Name = 
REMARK  6 active torsions:
REMARK  status: ('A' for Active; 'I' for Inactive)
REMARK    1  A    between atoms: C_1  and  C_2
REMARK    2  A    between atoms: C_5  and  C_6
REMARK    3  A    between atoms: C_6  and  C_7
REMARK    4  A    between atoms: C_6  and  N_8
REMARK    5  A    between atoms: C_9  and  C_11
REMARK    6  A    between atoms: C_11  and  N_12
REMARK                            x       y       z     vdW  Elec       q    Type
REMARK                         _______ _______ _______ _____ _____    ______ ____
ROOT
ATOM      1  N   UNL     1       0.827   9.015  19.466  0.00  0.00    +0.000 N 
ATOM      2  C   UNL     1       1.375   8.404  20.573  0.00  0.00    +0.000 C 
ATOM      3  O   UNL     1       1.655   9.014  21.605  0.00  0.00    +0.000 OA
ATOM      4  H   UNL     1       0.627   8.457  18.640  0.00  0.00    +0.000 HD
ENDROOT
BRANCH   1   5
ATOM      5  C   UNL     1       0.510  10.433  19.439  0.00  0.00    +0.000 C 
ATOM      6  C   UNL     1       1.609  11.218  18.719  0.00  0.00    +0.000 C 
BRANCH   5  11
ATOM      7  C   UNL     1      -4.722  11.301  16.989  0.00  0.00    +0.000 C 
ATOM      8  C   UNL     1      -3.379  11.069  17.615  0.00  0.00    +0.000 A 
ATOM      9  C   UNL     1      -2.476  10.152  17.070  0.00  0.00    +0.000 A 
ATOM     10  C   UNL     1      -1.221   9.956  17.658  0.00  0.00    +0.000 A 
ATOM     11  C   UNL     1      -0.848  10.670  18.807  0.00  0.00    +0.000 A 
ATOM     12  C   UNL     1      -1.763  11.586  19.351  0.00  0.00    +0.000 A 
ATOM     13  C   UNL     1      -3.012  11.782  18.762  0.00  0.00    +0.000 A 
ENDBRANCH   5  11
ENDBRANCH   1   5
BRANCH   2  14
ATOM     14  C   UNL     1       1.689   6.926  20.408  0.00  0.00    +0.000 C 
BRANCH  14  15
ATOM     15  N   UNL     1       2.710   6.733  19.390  0.00  0.00    +0.000 N 
ATOM     16  N   UNL     1       2.737   7.644  18.370  0.00  0.00    +0.000 NA
ATOM     17  N   UNL     1       3.552   7.543  17.426  0.00  0.00    +0.000 NA
ATOM     18  C   UNL     1       4.613   6.638  17.530  0.00  0.00    +0.000 A 
ATOM     19  C   UNL     1       5.668   6.714  16.611  0.00  0.00    +0.000 A 
ATOM     20  C   UNL     1       6.789   5.889  16.748  0.00  0.00    +0.000 A 
ATOM     21  C   UNL     1       6.847   4.980  17.800  0.00  0.00    +0.000 A 
ATOM     22  F   UNL     1       7.943   4.227  17.960  0.00  0.00    +0.000 F 
ATOM     23  C   UNL     1       5.793   4.853  18.692  0.00  0.00    +0.000 A 
ATOM     24  C   UNL     1       4.680   5.683  18.535  0.00  0.00    +0.000 A 
ATOM     25  C   UNL     1       3.551   5.642  19.458  0.00  0.00    +0.000 A 
ATOM     26  O   UNL     1       3.429   4.711  20.248  0.00  0.00    +0.000 OA
ENDBRANCH  14  15
ENDBRANCH   2  14
TORSDOF 4
ENDMDL
MODEL 5
REMARK VINA RESULT:      -7.5      3.191      5.129
REMARK  Name = 
REMARK  6 active torsions:
REMARK  status: ('A' for Active; 'I' for Inactive)
REMARK    1  A    between atoms: C_1  and  C_2
REMARK    2  A    between atoms: C_5  and  C_6
REMARK    3  A    between atoms: C_6  and  C_7
REMARK    4  A    between atoms: C_6  and  N_8
REMARK    5  A    between atoms: C_9  and  C_11
REMARK    6  A    between atoms: C_11  and  N_12
REMARK                            x       y       z     vdW  Elec       q    Type
REMARK                         _______ _______ _______ _____ _____    ______ ____
ROOT
ATOM      1  N   UNL     1       4.745   5.089  17.325  0.00  0.00    +0.000 N 
ATOM      2  C   UNL     1       4.050   4.705  18.451  0.00  0.00    +0.000 C 
ATOM      3  O   UNL     1       4.583   4.149  19.411  0.00  0.00    +0.000 OA
ATOM      4  H   UNL     1       4.245   5.537  16.563  0.00  0.00    +0.000 HD
ENDROOT
BRANCH   1   5
ATOM      5  C   UNL     1       6.178   4.888  17.192  0.00  0.00    +0.000 C 
ATOM      6  C   UNL     1       6.538   4.503  15.755  0.00  0.00    +0.000 C 
BRANCH   5  11
ATOM      7  C   UNL     1       9.147   9.601  18.952  0.00  0.00    +0.000 C 
ATOM      8  C   UNL     1       8.392   8.386  18.504  0.00  0.00    +0.000 A 
ATOM      9  C   UNL     1       8.506   7.171  19.186  0.00  0.00    +0.000 A 
ATOM     10  C   UNL     1       7.784   6.049  18.763  0.00  0.00    +0.000 A 
ATOM     11  C   UNL     1       6.940   6.119  17.645  0.00  0.00    +0.000 A 
ATOM     12  C   UNL     1       6.836   7.341  16.962  0.00  0.00    +0.000 A 
ATOM     13  C   UNL     1       7.553   8.460  17.386  0.00  0.00    +0.000 A 
ENDBRANCH   5  11
ENDBRANCH   1   5
BRANCH   2  14
ATOM     14  C   UNL     1       2.549   4.945  18.399  0.00  0.00    +0.000 C 
BRANCH  14  15
ATOM     15  N   UNL     1       2.235   6.299  18.830  0.00  0.00    +0.000 N 
ATOM     16  N   UNL     1       2.364   7.285  17.891  0.00  0.00    +0.000 NA
ATOM     17  N   UNL     1       2.155   8.485  18.173  0.00  0.00    +0.000 NA
ATOM     18  C   UNL     1       1.542   8.808  19.388  0.00  0.00    +0.000 A 
ATOM     19  C   UNL     1       1.064  10.110  19.587  0.00  0.00    +0.000 A 
ATOM     20  C   UNL     1       0.359  10.436  20.750  0.00  0.00    +0.000 A 
ATOM     21  C   UNL     1       0.145   9.461  21.718  0.00  0.00    +0.000 A 
ATOM     22  F   UNL     1      -0.574   9.761  22.808  0.00  0.00    +0.000 F 
ATOM     23  C   UNL     1       0.652   8.179  21.565  0.00  0.00    +0.000 A 
ATOM     24  C   UNL     1       1.358   7.874  20.398  0.00  0.00    +0.000 A 
ATOM     25  C   UNL     1       1.883   6.538  20.141  0.00  0.00    +0.000 A 
ATOM     26  O   UNL     1       1.943   5.711  21.046  0.00  0.00    +0.000 OA
ENDBRANCH  14  15
ENDBRANCH   2  14
TORSDOF 4
ENDMDL
MODEL 6
REMARK VINA RESULT:      -7.5      4.696      7.726
REMARK  Name = 
REMARK  6 active torsions:
REMARK  status: ('A' for Active; 'I' for Inactive)
REMARK    1  A    between atoms: C_1  and  C_2
REMARK    2  A    between atoms: C_5  and  C_6
REMARK    3  A    between atoms: C_6  and  C_7
REMARK    4  A    between atoms: C_6  and  N_8
REMARK    5  A    between atoms: C_9  and  C_11
REMARK    6  A    between atoms: C_11  and  N_12
REMARK                            x       y       z     vdW  Elec       q    Type
REMARK                         _______ _______ _______ _____ _____    ______ ____
ROOT
ATOM      1  N   UNL     1       0.463   9.068  19.899  0.00  0.00    +0.000 N 
ATOM      2  C   UNL     1       1.142   8.675  21.032  0.00  0.00    +0.000 C 
ATOM      3  O   UNL     1       1.703   9.471  21.786  0.00  0.00    +0.000 OA
ATOM      4  H   UNL     1       0.028   8.361  19.312  0.00  0.00    +0.000 HD
ENDROOT
BRANCH   1   5
ATOM      5  C   UNL     1       0.332  10.464  19.517  0.00  0.00    +0.000 C 
ATOM      6  C   UNL     1       1.501  10.891  18.627  0.00  0.00    +0.000 C 
BRANCH   5  11
ATOM      7  C   UNL     1      -4.809  11.387  16.901  0.00  0.00    +0.000 C 
ATOM      8  C   UNL     1      -3.490  11.141  17.569  0.00  0.00    +0.000 A 
ATOM      9  C   UNL     1      -2.573  10.226  17.045  0.00  0.00    +0.000 A 
ATOM     10  C   UNL     1      -1.339  10.017  17.673  0.00  0.00    +0.000 A 
ATOM     11  C   UNL     1      -1.002  10.715  18.842  0.00  0.00    +0.000 A 
ATOM     12  C   UNL     1      -1.931  11.629  19.365  0.00  0.00    +0.000 A 
ATOM     13  C   UNL     1      -3.159  11.839  18.737  0.00  0.00    +0.000 A 
ENDBRANCH   5  11
ENDBRANCH   1   5
BRANCH   2  14
ATOM     14  C   UNL     1       1.224   7.173  21.250  0.00  0.00    +0.000 C 
BRANCH  14  15
ATOM     15  N   UNL     1       1.880   6.529  20.123  0.00  0.00    +0.000 N 
ATOM     16  N   UNL     1       2.630   7.335  19.311  0.00  0.00    +0.000 NA
ATOM     17  N   UNL     1       3.203   6.884  18.294  0.00  0.00    +0.000 NA
ATOM     18  C   UNL     1       3.289   5.500  18.113  0.00  0.00    +0.000 A 
ATOM     19  C   UNL     1       4.153   4.993  17.133  0.00  0.00    +0.000 A 
ATOM     20  C   UNL     1       4.337   3.613  16.995  0.00  0.00    +0.000 A 
ATOM     21  C   UNL     1       3.644   2.742  17.830  0.00  0.00    +0.000 A 
ATOM     22  F   UNL     1       3.859   1.424  17.731  0.00  0.00    +0.000 F 
ATOM     23  C   UNL     1       2.746   3.220  18.773  0.00  0.00    +0.000 A 
ATOM     24  C   UNL     1       2.574   4.602  18.893  0.00  0.00    +0.000 A 
ATOM     25  C   UNL     1       1.684   5.185  19.890  0.00  0.00    +0.000 A 
ATOM     26  O   UNL     1       0.871   4.481  20.483  0.00  0.00    +0.000 OA
ENDBRANCH  14  15
ENDBRANCH   2  14
TORSDOF 4
ENDMDL
MODEL 7
REMARK VINA RESULT:      -7.4      3.115      5.070
REMARK  Name = 
REMARK  6 active torsions:
REMARK  status: ('A' for Active; 'I' for Inactive)
REMARK    1  A    between atoms: C_1  and  C_2
REMARK    2  A    between atoms: C_5  and  C_6
REMARK    3  A    between atoms: C_6  and  C_7
REMARK    4  A    between atoms: C_6  and  N_8
REMARK    5  A    between atoms: C_9  and  C_11
REMARK    6  A    between atoms: C_11  and  N_12
REMARK                            x       y       z     vdW  Elec       q    Type
REMARK                         _______ _______ _______ _____ _____    ______ ____
ROOT
ATOM      1  N   UNL     1       4.778   3.895  17.627  0.00  0.00    +0.000 N 
ATOM      2  C   UNL     1       4.501   3.499  18.917  0.00  0.00    +0.000 C 
ATOM      3  O   UNL     1       5.376   3.181  19.723  0.00  0.00    +0.000 OA
ATOM      4  H   UNL     1       4.010   4.136  17.007  0.00  0.00    +0.000 HD
ENDROOT
BRANCH   1   5
ATOM      5  C   UNL     1       6.136   3.994  17.120  0.00  0.00    +0.000 C 
ATOM      6  C   UNL     1       6.174   3.706  15.617  0.00  0.00    +0.000 C 
BRANCH   5  11
ATOM      7  C   UNL     1       8.481   9.196  18.371  0.00  0.00    +0.000 C 
ATOM      8  C   UNL     1       7.887   7.856  18.053  0.00  0.00    +0.000 A 
ATOM      9  C   UNL     1       8.240   6.718  18.783  0.00  0.00    +0.000 A 
ATOM     10  C   UNL     1       7.666   5.476  18.482  0.00  0.00    +0.000 A 
ATOM     11  C   UNL     1       6.734   5.350  17.441  0.00  0.00    +0.000 A 
ATOM     12  C   UNL     1       6.390   6.498  16.709  0.00  0.00    +0.000 A 
ATOM     13  C   UNL     1       6.960   7.735  17.012  0.00  0.00    +0.000 A 
ENDBRANCH   5  11
ENDBRANCH   1   5
BRANCH   2  14
ATOM     14  C   UNL     1       3.023   3.403  19.262  0.00  0.00    +0.000 C 
BRANCH  14  15
ATOM     15  N   UNL     1       2.476   4.724  19.530  0.00  0.00    +0.000 N 
ATOM     16  N   UNL     1       2.133   4.991  20.827  0.00  0.00    +0.000 NA
ATOM     17  N   UNL     1       1.619   6.083  21.153  0.00  0.00    +0.000 NA
ATOM     18  C   UNL     1       1.619   7.142  20.239  0.00  0.00    +0.000 A 
ATOM     19  C   UNL     1       1.296   8.430  20.686  0.00  0.00    +0.000 A 
ATOM     20  C   UNL     1       1.384   9.524  19.819  0.00  0.00    +0.000 A 
ATOM     21  C   UNL     1       1.782   9.325  18.502  0.00  0.00    +0.000 A 
ATOM     22  F   UNL     1       1.915  10.379  17.687  0.00  0.00    +0.000 F 
ATOM     23  C   UNL     1       2.058   8.052  18.024  0.00  0.00    +0.000 A 
ATOM     24  C   UNL     1       1.960   6.972  18.905  0.00  0.00    +0.000 A 
ATOM     25  C   UNL     1       2.277   5.609  18.492  0.00  0.00    +0.000 A 
ATOM     26  O   UNL     1       2.396   5.333  17.302  0.00  0.00    +0.000 OA
ENDBRANCH  14  15
ENDBRANCH   2  14
TORSDOF 4
ENDMDL
MODEL 8
REMARK VINA RESULT:      -7.4      5.267      7.388
REMARK  Name = 
REMARK  6 active torsions:
REMARK  status: ('A' for Active; 'I' for Inactive)
REMARK    1  A    between atoms: C_1  and  C_2
REMARK    2  A    between atoms: C_5  and  C_6
REMARK    3  A    between atoms: C_6  and  C_7
REMARK    4  A    between atoms: C_6  and  N_8
REMARK    5  A    between atoms: C_9  and  C_11
REMARK    6  A    between atoms: C_11  and  N_12
REMARK                            x       y       z     vdW  Elec       q    Type
REMARK                         _______ _______ _______ _____ _____    ______ ____
ROOT
ATOM      1  N   UNL     1       2.943   8.371  17.991  0.00  0.00    +0.000 N 
ATOM      2  C   UNL     1       1.757   9.056  17.843  0.00  0.00    +0.000 C 
ATOM      3  O   UNL     1       0.796   8.607  17.218  0.00  0.00    +0.000 OA
ATOM      4  H   UNL     1       3.702   8.800  18.512  0.00  0.00    +0.000 HD
ENDROOT
BRANCH   1   5
ATOM      5  C   UNL     1       3.146   7.043  17.436  0.00  0.00    +0.000 C 
ATOM      6  C   UNL     1       4.622   6.819  17.099  0.00  0.00    +0.000 C 
BRANCH   5  11
ATOM      7  C   UNL     1       1.128   2.974  21.111  0.00  0.00    +0.000 C 
ATOM      8  C   UNL     1       1.646   4.026  20.175  0.00  0.00    +0.000 A 
ATOM      9  C   UNL     1       2.358   5.130  20.650  0.00  0.00    +0.000 A 
ATOM     10  C   UNL     1       2.846   6.096  19.762  0.00  0.00    +0.000 A 
ATOM     11  C   UNL     1       2.624   5.978  18.381  0.00  0.00    +0.000 A 
ATOM     12  C   UNL     1       1.902   4.868  17.913  0.00  0.00    +0.000 A 
ATOM     13  C   UNL     1       1.419   3.905  18.799  0.00  0.00    +0.000 A 
ENDBRANCH   5  11
ENDBRANCH   1   5
BRANCH   2  14
ATOM     14  C   UNL     1       1.737  10.453  18.443  0.00  0.00    +0.000 C 
BRANCH  14  15
ATOM     15  N   UNL     1       0.851  10.499  19.596  0.00  0.00    +0.000 N 
ATOM     16  N   UNL     1       1.174   9.688  20.649  0.00  0.00    +0.000 NA
ATOM     17  N   UNL     1       0.454   9.627  21.670  0.00  0.00    +0.000 NA
ATOM     18  C   UNL     1      -0.557  10.575  21.854  0.00  0.00    +0.000 A 
ATOM     19  C   UNL     1      -1.178  10.676  23.106  0.00  0.00    +0.000 A 
ATOM     20  C   UNL     1      -2.122  11.679  23.351  0.00  0.00    +0.000 A 
ATOM     21  C   UNL     1      -2.452  12.572  22.336  0.00  0.00    +0.000 A 
ATOM     22  F   UNL     1      -3.317  13.563  22.587  0.00  0.00    +0.000 F 
ATOM     23  C   UNL     1      -1.887  12.460  21.075  0.00  0.00    +0.000 A 
ATOM     24  C   UNL     1      -0.949  11.448  20.849  0.00  0.00    +0.000 A 
ATOM     25  C   UNL     1      -0.277  11.292  19.564  0.00  0.00    +0.000 A 
ATOM     26  O   UNL     1      -0.693  11.880  18.571  0.00  0.00    +0.000 OA
ENDBRANCH  14  15
ENDBRANCH   2  14
TORSDOF 4
ENDMDL
MODEL 9
REMARK VINA RESULT:      -7.3      3.301      7.429
REMARK  Name = 
REMARK  6 active torsions:
REMARK  status: ('A' for Active; 'I' for Inactive)
REMARK    1  A    between atoms: C_1  and  C_2
REMARK    2  A    between atoms: C_5  and  C_6
REMARK    3  A    between atoms: C_6  and  C_7
REMARK    4  A    between atoms: C_6  and  N_8
REMARK    5  A    between atoms: C_9  and  C_11
REMARK    6  A    between atoms: C_11  and  N_12
REMARK                            x       y       z     vdW  Elec       q    Type
REMARK                         _______ _______ _______ _____ _____    ______ ____
ROOT
ATOM      1  N   UNL     1       4.053   5.701  19.006  0.00  0.00    +0.000 N 
ATOM      2  C   UNL     1       4.710   4.490  19.009  0.00  0.00    +0.000 C 
ATOM      3  O   UNL     1       4.158   3.429  19.302  0.00  0.00    +0.000 OA
ATOM      4  H   UNL     1       4.567   6.544  18.763  0.00  0.00    +0.000 HD
ENDROOT
BRANCH   1   5
ATOM      5  C   UNL     1       2.641   5.819  19.327  0.00  0.00    +0.000 C 
ATOM      6  C   UNL     1       2.355   5.255  20.720  0.00  0.00    +0.000 C 
BRANCH   5  11
ATOM      7  C   UNL     1       0.848  11.355  18.807  0.00  0.00    +0.000 C 
ATOM      8  C   UNL     1       1.306   9.933  18.931  0.00  0.00    +0.000 A 
ATOM      9  C   UNL     1       1.882   9.262  17.849  0.00  0.00    +0.000 A 
ATOM     10  C   UNL     1       2.318   7.938  17.984  0.00  0.00    +0.000 A 
ATOM     11  C   UNL     1       2.178   7.258  19.204  0.00  0.00    +0.000 A 
ATOM     12  C   UNL     1       1.593   7.938  20.284  0.00  0.00    +0.000 A 
ATOM     13  C   UNL     1       1.162   9.258  20.149  0.00  0.00    +0.000 A 
ENDBRANCH   5  11
ENDBRANCH   1   5
BRANCH   2  14
ATOM     14  C   UNL     1       6.197   4.559  18.699  0.00  0.00    +0.000 C 
BRANCH  14  15
ATOM     15  N   UNL     1       6.412   4.772  17.276  0.00  0.00    +0.000 N 
ATOM     16  N   UNL     1       7.370   5.684  16.932  0.00  0.00    +0.000 NA
ATOM     17  N   UNL     1       7.603   5.966  15.736  0.00  0.00    +0.000 NA
ATOM     18  C   UNL     1       7.059   5.168  14.725  0.00  0.00    +0.000 A 
ATOM     19  C   UNL     1       7.530   5.312  13.413  0.00  0.00    +0.000 A 
ATOM     20  C   UNL     1       7.078   4.461  12.400  0.00  0.00    +0.000 A 
ATOM     21  C   UNL     1       6.144   3.474  12.699  0.00  0.00    +0.000 A 
ATOM     22  F   UNL     1       5.750   2.627  11.739  0.00  0.00    +0.000 F 
ATOM     23  C   UNL     1       5.626   3.346  13.979  0.00  0.00    +0.000 A 
ATOM     24  C   UNL     1       6.088   4.209  14.977  0.00  0.00    +0.000 A 
ATOM     25  C   UNL     1       5.627   4.109  16.357  0.00  0.00    +0.000 A 
ATOM     26  O   UNL     1       4.639   3.435  16.634  0.00  0.00    +0.000 OA
ENDBRANCH  14  15
ENDBRANCH   2  14
TORSDOF 4
ENDMDL
