MODEL 1
REMARK VINA RESULT:      -6.1      0.000      0.000
REMARK  Name = 
REMARK  6 active torsions:
REMARK  status: ('A' for Active; 'I' for Inactive)
REMARK    1  A    between atoms: C_1  and  N_2
REMARK    2  A    between atoms: N_2  and  C_3
REMARK    3  A    between atoms: N_2  and  C_4
REMARK    4  A    between atoms: C_4  and  C_5
REMARK    5  A    between atoms: C_5  and  C_6
REMARK    6  A    between atoms: C_6  and  C_8
REMARK                            x       y       z     vdW  Elec       q    Type
REMARK                         _______ _______ _______ _____ _____    ______ ____
ROOT
ATOM      1  C   UNL     1       4.299   3.771  18.069  0.00  0.00    +0.000 A 
ATOM      2  C   UNL     1       4.670   4.459  19.230  0.00  0.00    +0.000 A 
ATOM      3  C   UNL     1       5.763   5.333  19.217  0.00  0.00    +0.000 A 
ATOM      4  C   UNL     1       6.482   5.542  18.042  0.00  0.00    +0.000 A 
ATOM      5 CL   UNL     1       7.816   6.638  18.103  0.00  0.00    +0.000 Cl
ATOM      6  C   UNL     1       6.107   4.873  16.871  0.00  0.00    +0.000 A 
ATOM      7 CL   UNL     1       6.944   5.095  15.375  0.00  0.00    +0.000 Cl
ATOM      8  C   UNL     1       5.023   3.989  16.887  0.00  0.00    +0.000 A 
ENDROOT
BRANCH   1   9
ATOM      9  C   UNL     1       3.164   2.790  18.035  0.00  0.00    +0.000 C 
ATOM     10  O   UNL     1       3.406   1.600  17.853  0.00  0.00    +0.000 OA
BRANCH   9  11
ATOM     11  C   UNL     1       1.750   3.311  18.210  0.00  0.00    +0.000 C 
BRANCH  11  12
ATOM     12  C   UNL     1       0.990   2.557  19.299  0.00  0.00    +0.000 C 
BRANCH  12  14
ATOM     13  C   UNL     1       1.948   2.671  21.499  0.00  0.00    +0.000 C 
ATOM     14  N   UNL     1       0.966   3.273  20.593  0.00  0.00    +0.000 NA
ATOM     15  C   UNL     1       1.239   4.707  20.464  0.00  0.00    +0.000 C 
ENDBRANCH  12  14
ENDBRANCH  11  12
ENDBRANCH   9  11
ENDBRANCH   1   9
TORSDOF 4
ENDMDL
MODEL 2
REMARK VINA RESULT:      -5.9      3.821      5.824
REMARK  Name = 
REMARK  6 active torsions:
REMARK  status: ('A' for Active; 'I' for Inactive)
REMARK    1  A    between atoms: C_1  and  N_2
REMARK    2  A    between atoms: N_2  and  C_3
REMARK    3  A    between atoms: N_2  and  C_4
REMARK    4  A    between atoms: C_4  and  C_5
REMARK    5  A    between atoms: C_5  and  C_6
REMARK    6  A    between atoms: C_6  and  C_8
REMARK                            x       y       z     vdW  Elec       q    Type
REMARK                         _______ _______ _______ _____ _____    ______ ____
ROOT
ATOM      1  C   UNL     1       4.750   4.651  18.853  0.00  0.00    +0.000 A 
ATOM      2  C   UNL     1       4.544   3.559  18.001  0.00  0.00    +0.000 A 
ATOM      3  C   UNL     1       3.313   2.894  17.987  0.00  0.00    +0.000 A 
ATOM      4  C   UNL     1       2.272   3.322  18.809  0.00  0.00    +0.000 A 
ATOM      5 CL   UNL     1       0.782   2.452  18.733  0.00  0.00    +0.000 Cl
ATOM      6  C   UNL     1       2.463   4.424  19.651  0.00  0.00    +0.000 A 
ATOM      7 CL   UNL     1       1.212   5.019  20.685  0.00  0.00    +0.000 Cl
ATOM      8  C   UNL     1       3.698   5.082  19.675  0.00  0.00    +0.000 A 
ENDROOT
BRANCH   1   9
ATOM      9  C   UNL     1       6.061   5.374  18.942  0.00  0.00    +0.000 C 
ATOM     10  O   UNL     1       6.781   5.193  19.920  0.00  0.00    +0.000 OA
BRANCH   9  11
ATOM     11  C   UNL     1       6.442   6.323  17.821  0.00  0.00    +0.000 C 
BRANCH  11  12
ATOM     12  C   UNL     1       7.246   5.626  16.725  0.00  0.00    +0.000 C 
BRANCH  12  14
ATOM     13  C   UNL     1       6.556   4.347  14.812  0.00  0.00    +0.000 C 
ATOM     14  N   UNL     1       6.596   5.690  15.398  0.00  0.00    +0.000 NA
ATOM     15  C   UNL     1       5.238   6.239  15.447  0.00  0.00    +0.000 C 
ENDBRANCH  12  14
ENDBRANCH  11  12
ENDBRANCH   9  11
ENDBRANCH   1   9
TORSDOF 4
ENDMDL
MODEL 3
REMARK VINA RESULT:      -5.9      1.658      1.831
REMARK  Name = 
REMARK  6 active torsions:
REMARK  status: ('A' for Active; 'I' for Inactive)
REMARK    1  A    between atoms: C_1  and  N_2
REMARK    2  A    between atoms: N_2  and  C_3
REMARK    3  A    between atoms: N_2  and  C_4
REMARK    4  A    between atoms: C_4  and  C_5
REMARK    5  A    between atoms: C_5  and  C_6
REMARK    6  A    between atoms: C_6  and  C_8
REMARK                            x       y       z     vdW  Elec       q    Type
REMARK                         _______ _______ _______ _____ _____    ______ ____
ROOT
ATOM      1  C   UNL     1       3.378   4.615  17.397  0.00  0.00    +0.000 A 
ATOM      2  C   UNL     1       3.426   5.877  18.001  0.00  0.00    +0.000 A 
ATOM      3  C   UNL     1       4.593   6.646  17.943  0.00  0.00    +0.000 A 
ATOM      4  C   UNL     1       5.715   6.172  17.267  0.00  0.00    +0.000 A 
ATOM      5 CL   UNL     1       7.118   7.180  17.237  0.00  0.00    +0.000 Cl
ATOM      6  C   UNL     1       5.671   4.920  16.644  0.00  0.00    +0.000 A 
ATOM      7 CL   UNL     1       7.019   4.275  15.776  0.00  0.00    +0.000 Cl
ATOM      8  C   UNL     1       4.508   4.144  16.713  0.00  0.00    +0.000 A 
ENDROOT
BRANCH   1   9
ATOM      9  C   UNL     1       2.169   3.729  17.464  0.00  0.00    +0.000 C 
ATOM     10  O   UNL     1       1.067   4.196  17.190  0.00  0.00    +0.000 OA
BRANCH   9  11
ATOM     11  C   UNL     1       2.352   2.284  17.889  0.00  0.00    +0.000 C 
BRANCH  11  12
ATOM     12  C   UNL     1       1.883   2.042  19.322  0.00  0.00    +0.000 C 
BRANCH  12  14
ATOM     13  C   UNL     1       2.051   2.630  21.646  0.00  0.00    +0.000 C 
ATOM     14  N   UNL     1       2.660   2.804  20.324  0.00  0.00    +0.000 NA
ATOM     15  C   UNL     1       4.070   2.407  20.384  0.00  0.00    +0.000 C 
ENDBRANCH  12  14
ENDBRANCH  11  12
ENDBRANCH   9  11
ENDBRANCH   1   9
TORSDOF 4
ENDMDL
MODEL 4
REMARK VINA RESULT:      -5.8      3.760      5.531
REMARK  Name = 
REMARK  6 active torsions:
REMARK  status: ('A' for Active; 'I' for Inactive)
REMARK    1  A    between atoms: C_1  and  N_2
REMARK    2  A    between atoms: N_2  and  C_3
REMARK    3  A    between atoms: N_2  and  C_4
REMARK    4  A    between atoms: C_4  and  C_5
REMARK    5  A    between atoms: C_5  and  C_6
REMARK    6  A    between atoms: C_6  and  C_8
REMARK                            x       y       z     vdW  Elec       q    Type
REMARK                         _______ _______ _______ _____ _____    ______ ____
ROOT
ATOM      1  C   UNL     1       5.337   4.758  19.156  0.00  0.00    +0.000 A 
ATOM      2  C   UNL     1       4.301   5.655  19.437  0.00  0.00    +0.000 A 
ATOM      3  C   UNL     1       2.966   5.237  19.384  0.00  0.00    +0.000 A 
ATOM      4  C   UNL     1       2.656   3.915  19.069  0.00  0.00    +0.000 A 
ATOM      5 CL   UNL     1       0.987   3.473  19.025  0.00  0.00    +0.000 Cl
ATOM      6  C   UNL     1       3.686   3.005  18.804  0.00  0.00    +0.000 A 
ATOM      7 CL   UNL     1       3.375   1.349  18.421  0.00  0.00    +0.000 Cl
ATOM      8  C   UNL     1       5.020   3.427  18.844  0.00  0.00    +0.000 A 
ENDROOT
BRANCH   1   9
ATOM      9  C   UNL     1       6.782   5.161  19.155  0.00  0.00    +0.000 C 
ATOM     10  O   UNL     1       7.317   5.477  20.215  0.00  0.00    +0.000 OA
BRANCH   9  11
ATOM     11  C   UNL     1       7.528   5.183  17.834  0.00  0.00    +0.000 C 
BRANCH  11  12
ATOM     12  C   UNL     1       7.218   6.436  17.019  0.00  0.00    +0.000 C 
BRANCH  12  14
ATOM     13  C   UNL     1       6.708   4.747  15.388  0.00  0.00    +0.000 C 
ATOM     14  N   UNL     1       6.492   6.148  15.763  0.00  0.00    +0.000 NA
ATOM     15  C   UNL     1       5.052   6.408  15.856  0.00  0.00    +0.000 C 
ENDBRANCH  12  14
ENDBRANCH  11  12
ENDBRANCH   9  11
ENDBRANCH   1   9
TORSDOF 4
ENDMDL
MODEL 5
REMARK VINA RESULT:      -5.8      3.985      5.617
REMARK  Name = 
REMARK  6 active torsions:
REMARK  status: ('A' for Active; 'I' for Inactive)
REMARK    1  A    between atoms: C_1  and  N_2
REMARK    2  A    between atoms: N_2  and  C_3
REMARK    3  A    between atoms: N_2  and  C_4
REMARK    4  A    between atoms: C_4  and  C_5
REMARK    5  A    between atoms: C_5  and  C_6
REMARK    6  A    between atoms: C_6  and  C_8
REMARK                            x       y       z     vdW  Elec       q    Type
REMARK                         _______ _______ _______ _____ _____    ______ ____
ROOT
ATOM      1  C   UNL     1       3.247   5.860  18.425  0.00  0.00    +0.000 A 
ATOM      2  C   UNL     1       2.703   6.221  19.663  0.00  0.00    +0.000 A 
ATOM      3  C   UNL     1       2.077   5.263  20.469  0.00  0.00    +0.000 A 
ATOM      4  C   UNL     1       2.004   3.935  20.054  0.00  0.00    +0.000 A 
ATOM      5 CL   UNL     1       1.217   2.811  21.104  0.00  0.00    +0.000 Cl
ATOM      6  C   UNL     1       2.561   3.560  18.826  0.00  0.00    +0.000 A 
ATOM      7 CL   UNL     1       2.520   1.929  18.256  0.00  0.00    +0.000 Cl
ATOM      8  C   UNL     1       3.176   4.520  18.014  0.00  0.00    +0.000 A 
ENDROOT
BRANCH   1   9
ATOM      9  C   UNL     1       3.892   6.851  17.501  0.00  0.00    +0.000 C 
ATOM     10  O   UNL     1       3.436   7.989  17.431  0.00  0.00    +0.000 OA
BRANCH   9  11
ATOM     11  C   UNL     1       5.078   6.402  16.669  0.00  0.00    +0.000 C 
BRANCH  11  12
ATOM     12  C   UNL     1       6.396   6.965  17.196  0.00  0.00    +0.000 C 
BRANCH  12  14
ATOM     13  C   UNL     1       7.680   5.755  18.828  0.00  0.00    +0.000 C 
ATOM     14  N   UNL     1       7.433   5.929  17.393  0.00  0.00    +0.000 NA
ATOM     15  C   UNL     1       7.077   4.636  16.802  0.00  0.00    +0.000 C 
ENDBRANCH  12  14
ENDBRANCH  11  12
ENDBRANCH   9  11
ENDBRANCH   1   9
TORSDOF 4
ENDMDL
MODEL 6
REMARK VINA RESULT:      -5.7      2.121      2.715
REMARK  Name = 
REMARK  6 active torsions:
REMARK  status: ('A' for Active; 'I' for Inactive)
REMARK    1  A    between atoms: C_1  and  N_2
REMARK    2  A    between atoms: N_2  and  C_3
REMARK    3  A    between atoms: N_2  and  C_4
REMARK    4  A    between atoms: C_4  and  C_5
REMARK    5  A    between atoms: C_5  and  C_6
REMARK    6  A    between atoms: C_6  and  C_8
REMARK                            x       y       z     vdW  Elec       q    Type
REMARK                         _______ _______ _______ _____ _____    ______ ____
ROOT
ATOM      1  C   UNL     1       3.632   5.775  19.050  0.00  0.00    +0.000 A 
ATOM      2  C   UNL     1       4.566   4.851  19.531  0.00  0.00    +0.000 A 
ATOM      3  C   UNL     1       5.648   4.457  18.735  0.00  0.00    +0.000 A 
ATOM      4  C   UNL     1       5.816   4.996  17.461  0.00  0.00    +0.000 A 
ATOM      5 CL   UNL     1       7.177   4.463  16.540  0.00  0.00    +0.000 Cl
ATOM      6  C   UNL     1       4.898   5.935  16.979  0.00  0.00    +0.000 A 
ATOM      7 CL   UNL     1       5.052   6.655  15.415  0.00  0.00    +0.000 Cl
ATOM      8  C   UNL     1       3.808   6.319  17.769  0.00  0.00    +0.000 A 
ENDROOT
BRANCH   1   9
ATOM      9  C   UNL     1       2.430   6.200  19.842  0.00  0.00    +0.000 C 
ATOM     10  O   UNL     1       2.052   7.367  19.778  0.00  0.00    +0.000 OA
BRANCH   9  11
ATOM     11  C   UNL     1       1.735   5.171  20.713  0.00  0.00    +0.000 C 
BRANCH  11  12
ATOM     12  C   UNL     1       1.029   4.099  19.885  0.00  0.00    +0.000 C 
BRANCH  12  14
ATOM     13  C   UNL     1       2.073   2.034  19.237  0.00  0.00    +0.000 C 
ATOM     14  N   UNL     1       1.358   2.723  20.315  0.00  0.00    +0.000 NA
ATOM     15  C   UNL     1       2.163   2.678  21.538  0.00  0.00    +0.000 C 
ENDBRANCH  12  14
ENDBRANCH  11  12
ENDBRANCH   9  11
ENDBRANCH   1   9
TORSDOF 4
ENDMDL
MODEL 7
REMARK VINA RESULT:      -5.7      3.766      5.730
REMARK  Name = 
REMARK  6 active torsions:
REMARK  status: ('A' for Active; 'I' for Inactive)
REMARK    1  A    between atoms: C_1  and  N_2
REMARK    2  A    between atoms: N_2  and  C_3
REMARK    3  A    between atoms: N_2  and  C_4
REMARK    4  A    between atoms: C_4  and  C_5
REMARK    5  A    between atoms: C_5  and  C_6
REMARK    6  A    between atoms: C_6  and  C_8
REMARK                            x       y       z     vdW  Elec       q    Type
REMARK                         _______ _______ _______ _____ _____    ______ ____
ROOT
ATOM      1  C   UNL     1       5.071   4.762  19.258  0.00  0.00    +0.000 A 
ATOM      2  C   UNL     1       4.743   3.416  19.057  0.00  0.00    +0.000 A 
ATOM      3  C   UNL     1       3.447   2.956  19.316  0.00  0.00    +0.000 A 
ATOM      4  C   UNL     1       2.464   3.838  19.760  0.00  0.00    +0.000 A 
ATOM      5 CL   UNL     1       0.888   3.196  20.056  0.00  0.00    +0.000 Cl
ATOM      6  C   UNL     1       2.777   5.189  19.946  0.00  0.00    +0.000 A 
ATOM      7 CL   UNL     1       1.604   6.341  20.480  0.00  0.00    +0.000 Cl
ATOM      8  C   UNL     1       4.076   5.647  19.700  0.00  0.00    +0.000 A 
ENDROOT
BRANCH   1   9
ATOM      9  C   UNL     1       6.454   5.302  19.038  0.00  0.00    +0.000 C 
ATOM     10  O   UNL     1       7.258   5.288  19.966  0.00  0.00    +0.000 OA
BRANCH   9  11
ATOM     11  C   UNL     1       6.803   5.865  17.673  0.00  0.00    +0.000 C 
BRANCH  11  12
ATOM     12  C   UNL     1       7.060   4.764  16.646  0.00  0.00    +0.000 C 
BRANCH  12  14
ATOM     13  C   UNL     1       5.284   5.867  15.459  0.00  0.00    +0.000 C 
ATOM     14  N   UNL     1       5.935   4.576  15.703  0.00  0.00    +0.000 NA
ATOM     15  C   UNL     1       6.346   3.990  14.424  0.00  0.00    +0.000 C 
ENDBRANCH  12  14
ENDBRANCH  11  12
ENDBRANCH   9  11
ENDBRANCH   1   9
TORSDOF 4
ENDMDL
MODEL 8
REMARK VINA RESULT:      -5.7      3.710      5.506
REMARK  Name = 
REMARK  6 active torsions:
REMARK  status: ('A' for Active; 'I' for Inactive)
REMARK    1  A    between atoms: C_1  and  N_2
REMARK    2  A    between atoms: N_2  and  C_3
REMARK    3  A    between atoms: N_2  and  C_4
REMARK    4  A    between atoms: C_4  and  C_5
REMARK    5  A    between atoms: C_5  and  C_6
REMARK    6  A    between atoms: C_6  and  C_8
REMARK                            x       y       z     vdW  Elec       q    Type
REMARK                         _______ _______ _______ _____ _____    ______ ____
ROOT
ATOM      1  C   UNL     1       4.065   4.265  17.515  0.00  0.00    +0.000 A 
ATOM      2  C   UNL     1       2.736   4.702  17.565  0.00  0.00    +0.000 A 
ATOM      3  C   UNL     1       1.894   4.294  18.606  0.00  0.00    +0.000 A 
ATOM      4  C   UNL     1       2.376   3.462  19.614  0.00  0.00    +0.000 A 
ATOM      5 CL   UNL     1       1.278   3.003  20.866  0.00  0.00    +0.000 Cl
ATOM      6  C   UNL     1       3.708   3.035  19.584  0.00  0.00    +0.000 A 
ATOM      7 CL   UNL     1       4.377   2.016  20.809  0.00  0.00    +0.000 Cl
ATOM      8  C   UNL     1       4.547   3.432  18.536  0.00  0.00    +0.000 A 
ENDROOT
BRANCH   1   9
ATOM      9  C   UNL     1       4.999   4.636  16.401  0.00  0.00    +0.000 C 
ATOM     10  O   UNL     1       5.601   3.748  15.803  0.00  0.00    +0.000 OA
BRANCH   9  11
ATOM     11  C   UNL     1       5.182   6.104  16.067  0.00  0.00    +0.000 C 
BRANCH  11  12
ATOM     12  C   UNL     1       5.733   6.899  17.248  0.00  0.00    +0.000 C 
BRANCH  12  14
ATOM     13  C   UNL     1       7.782   8.106  17.596  0.00  0.00    +0.000 C 
ATOM     14  N   UNL     1       7.199   6.775  17.399  0.00  0.00    +0.000 NA
ATOM     15  C   UNL     1       7.593   5.904  18.509  0.00  0.00    +0.000 C 
ENDBRANCH  12  14
ENDBRANCH  11  12
ENDBRANCH   9  11
ENDBRANCH   1   9
TORSDOF 4
ENDMDL
MODEL 9
REMARK VINA RESULT:      -5.7      1.897      2.940
REMARK  Name = 
REMARK  6 active torsions:
REMARK  status: ('A' for Active; 'I' for Inactive)
REMARK    1  A    between atoms: C_1  and  N_2
REMARK    2  A    between atoms: N_2  and  C_3
REMARK    3  A    between atoms: N_2  and  C_4
REMARK    4  A    between atoms: C_4  and  C_5
REMARK    5  A    between atoms: C_5  and  C_6
REMARK    6  A    between atoms: C_6  and  C_8
REMARK                            x       y       z     vdW  Elec       q    Type
REMARK                         _______ _______ _______ _____ _____    ______ ____
ROOT
ATOM      1  C   UNL     1       3.700   5.581  18.822  0.00  0.00    +0.000 A 
ATOM      2  C   UNL     1       3.469   4.997  17.571  0.00  0.00    +0.000 A 
ATOM      3  C   UNL     1       4.542   4.605  16.763  0.00  0.00    +0.000 A 
ATOM      4  C   UNL     1       5.853   4.775  17.204  0.00  0.00    +0.000 A 
ATOM      5 CL   UNL     1       7.125   4.264  16.152  0.00  0.00    +0.000 Cl
ATOM      6  C   UNL     1       6.094   5.341  18.461  0.00  0.00    +0.000 A 
ATOM      7 CL   UNL     1       7.693   5.568  19.078  0.00  0.00    +0.000 Cl
ATOM      8  C   UNL     1       5.022   5.745  19.264  0.00  0.00    +0.000 A 
ENDROOT
BRANCH   1   9
ATOM      9  C   UNL     1       2.590   6.060  19.711  0.00  0.00    +0.000 C 
ATOM     10  O   UNL     1       2.178   7.211  19.589  0.00  0.00    +0.000 OA
BRANCH   9  11
ATOM     11  C   UNL     1       2.028   5.105  20.747  0.00  0.00    +0.000 C 
BRANCH  11  12
ATOM     12  C   UNL     1       0.998   4.149  20.148  0.00  0.00    +0.000 C 
BRANCH  12  14
ATOM     13  C   UNL     1       1.846   2.072  19.285  0.00  0.00    +0.000 C 
ATOM     14  N   UNL     1       1.270   2.729  20.463  0.00  0.00    +0.000 NA
ATOM     15  C   UNL     1       2.172   2.555  21.605  0.00  0.00    +0.000 C 
ENDBRANCH  12  14
ENDBRANCH  11  12
ENDBRANCH   9  11
ENDBRANCH   1   9
TORSDOF 4
ENDMDL
