MODEL 1
REMARK VINA RESULT:      -6.7      0.000      0.000
REMARK  Name = 
REMARK  6 active torsions:
REMARK  status: ('A' for Active; 'I' for Inactive)
REMARK    1  A    between atoms: C_2  and  C_3
REMARK    2  A    between atoms: N_9  and  C_10
REMARK    3  A    between atoms: N_9  and  C_17
REMARK    4  A    between atoms: C_10  and  C_11
REMARK    5  A    between atoms: N_20  and  C_21
REMARK    6  A    between atoms: C_21  and  C_22
REMARK                            x       y       z     vdW  Elec       q    Type
REMARK                         _______ _______ _______ _____ _____    ______ ____
ROOT
ATOM      1  O   UNL     1       2.967   3.383  16.331  0.00  0.00    +0.000 OA
ATOM      2  C   UNL     1       3.617   4.306  16.837  0.00  0.00    +0.000 C 
ATOM      3  N   UNL     1       3.073   5.082  17.891  0.00  0.00    +0.000 N 
ENDROOT
BRANCH   2   4
ATOM      4  C   UNL     1       5.006   4.431  16.315  0.00  0.00    +0.000 A 
ATOM      5  C   UNL     1       5.134   4.668  14.930  0.00  0.00    +0.000 A 
ATOM      6  C   UNL     1       6.383   4.878  14.342  0.00  0.00    +0.000 A 
ATOM      7  C   UNL     1       7.523   4.844  15.130  0.00  0.00    +0.000 A 
ATOM      8  C   UNL     1       7.417   4.638  16.503  0.00  0.00    +0.000 A 
ATOM      9  C   UNL     1       6.163   4.450  17.094  0.00  0.00    +0.000 A 
ENDBRANCH   2   4
BRANCH   3  10
ATOM     10  C   UNL     1       3.693   6.258  18.578  0.00  0.00    +0.000 C 
ATOM     11  C   UNL     1       2.974   6.834  19.817  0.00  0.00    +0.000 C 
ATOM     12  C   UNL     1       1.786   7.765  19.533  0.00  0.00    +0.000 C 
ATOM     13  N   UNL     1       1.988   8.749  18.459  0.00  0.00    +0.000 NA
ATOM     14  C   UNL     1       2.703   8.221  17.290  0.00  0.00    +0.000 C 
ATOM     15  C   UNL     1       3.961   7.431  17.625  0.00  0.00    +0.000 C 
BRANCH  13  16
ATOM     16  C   UNL     1       0.696   9.302  17.979  0.00  0.00    +0.000 C 
BRANCH  16  17
ATOM     17  C   UNL     1       0.158  10.489  18.751  0.00  0.00    +0.000 A 
ATOM     18  C   UNL     1      -1.221  10.665  18.921  0.00  0.00    +0.000 A 
ATOM     19  C   UNL     1      -1.709  11.730  19.679  0.00  0.00    +0.000 A 
ATOM     20  C   UNL     1      -0.825  12.632  20.271  0.00  0.00    +0.000 A 
ATOM     21  C   UNL     1       0.548  12.472  20.105  0.00  0.00    +0.000 A 
ATOM     22  C   UNL     1       1.038  11.406  19.348  0.00  0.00    +0.000 A 
ENDBRANCH  16  17
ENDBRANCH  13  16
ENDBRANCH   3  10
BRANCH   3  23
ATOM     23  C   UNL     1       1.796   4.552  18.384  0.00  0.00    +0.000 C 
BRANCH  23  24
ATOM     24  C   UNL     1       1.911   3.635  19.593  0.00  0.00    +0.000 A 
ATOM     25  C   UNL     1       0.895   3.508  20.554  0.00  0.00    +0.000 A 
ATOM     26  C   UNL     1       1.106   2.801  21.738  0.00  0.00    +0.000 A 
ATOM     27  C   UNL     1       2.336   2.195  21.974  0.00  0.00    +0.000 A 
ATOM     28  C   UNL     1       3.338   2.262  21.009  0.00  0.00    +0.000 A 
ATOM     29  C   UNL     1       3.126   2.971  19.824  0.00  0.00    +0.000 A 
ENDBRANCH  23  24
ENDBRANCH   3  23
TORSDOF 6
ENDMDL
MODEL 2
REMARK VINA RESULT:      -6.6      1.905      2.583
REMARK  Name = 
REMARK  6 active torsions:
REMARK  status: ('A' for Active; 'I' for Inactive)
REMARK    1  A    between atoms: C_2  and  C_3
REMARK    2  A    between atoms: N_9  and  C_10
REMARK    3  A    between atoms: N_9  and  C_17
REMARK    4  A    between atoms: C_10  and  C_11
REMARK    5  A    between atoms: N_20  and  C_21
REMARK    6  A    between atoms: C_21  and  C_22
REMARK                            x       y       z     vdW  Elec       q    Type
REMARK                         _______ _______ _______ _____ _____    ______ ____
ROOT
ATOM      1  O   UNL     1       3.778   4.762  17.162  0.00  0.00    +0.000 OA
ATOM      2  C   UNL     1       3.939   5.806  17.805  0.00  0.00    +0.000 C 
ATOM      3  N   UNL     1       2.831   6.488  18.369  0.00  0.00    +0.000 N 
ENDROOT
BRANCH   2   4
ATOM      4  C   UNL     1       5.365   6.187  18.002  0.00  0.00    +0.000 A 
ATOM      5  C   UNL     1       6.054   5.515  19.034  0.00  0.00    +0.000 A 
ATOM      6  C   UNL     1       7.414   5.734  19.262  0.00  0.00    +0.000 A 
ATOM      7  C   UNL     1       8.102   6.637  18.466  0.00  0.00    +0.000 A 
ATOM      8  C   UNL     1       7.447   7.292  17.426  0.00  0.00    +0.000 A 
ATOM      9  C   UNL     1       6.090   7.054  17.184  0.00  0.00    +0.000 A 
ENDBRANCH   2   4
BRANCH   3  10
ATOM     10  C   UNL     1       2.837   7.779  19.125  0.00  0.00    +0.000 C 
ATOM     11  C   UNL     1       1.687   8.040  20.121  0.00  0.00    +0.000 C 
ATOM     12  C   UNL     1       0.365   8.530  19.510  0.00  0.00    +0.000 C 
ATOM     13  N   UNL     1       0.487   9.561  18.468  0.00  0.00    +0.000 NA
ATOM     14  C   UNL     1       1.601   9.342  17.536  0.00  0.00    +0.000 C 
ATOM     15  C   UNL     1       2.927   9.006  18.207  0.00  0.00    +0.000 C 
BRANCH  13  16
ATOM     16  C   UNL     1      -0.755   9.667  17.661  0.00  0.00    +0.000 C 
BRANCH  16  17
ATOM     17  C   UNL     1      -1.847  10.540  18.242  0.00  0.00    +0.000 A 
ATOM     18  C   UNL     1      -1.547  11.514  19.203  0.00  0.00    +0.000 A 
ATOM     19  C   UNL     1      -2.547  12.354  19.694  0.00  0.00    +0.000 A 
ATOM     20  C   UNL     1      -3.858  12.225  19.235  0.00  0.00    +0.000 A 
ATOM     21  C   UNL     1      -4.171  11.257  18.285  0.00  0.00    +0.000 A 
ATOM     22  C   UNL     1      -3.171  10.418  17.790  0.00  0.00    +0.000 A 
ENDBRANCH  16  17
ENDBRANCH  13  16
ENDBRANCH   3  10
BRANCH   3  23
ATOM     23  C   UNL     1       1.579   5.731  18.248  0.00  0.00    +0.000 C 
BRANCH  23  24
ATOM     24  C   UNL     1       1.459   4.542  19.189  0.00  0.00    +0.000 A 
ATOM     25  C   UNL     1       1.667   4.640  20.575  0.00  0.00    +0.000 A 
ATOM     26  C   UNL     1       1.728   3.501  21.378  0.00  0.00    +0.000 A 
ATOM     27  C   UNL     1       1.567   2.242  20.810  0.00  0.00    +0.000 A 
ATOM     28  C   UNL     1       1.305   2.126  19.446  0.00  0.00    +0.000 A 
ATOM     29  C   UNL     1       1.245   3.266  18.641  0.00  0.00    +0.000 A 
ENDBRANCH  23  24
ENDBRANCH   3  23
TORSDOF 6
ENDMDL
MODEL 3
REMARK VINA RESULT:      -6.6      2.159      7.438
REMARK  Name = 
REMARK  6 active torsions:
REMARK  status: ('A' for Active; 'I' for Inactive)
REMARK    1  A    between atoms: C_2  and  C_3
REMARK    2  A    between atoms: N_9  and  C_10
REMARK    3  A    between atoms: N_9  and  C_17
REMARK    4  A    between atoms: C_10  and  C_11
REMARK    5  A    between atoms: N_20  and  C_21
REMARK    6  A    between atoms: C_21  and  C_22
REMARK                            x       y       z     vdW  Elec       q    Type
REMARK                         _______ _______ _______ _____ _____    ______ ____
ROOT
ATOM      1  O   UNL     1       2.746   5.706  20.327  0.00  0.00    +0.000 OA
ATOM      2  C   UNL     1       3.154   6.550  19.520  0.00  0.00    +0.000 C 
ATOM      3  N   UNL     1       4.384   6.364  18.839  0.00  0.00    +0.000 N 
ENDROOT
BRANCH   2   4
ATOM      4  C   UNL     1       2.205   7.670  19.275  0.00  0.00    +0.000 A 
ATOM      5  C   UNL     1       1.612   8.248  20.418  0.00  0.00    +0.000 A 
ATOM      6  C   UNL     1       0.766   9.353  20.317  0.00  0.00    +0.000 A 
ATOM      7  C   UNL     1       0.492   9.891  19.068  0.00  0.00    +0.000 A 
ATOM      8  C   UNL     1       1.087   9.352  17.931  0.00  0.00    +0.000 A 
ATOM      9  C   UNL     1       1.953   8.259  18.036  0.00  0.00    +0.000 A 
ENDBRANCH   2   4
BRANCH   3  10
ATOM     10  C   UNL     1       5.050   7.298  17.878  0.00  0.00    +0.000 C 
ATOM     11  C   UNL     1       4.648   7.211  16.389  0.00  0.00    +0.000 C 
ATOM     12  C   UNL     1       5.307   6.083  15.579  0.00  0.00    +0.000 C 
ATOM     13  N   UNL     1       6.744   5.883  15.814  0.00  0.00    +0.000 NA
ATOM     14  C   UNL     1       7.143   5.999  17.224  0.00  0.00    +0.000 C 
ATOM     15  C   UNL     1       6.582   7.222  17.938  0.00  0.00    +0.000 C 
BRANCH  13  16
ATOM     16  C   UNL     1       7.193   4.552  15.333  0.00  0.00    +0.000 C 
BRANCH  16  17
ATOM     17  C   UNL     1       6.846   4.219  13.896  0.00  0.00    +0.000 A 
ATOM     18  C   UNL     1       5.732   3.425  13.596  0.00  0.00    +0.000 A 
ATOM     19  C   UNL     1       5.385   3.167  12.270  0.00  0.00    +0.000 A 
ATOM     20  C   UNL     1       6.150   3.694  11.230  0.00  0.00    +0.000 A 
ATOM     21  C   UNL     1       7.263   4.479  11.514  0.00  0.00    +0.000 A 
ATOM     22  C   UNL     1       7.611   4.741  12.841  0.00  0.00    +0.000 A 
ENDBRANCH  16  17
ENDBRANCH  13  16
ENDBRANCH   3  10
BRANCH   3  23
ATOM     23  C   UNL     1       4.967   5.037  19.073  0.00  0.00    +0.000 C 
BRANCH  23  24
ATOM     24  C   UNL     1       4.136   3.875  18.551  0.00  0.00    +0.000 A 
ATOM     25  C   UNL     1       3.371   3.950  17.375  0.00  0.00    +0.000 A 
ATOM     26  C   UNL     1       2.483   2.932  17.025  0.00  0.00    +0.000 A 
ATOM     27  C   UNL     1       2.355   1.813  17.840  0.00  0.00    +0.000 A 
ATOM     28  C   UNL     1       3.145   1.693  18.981  0.00  0.00    +0.000 A 
ATOM     29  C   UNL     1       4.033   2.713  19.332  0.00  0.00    +0.000 A 
ENDBRANCH  23  24
ENDBRANCH   3  23
TORSDOF 6
ENDMDL
MODEL 4
REMARK VINA RESULT:      -6.5      0.692      1.117
REMARK  Name = 
REMARK  6 active torsions:
REMARK  status: ('A' for Active; 'I' for Inactive)
REMARK    1  A    between atoms: C_2  and  C_3
REMARK    2  A    between atoms: N_9  and  C_10
REMARK    3  A    between atoms: N_9  and  C_17
REMARK    4  A    between atoms: C_10  and  C_11
REMARK    5  A    between atoms: N_20  and  C_21
REMARK    6  A    between atoms: C_21  and  C_22
REMARK                            x       y       z     vdW  Elec       q    Type
REMARK                         _______ _______ _______ _____ _____    ______ ____
ROOT
ATOM      1  O   UNL     1       2.749   3.399  16.354  0.00  0.00    +0.000 OA
ATOM      2  C   UNL     1       3.444   4.332  16.774  0.00  0.00    +0.000 C 
ATOM      3  N   UNL     1       2.968   5.185  17.802  0.00  0.00    +0.000 N 
ENDROOT
BRANCH   2   4
ATOM      4  C   UNL     1       4.811   4.386  16.186  0.00  0.00    +0.000 A 
ATOM      5  C   UNL     1       4.882   4.526  14.784  0.00  0.00    +0.000 A 
ATOM      6  C   UNL     1       6.108   4.664  14.130  0.00  0.00    +0.000 A 
ATOM      7  C   UNL     1       7.281   4.656  14.869  0.00  0.00    +0.000 A 
ATOM      8  C   UNL     1       7.231   4.545  16.256  0.00  0.00    +0.000 A 
ATOM      9  C   UNL     1       6.001   4.430  16.912  0.00  0.00    +0.000 A 
ENDBRANCH   2   4
BRANCH   3  10
ATOM     10  C   UNL     1       3.647   6.382  18.388  0.00  0.00    +0.000 C 
ATOM     11  C   UNL     1       3.326   6.752  19.852  0.00  0.00    +0.000 C 
ATOM     12  C   UNL     1       2.015   7.521  20.079  0.00  0.00    +0.000 C 
ATOM     13  N   UNL     1       1.735   8.603  19.123  0.00  0.00    +0.000 NA
ATOM     14  C   UNL     1       2.071   8.274  17.732  0.00  0.00    +0.000 C 
ATOM     15  C   UNL     1       3.448   7.651  17.547  0.00  0.00    +0.000 C 
BRANCH  13  16
ATOM     16  C   UNL     1       0.304   8.997  19.155  0.00  0.00    +0.000 C 
BRANCH  16  17
ATOM     17  C   UNL     1       0.018  10.465  18.907  0.00  0.00    +0.000 A 
ATOM     18  C   UNL     1       0.927  11.448  19.318  0.00  0.00    +0.000 A 
ATOM     19  C   UNL     1       0.686  12.793  19.038  0.00  0.00    +0.000 A 
ATOM     20  C   UNL     1      -0.467  13.170  18.350  0.00  0.00    +0.000 A 
ATOM     21  C   UNL     1      -1.381  12.204  17.941  0.00  0.00    +0.000 A 
ATOM     22  C   UNL     1      -1.141  10.856  18.218  0.00  0.00    +0.000 A 
ENDBRANCH  16  17
ENDBRANCH  13  16
ENDBRANCH   3  10
BRANCH   3  23
ATOM     23  C   UNL     1       1.701   4.721  18.381  0.00  0.00    +0.000 C 
BRANCH  23  24
ATOM     24  C   UNL     1       1.849   3.766  19.556  0.00  0.00    +0.000 A 
ATOM     25  C   UNL     1       0.865   3.615  20.547  0.00  0.00    +0.000 A 
ATOM     26  C   UNL     1       1.111   2.870  21.701  0.00  0.00    +0.000 A 
ATOM     27  C   UNL     1       2.343   2.250  21.877  0.00  0.00    +0.000 A 
ATOM     28  C   UNL     1       3.313   2.342  20.881  0.00  0.00    +0.000 A 
ATOM     29  C   UNL     1       3.068   3.089  19.726  0.00  0.00    +0.000 A 
ENDBRANCH  23  24
ENDBRANCH   3  23
TORSDOF 6
ENDMDL
MODEL 5
REMARK VINA RESULT:      -6.5      1.847      5.018
REMARK  Name = 
REMARK  6 active torsions:
REMARK  status: ('A' for Active; 'I' for Inactive)
REMARK    1  A    between atoms: C_2  and  C_3
REMARK    2  A    between atoms: N_9  and  C_10
REMARK    3  A    between atoms: N_9  and  C_17
REMARK    4  A    between atoms: C_10  and  C_11
REMARK    5  A    between atoms: N_20  and  C_21
REMARK    6  A    between atoms: C_21  and  C_22
REMARK                            x       y       z     vdW  Elec       q    Type
REMARK                         _______ _______ _______ _____ _____    ______ ____
ROOT
ATOM      1  O   UNL     1       5.482   4.829  19.510  0.00  0.00    +0.000 OA
ATOM      2  C   UNL     1       4.294   5.041  19.240  0.00  0.00    +0.000 C 
ATOM      3  N   UNL     1       3.921   6.139  18.423  0.00  0.00    +0.000 N 
ENDROOT
BRANCH   2   4
ATOM      4  C   UNL     1       3.357   4.003  19.751  0.00  0.00    +0.000 A 
ATOM      5  C   UNL     1       2.968   4.124  21.103  0.00  0.00    +0.000 A 
ATOM      6  C   UNL     1       2.036   3.254  21.670  0.00  0.00    +0.000 A 
ATOM      7  C   UNL     1       1.486   2.244  20.896  0.00  0.00    +0.000 A 
ATOM      8  C   UNL     1       1.836   2.123  19.554  0.00  0.00    +0.000 A 
ATOM      9  C   UNL     1       2.753   3.010  18.980  0.00  0.00    +0.000 A 
ENDBRANCH   2   4
BRANCH   3  10
ATOM     10  C   UNL     1       2.541   6.572  18.042  0.00  0.00    +0.000 C 
ATOM     11  C   UNL     1       2.329   8.049  17.647  0.00  0.00    +0.000 C 
ATOM     12  C   UNL     1       2.201   9.045  18.809  0.00  0.00    +0.000 C 
ATOM     13  N   UNL     1       1.360   8.610  19.934  0.00  0.00    +0.000 NA
ATOM     14  C   UNL     1       1.528   7.196  20.296  0.00  0.00    +0.000 C 
ATOM     15  C   UNL     1       1.494   6.236  19.114  0.00  0.00    +0.000 C 
BRANCH  13  16
ATOM     16  C   UNL     1       1.624   9.416  21.153  0.00  0.00    +0.000 C 
BRANCH  16  17
ATOM     17  C   UNL     1       0.486  10.301  21.619  0.00  0.00    +0.000 A 
ATOM     18  C   UNL     1      -0.272   9.956  22.745  0.00  0.00    +0.000 A 
ATOM     19  C   UNL     1      -1.282  10.802  23.203  0.00  0.00    +0.000 A 
ATOM     20  C   UNL     1      -1.550  11.998  22.536  0.00  0.00    +0.000 A 
ATOM     21  C   UNL     1      -0.809  12.349  21.412  0.00  0.00    +0.000 A 
ATOM     22  C   UNL     1       0.205  11.505  20.954  0.00  0.00    +0.000 A 
ENDBRANCH  16  17
ENDBRANCH  13  16
ENDBRANCH   3  10
BRANCH   3  23
ATOM     23  C   UNL     1       5.078   6.827  17.836  0.00  0.00    +0.000 C 
BRANCH  23  24
ATOM     24  C   UNL     1       5.711   6.111  16.652  0.00  0.00    +0.000 A 
ATOM     25  C   UNL     1       5.003   5.800  15.480  0.00  0.00    +0.000 A 
ATOM     26  C   UNL     1       5.562   4.986  14.494  0.00  0.00    +0.000 A 
ATOM     27  C   UNL     1       6.847   4.481  14.657  0.00  0.00    +0.000 A 
ATOM     28  C   UNL     1       7.587   4.822  15.787  0.00  0.00    +0.000 A 
ATOM     29  C   UNL     1       7.027   5.636  16.776  0.00  0.00    +0.000 A 
ENDBRANCH  23  24
ENDBRANCH   3  23
TORSDOF 6
ENDMDL
MODEL 6
REMARK VINA RESULT:      -6.5      3.624     10.218
REMARK  Name = 
REMARK  6 active torsions:
REMARK  status: ('A' for Active; 'I' for Inactive)
REMARK    1  A    between atoms: C_2  and  C_3
REMARK    2  A    between atoms: N_9  and  C_10
REMARK    3  A    between atoms: N_9  and  C_17
REMARK    4  A    between atoms: C_10  and  C_11
REMARK    5  A    between atoms: N_20  and  C_21
REMARK    6  A    between atoms: C_21  and  C_22
REMARK                            x       y       z     vdW  Elec       q    Type
REMARK                         _______ _______ _______ _____ _____    ______ ____
ROOT
ATOM      1  O   UNL     1       0.915  14.274  22.265  0.00  0.00    +0.000 OA
ATOM      2  C   UNL     1       0.242  13.498  21.576  0.00  0.00    +0.000 C 
ATOM      3  N   UNL     1       0.780  12.922  20.397  0.00  0.00    +0.000 N 
ENDROOT
BRANCH   2   4
ATOM      4  C   UNL     1      -1.091  13.168  22.153  0.00  0.00    +0.000 A 
ATOM      5  C   UNL     1      -2.190  13.885  21.635  0.00  0.00    +0.000 A 
ATOM      6  C   UNL     1      -3.496  13.608  22.046  0.00  0.00    +0.000 A 
ATOM      7  C   UNL     1      -3.718  12.616  22.989  0.00  0.00    +0.000 A 
ATOM      8  C   UNL     1      -2.650  11.880  23.493  0.00  0.00    +0.000 A 
ATOM      9  C   UNL     1      -1.345  12.143  23.064  0.00  0.00    +0.000 A 
ENDBRANCH   2   4
BRANCH   3  10
ATOM     10  C   UNL     1       0.096  12.013  19.425  0.00  0.00    +0.000 C 
ATOM     11  C   UNL     1      -0.849  10.930  19.989  0.00  0.00    +0.000 C 
ATOM     12  C   UNL     1      -0.172   9.661  20.529  0.00  0.00    +0.000 C 
ATOM     13  N   UNL     1       0.920   9.120  19.707  0.00  0.00    +0.000 NA
ATOM     14  C   UNL     1       1.804  10.145  19.135  0.00  0.00    +0.000 C 
ATOM     15  C   UNL     1       1.075  11.309  18.476  0.00  0.00    +0.000 C 
BRANCH  13  16
ATOM     16  C   UNL     1       1.769   8.180  20.482  0.00  0.00    +0.000 C 
BRANCH  16  17
ATOM     17  C   UNL     1       1.968   6.810  19.867  0.00  0.00    +0.000 A 
ATOM     18  C   UNL     1       1.642   5.652  20.584  0.00  0.00    +0.000 A 
ATOM     19  C   UNL     1       1.775   4.395  19.994  0.00  0.00    +0.000 A 
ATOM     20  C   UNL     1       2.239   4.282  18.683  0.00  0.00    +0.000 A 
ATOM     21  C   UNL     1       2.571   5.424  17.961  0.00  0.00    +0.000 A 
ATOM     22  C   UNL     1       2.437   6.683  18.550  0.00  0.00    +0.000 A 
ENDBRANCH  16  17
ENDBRANCH  13  16
ENDBRANCH   3  10
BRANCH   3  23
ATOM     23  C   UNL     1       2.210  13.211  20.227  0.00  0.00    +0.000 C 
BRANCH  23  24
ATOM     24  C   UNL     1       2.524  14.281  19.193  0.00  0.00    +0.000 A 
ATOM     25  C   UNL     1       3.707  14.286  18.434  0.00  0.00    +0.000 A 
ATOM     26  C   UNL     1       4.044  15.375  17.630  0.00  0.00    +0.000 A 
ATOM     27  C   UNL     1       3.195  16.475  17.560  0.00  0.00    +0.000 A 
ATOM     28  C   UNL     1       1.991  16.466  18.261  0.00  0.00    +0.000 A 
ATOM     29  C   UNL     1       1.654  15.376  19.068  0.00  0.00    +0.000 A 
ENDBRANCH  23  24
ENDBRANCH   3  23
TORSDOF 6
ENDMDL
MODEL 7
REMARK VINA RESULT:      -6.5      4.346      8.005
REMARK  Name = 
REMARK  6 active torsions:
REMARK  status: ('A' for Active; 'I' for Inactive)
REMARK    1  A    between atoms: C_2  and  C_3
REMARK    2  A    between atoms: N_9  and  C_10
REMARK    3  A    between atoms: N_9  and  C_17
REMARK    4  A    between atoms: C_10  and  C_11
REMARK    5  A    between atoms: N_20  and  C_21
REMARK    6  A    between atoms: C_21  and  C_22
REMARK                            x       y       z     vdW  Elec       q    Type
REMARK                         _______ _______ _______ _____ _____    ______ ____
ROOT
ATOM      1  O   UNL     1      -1.212  10.633  18.948  0.00  0.00    +0.000 OA
ATOM      2  C   UNL     1      -0.010  10.916  19.022  0.00  0.00    +0.000 C 
ATOM      3  N   UNL     1       0.408  12.258  19.211  0.00  0.00    +0.000 N 
ENDROOT
BRANCH   2   4
ATOM      4  C   UNL     1       0.897   9.736  19.001  0.00  0.00    +0.000 A 
ATOM      5  C   UNL     1       1.016   9.018  20.211  0.00  0.00    +0.000 A 
ATOM      6  C   UNL     1       1.778   7.851  20.290  0.00  0.00    +0.000 A 
ATOM      7  C   UNL     1       2.441   7.390  19.163  0.00  0.00    +0.000 A 
ATOM      8  C   UNL     1       2.315   8.069  17.954  0.00  0.00    +0.000 A 
ATOM      9  C   UNL     1       1.533   9.225  17.870  0.00  0.00    +0.000 A 
ENDBRANCH   2   4
BRANCH   3  10
ATOM     10  C   UNL     1       1.808  12.783  19.270  0.00  0.00    +0.000 C 
ATOM     11  C   UNL     1       2.384  13.152  20.653  0.00  0.00    +0.000 C 
ATOM     12  C   UNL     1       1.965  14.520  21.214  0.00  0.00    +0.000 C 
ATOM     13  N   UNL     1       1.976  15.634  20.254  0.00  0.00    +0.000 NA
ATOM     14  C   UNL     1       1.463  15.283  18.923  0.00  0.00    +0.000 C 
ATOM     15  C   UNL     1       2.030  13.991  18.350  0.00  0.00    +0.000 C 
BRANCH  13  16
ATOM     16  C   UNL     1       1.180  16.786  20.750  0.00  0.00    +0.000 C 
BRANCH  16  17
ATOM     17  C   UNL     1      -0.005  16.439  21.627  0.00  0.00    +0.000 A 
ATOM     18  C   UNL     1       0.184  16.028  22.952  0.00  0.00    +0.000 A 
ATOM     19  C   UNL     1      -0.913  15.764  23.773  0.00  0.00    +0.000 A 
ATOM     20  C   UNL     1      -2.209  15.903  23.277  0.00  0.00    +0.000 A 
ATOM     21  C   UNL     1      -2.410  16.305  21.960  0.00  0.00    +0.000 A 
ATOM     22  C   UNL     1      -1.314  16.572  21.137  0.00  0.00    +0.000 A 
ENDBRANCH  16  17
ENDBRANCH  13  16
ENDBRANCH   3  10
BRANCH   3  23
ATOM     23  C   UNL     1      -0.714  13.168  19.474  0.00  0.00    +0.000 C 
BRANCH  23  24
ATOM     24  C   UNL     1      -1.427  12.935  20.797  0.00  0.00    +0.000 A 
ATOM     25  C   UNL     1      -0.764  12.499  21.956  0.00  0.00    +0.000 A 
ATOM     26  C   UNL     1      -1.475  12.123  23.097  0.00  0.00    +0.000 A 
ATOM     27  C   UNL     1      -2.864  12.191  23.102  0.00  0.00    +0.000 A 
ATOM     28  C   UNL     1      -3.538  12.673  21.982  0.00  0.00    +0.000 A 
ATOM     29  C   UNL     1      -2.826  13.048  20.839  0.00  0.00    +0.000 A 
ENDBRANCH  23  24
ENDBRANCH   3  23
TORSDOF 6
ENDMDL
MODEL 8
REMARK VINA RESULT:      -6.4      3.782      7.565
REMARK  Name = 
REMARK  6 active torsions:
REMARK  status: ('A' for Active; 'I' for Inactive)
REMARK    1  A    between atoms: C_2  and  C_3
REMARK    2  A    between atoms: N_9  and  C_10
REMARK    3  A    between atoms: N_9  and  C_17
REMARK    4  A    between atoms: C_10  and  C_11
REMARK    5  A    between atoms: N_20  and  C_21
REMARK    6  A    between atoms: C_21  and  C_22
REMARK                            x       y       z     vdW  Elec       q    Type
REMARK                         _______ _______ _______ _____ _____    ______ ____
ROOT
ATOM      1  O   UNL     1      -1.615   9.144  19.514  0.00  0.00    +0.000 OA
ATOM      2  C   UNL     1      -1.321  10.202  18.943  0.00  0.00    +0.000 C 
ATOM      3  N   UNL     1      -0.129  10.895  19.272  0.00  0.00    +0.000 N 
ENDROOT
BRANCH   2   4
ATOM      4  C   UNL     1      -2.257  10.586  17.851  0.00  0.00    +0.000 A 
ATOM      5  C   UNL     1      -1.964  10.075  16.569  0.00  0.00    +0.000 A 
ATOM      6  C   UNL     1      -2.813  10.306  15.484  0.00  0.00    +0.000 A 
ATOM      7  C   UNL     1      -3.961  11.061  15.665  0.00  0.00    +0.000 A 
ATOM      8  C   UNL     1      -4.282  11.553  16.927  0.00  0.00    +0.000 A 
ATOM      9  C   UNL     1      -3.443  11.301  18.018  0.00  0.00    +0.000 A 
ENDBRANCH   2   4
BRANCH   3  10
ATOM     10  C   UNL     1       0.353  12.202  18.725  0.00  0.00    +0.000 C 
ATOM     11  C   UNL     1       1.612  12.831  19.358  0.00  0.00    +0.000 C 
ATOM     12  C   UNL     1       1.396  13.589  20.676  0.00  0.00    +0.000 C 
ATOM     13  N   UNL     1       0.213  14.462  20.725  0.00  0.00    +0.000 NA
ATOM     14  C   UNL     1      -0.982  13.887  20.093  0.00  0.00    +0.000 C 
ATOM     15  C   UNL     1      -0.737  13.282  18.716  0.00  0.00    +0.000 C 
BRANCH  13  16
ATOM     16  C   UNL     1      -0.147  14.812  22.122  0.00  0.00    +0.000 C 
BRANCH  16  17
ATOM     17  C   UNL     1      -1.259  13.991  22.743  0.00  0.00    +0.000 A 
ATOM     18  C   UNL     1      -2.427  14.608  23.207  0.00  0.00    +0.000 A 
ATOM     19  C   UNL     1      -3.471  13.842  23.727  0.00  0.00    +0.000 A 
ATOM     20  C   UNL     1      -3.356  12.453  23.793  0.00  0.00    +0.000 A 
ATOM     21  C   UNL     1      -2.198  11.829  23.341  0.00  0.00    +0.000 A 
ATOM     22  C   UNL     1      -1.152  12.593  22.818  0.00  0.00    +0.000 A 
ENDBRANCH  16  17
ENDBRANCH  13  16
ENDBRANCH   3  10
BRANCH   3  23
ATOM     23  C   UNL     1       0.734  10.136  20.186  0.00  0.00    +0.000 C 
BRANCH  23  24
ATOM     24  C   UNL     1       1.559   9.043  19.524  0.00  0.00    +0.000 A 
ATOM     25  C   UNL     1       1.993   9.116  18.190  0.00  0.00    +0.000 A 
ATOM     26  C   UNL     1       2.589   8.020  17.564  0.00  0.00    +0.000 A 
ATOM     27  C   UNL     1       2.773   6.835  18.268  0.00  0.00    +0.000 A 
ATOM     28  C   UNL     1       2.400   6.760  19.608  0.00  0.00    +0.000 A 
ATOM     29  C   UNL     1       1.802   7.857  20.234  0.00  0.00    +0.000 A 
ENDBRANCH  23  24
ENDBRANCH   3  23
TORSDOF 6
ENDMDL
MODEL 9
REMARK VINA RESULT:      -6.4      0.277      1.267
REMARK  Name = 
REMARK  6 active torsions:
REMARK  status: ('A' for Active; 'I' for Inactive)
REMARK    1  A    between atoms: C_2  and  C_3
REMARK    2  A    between atoms: N_9  and  C_10
REMARK    3  A    between atoms: N_9  and  C_17
REMARK    4  A    between atoms: C_10  and  C_11
REMARK    5  A    between atoms: N_20  and  C_21
REMARK    6  A    between atoms: C_21  and  C_22
REMARK                            x       y       z     vdW  Elec       q    Type
REMARK                         _______ _______ _______ _____ _____    ______ ____
ROOT
ATOM      1  O   UNL     1       3.005   3.323  16.332  0.00  0.00    +0.000 OA
ATOM      2  C   UNL     1       3.668   4.260  16.794  0.00  0.00    +0.000 C 
ATOM      3  N   UNL     1       3.165   5.045  17.863  0.00  0.00    +0.000 N 
ENDROOT
BRANCH   2   4
ATOM      4  C   UNL     1       5.029   4.393  16.206  0.00  0.00    +0.000 A 
ATOM      5  C   UNL     1       5.094   4.509  14.801  0.00  0.00    +0.000 A 
ATOM      6  C   UNL     1       6.309   4.716  14.145  0.00  0.00    +0.000 A 
ATOM      7  C   UNL     1       7.478   4.798  14.885  0.00  0.00    +0.000 A 
ATOM      8  C   UNL     1       7.434   4.711  16.274  0.00  0.00    +0.000 A 
ATOM      9  C   UNL     1       6.213   4.529  16.931  0.00  0.00    +0.000 A 
ENDBRANCH   2   4
BRANCH   3  10
ATOM     10  C   UNL     1       3.803   6.237  18.504  0.00  0.00    +0.000 C 
ATOM     11  C   UNL     1       3.148   6.810  19.779  0.00  0.00    +0.000 C 
ATOM     12  C   UNL     1       1.929   7.718  19.560  0.00  0.00    +0.000 C 
ATOM     13  N   UNL     1       2.049   8.697  18.470  0.00  0.00    +0.000 NA
ATOM     14  C   UNL     1       2.703   8.172  17.263  0.00  0.00    +0.000 C 
ATOM     15  C   UNL     1       3.993   7.407  17.529  0.00  0.00    +0.000 C 
BRANCH  13  16
ATOM     16  C   UNL     1       0.721   9.222  18.063  0.00  0.00    +0.000 C 
BRANCH  16  17
ATOM     17  C   UNL     1       0.271  10.490  18.760  0.00  0.00    +0.000 A 
ATOM     18  C   UNL     1       1.103  11.616  18.801  0.00  0.00    +0.000 A 
ATOM     19  C   UNL     1       0.662  12.799  19.396  0.00  0.00    +0.000 A 
ATOM     20  C   UNL     1      -0.611  12.866  19.961  0.00  0.00    +0.000 A 
ATOM     21  C   UNL     1      -1.445  11.753  19.933  0.00  0.00    +0.000 A 
ATOM     22  C   UNL     1      -1.007  10.569  19.336  0.00  0.00    +0.000 A 
ENDBRANCH  16  17
ENDBRANCH  13  16
ENDBRANCH   3  10
BRANCH   3  23
ATOM     23  C   UNL     1       1.919   4.508  18.423  0.00  0.00    +0.000 C 
BRANCH  23  24
ATOM     24  C   UNL     1       2.083   3.749  19.731  0.00  0.00    +0.000 A 
ATOM     25  C   UNL     1       3.254   3.050  20.067  0.00  0.00    +0.000 A 
ATOM     26  C   UNL     1       3.303   2.219  21.186  0.00  0.00    +0.000 A 
ATOM     27  C   UNL     1       2.182   2.083  21.999  0.00  0.00    +0.000 A 
ATOM     28  C   UNL     1       1.028   2.810  21.714  0.00  0.00    +0.000 A 
ATOM     29  C   UNL     1       0.979   3.641  20.592  0.00  0.00    +0.000 A 
ENDBRANCH  23  24
ENDBRANCH   3  23
TORSDOF 6
ENDMDL
