MODEL 1
REMARK VINA RESULT:      -8.9      0.000      0.000
REMARK  Name = 
REMARK  9 active torsions:
REMARK  status: ('A' for Active; 'I' for Inactive)
REMARK    1  A    between atoms: C_1  and  O_2
REMARK    2  A    between atoms: O_2  and  C_3
REMARK    3  A    between atoms: C_7  and  C_8
REMARK    4  A    between atoms: C_10  and  N_11
REMARK    5  A    between atoms: C_12  and  C_14
REMARK    6  A    between atoms: C_18  and  C_19
REMARK    7  A    between atoms: C_23  and  C_24
REMARK    8  A    between atoms: C_26  and  C_27
REMARK    9  A    between atoms: C_30  and  C_31
REMARK                            x       y       z     vdW  Elec       q    Type
REMARK                         _______ _______ _______ _____ _____    ______ ____
ROOT
ATOM      1  C   UNL     1       0.483   9.662  20.556  0.00  0.00    +0.000 A 
ATOM      2  C   UNL     1       0.593   8.367  21.282  0.00  0.00    +0.000 A 
ATOM      3  N   UNL     1       1.323   7.347  20.954  0.00  0.00    +0.000 NA
ATOM      4  C   UNL     1       2.042   7.470  19.792  0.00  0.00    +0.000 A 
ATOM      5  C   UNL     1       2.852   6.577  19.109  0.00  0.00    +0.000 A 
ATOM      6  C   UNL     1       3.285   7.294  17.960  0.00  0.00    +0.000 A 
ATOM      7  C   UNL     1       4.141   6.855  16.823  0.00  0.00    +0.000 C 
ATOM      8  N   UNL     1       2.808   8.541  17.939  0.00  0.00    +0.000 NA
ATOM      9  N   UNL     1       2.023   8.649  19.041  0.00  0.00    +0.000 N 
ATOM     10  C   UNL     1       1.240   9.751  19.431  0.00  0.00    +0.000 A 
ATOM     11  C   UNL     1       1.295  10.969  18.540  0.00  0.00    +0.000 C 
ENDROOT
BRANCH   5  12
ATOM     12  C   UNL     1       3.123   5.216  19.553  0.00  0.00    +0.000 A 
ATOM     13  C   UNL     1       4.305   4.550  19.180  0.00  0.00    +0.000 A 
ATOM     14  C   UNL     1       4.555   3.249  19.607  0.00  0.00    +0.000 A 
ATOM     15  C   UNL     1       3.638   2.591  20.426  0.00  0.00    +0.000 A 
ATOM     16  C   UNL     1       2.455   3.228  20.808  0.00  0.00    +0.000 A 
ATOM     17  C   UNL     1       1.446   2.544  21.680  0.00  0.00    +0.000 C 
ATOM     18  C   UNL     1       2.203   4.533  20.359  0.00  0.00    +0.000 A 
ENDBRANCH   5  12
BRANCH   1  20
ATOM     19  N   UNL     1      -0.390  11.211  22.255  0.00  0.00    +0.000 N 
ATOM     20  C   UNL     1      -0.474  10.735  20.956  0.00  0.00    +0.000 C 
ATOM     21  O   UNL     1      -1.304  11.110  20.132  0.00  0.00    +0.000 OA
ATOM     22  H   UNL     1       0.315  10.866  22.896  0.00  0.00    +0.000 HD
BRANCH  19  30
ATOM     23  C   UNL     1      -0.801  13.543  22.853  0.00  0.00    +0.000 A 
ATOM     24  C   UNL     1      -1.643  14.540  23.369  0.00  0.00    +0.000 A 
ATOM     25  C   UNL     1      -2.871  14.211  23.949  0.00  0.00    +0.000 A 
ATOM     26 CL   UNL     1      -3.806  15.495  24.621  0.00  0.00    +0.000 Cl
ATOM     27  C   UNL     1      -3.295  12.883  23.986  0.00  0.00    +0.000 A 
ATOM     28  C   UNL     1      -4.570  12.407  24.617  0.00  0.00    +0.000 C 
ATOM     29  C   UNL     1      -2.475  11.902  23.403  0.00  0.00    +0.000 A 
ATOM     30  C   UNL     1      -1.232  12.203  22.833  0.00  0.00    +0.000 A 
BRANCH  23  32
ATOM     31  C   UNL     1       0.462  14.516  21.118  0.00  0.00    +0.000 C 
ATOM     32  O   UNL     1       0.458  13.809  22.364  0.00  0.00    +0.000 OA
ENDBRANCH  23  32
ENDBRANCH  19  30
ENDBRANCH   1  20
TORSDOF 4
ENDMDL
MODEL 2
REMARK VINA RESULT:      -8.9      2.278      4.416
REMARK  Name = 
REMARK  9 active torsions:
REMARK  status: ('A' for Active; 'I' for Inactive)
REMARK    1  A    between atoms: C_1  and  O_2
REMARK    2  A    between atoms: O_2  and  C_3
REMARK    3  A    between atoms: C_7  and  C_8
REMARK    4  A    between atoms: C_10  and  N_11
REMARK    5  A    between atoms: C_12  and  C_14
REMARK    6  A    between atoms: C_18  and  C_19
REMARK    7  A    between atoms: C_23  and  C_24
REMARK    8  A    between atoms: C_26  and  C_27
REMARK    9  A    between atoms: C_30  and  C_31
REMARK                            x       y       z     vdW  Elec       q    Type
REMARK                         _______ _______ _______ _____ _____    ______ ____
ROOT
ATOM      1  C   UNL     1       1.201  10.225  18.980  0.00  0.00    +0.000 A 
ATOM      2  C   UNL     1       1.987   9.669  17.845  0.00  0.00    +0.000 A 
ATOM      3  N   UNL     1       2.452   8.464  17.732  0.00  0.00    +0.000 NA
ATOM      4  C   UNL     1       2.220   7.627  18.795  0.00  0.00    +0.000 A 
ATOM      5  C   UNL     1       2.623   6.326  19.050  0.00  0.00    +0.000 A 
ATOM      6  C   UNL     1       2.083   6.030  20.331  0.00  0.00    +0.000 A 
ATOM      7  C   UNL     1       2.210   4.802  21.164  0.00  0.00    +0.000 C 
ATOM      8  N   UNL     1       1.378   7.051  20.826  0.00  0.00    +0.000 NA
ATOM      9  N   UNL     1       1.480   8.043  19.905  0.00  0.00    +0.000 N 
ATOM     10  C   UNL     1       0.965   9.350  19.993  0.00  0.00    +0.000 A 
ATOM     11  C   UNL     1       0.185   9.687  21.241  0.00  0.00    +0.000 C 
ENDROOT
BRANCH   5  12
ATOM     12  C   UNL     1       3.436   5.530  18.141  0.00  0.00    +0.000 A 
ATOM     13  C   UNL     1       2.939   4.345  17.568  0.00  0.00    +0.000 A 
ATOM     14  C   UNL     1       3.724   3.589  16.701  0.00  0.00    +0.000 A 
ATOM     15  C   UNL     1       5.014   4.007  16.378  0.00  0.00    +0.000 A 
ATOM     16  C   UNL     1       5.533   5.178  16.935  0.00  0.00    +0.000 A 
ATOM     17  C   UNL     1       6.919   5.648  16.614  0.00  0.00    +0.000 C 
ATOM     18  C   UNL     1       4.742   5.924  17.821  0.00  0.00    +0.000 A 
ENDBRANCH   5  12
BRANCH   1  20
ATOM     19  N   UNL     1       1.730  12.543  19.605  0.00  0.00    +0.000 N 
ATOM     20  C   UNL     1       0.806  11.662  19.065  0.00  0.00    +0.000 C 
ATOM     21  O   UNL     1      -0.320  11.978  18.691  0.00  0.00    +0.000 OA
ATOM     22  H   UNL     1       2.647  12.229  19.898  0.00  0.00    +0.000 HD
BRANCH  19  30
ATOM     23  C   UNL     1       1.030  14.395  21.037  0.00  0.00    +0.000 A 
ATOM     24  C   UNL     1       0.878  15.771  21.264  0.00  0.00    +0.000 A 
ATOM     25  C   UNL     1       1.129  16.697  20.248  0.00  0.00    +0.000 A 
ATOM     26 CL   UNL     1       0.847  18.362  20.599  0.00  0.00    +0.000 Cl
ATOM     27  C   UNL     1       1.574  16.264  19.000  0.00  0.00    +0.000 A 
ATOM     28  C   UNL     1       1.835  17.159  17.824  0.00  0.00    +0.000 C 
ATOM     29  C   UNL     1       1.789  14.889  18.806  0.00  0.00    +0.000 A 
ATOM     30  C   UNL     1       1.528  13.940  19.801  0.00  0.00    +0.000 A 
BRANCH  23  32
ATOM     31  C   UNL     1      -0.706  13.339  22.231  0.00  0.00    +0.000 C 
ATOM     32  O   UNL     1       0.700  13.442  21.974  0.00  0.00    +0.000 OA
ENDBRANCH  23  32
ENDBRANCH  19  30
ENDBRANCH   1  20
TORSDOF 4
ENDMDL
MODEL 3
REMARK VINA RESULT:      -8.6      2.184      3.873
REMARK  Name = 
REMARK  9 active torsions:
REMARK  status: ('A' for Active; 'I' for Inactive)
REMARK    1  A    between atoms: C_1  and  O_2
REMARK    2  A    between atoms: O_2  and  C_3
REMARK    3  A    between atoms: C_7  and  C_8
REMARK    4  A    between atoms: C_10  and  N_11
REMARK    5  A    between atoms: C_12  and  C_14
REMARK    6  A    between atoms: C_18  and  C_19
REMARK    7  A    between atoms: C_23  and  C_24
REMARK    8  A    between atoms: C_26  and  C_27
REMARK    9  A    between atoms: C_30  and  C_31
REMARK                            x       y       z     vdW  Elec       q    Type
REMARK                         _______ _______ _______ _____ _____    ______ ____
ROOT
ATOM      1  C   UNL     1       1.687   8.570  18.959  0.00  0.00    +0.000 A 
ATOM      2  C   UNL     1       2.522   8.603  17.728  0.00  0.00    +0.000 A 
ATOM      3  N   UNL     1       3.345   7.690  17.317  0.00  0.00    +0.000 NA
ATOM      4  C   UNL     1       3.481   6.592  18.129  0.00  0.00    +0.000 A 
ATOM      5  C   UNL     1       4.305   5.481  18.048  0.00  0.00    +0.000 A 
ATOM      6  C   UNL     1       3.991   4.719  19.207  0.00  0.00    +0.000 A 
ATOM      7  C   UNL     1       4.575   3.441  19.701  0.00  0.00    +0.000 C 
ATOM      8  N   UNL     1       3.031   5.291  19.938  0.00  0.00    +0.000 NA
ATOM      9  N   UNL     1       2.733   6.453  19.301  0.00  0.00    +0.000 N 
ATOM     10  C   UNL     1       1.828   7.448  19.714  0.00  0.00    +0.000 A 
ATOM     11  C   UNL     1       1.078   7.190  20.998  0.00  0.00    +0.000 C 
ENDROOT
BRANCH   5  12
ATOM     12  C   UNL     1       5.262   5.250  16.974  0.00  0.00    +0.000 A 
ATOM     13  C   UNL     1       6.613   5.619  17.110  0.00  0.00    +0.000 A 
ATOM     14  C   UNL     1       7.519   5.395  16.077  0.00  0.00    +0.000 A 
ATOM     15  C   UNL     1       7.100   4.787  14.895  0.00  0.00    +0.000 A 
ATOM     16  C   UNL     1       5.764   4.413  14.734  0.00  0.00    +0.000 A 
ATOM     17  C   UNL     1       5.282   3.765  13.472  0.00  0.00    +0.000 C 
ATOM     18  C   UNL     1       4.854   4.657  15.772  0.00  0.00    +0.000 A 
ENDBRANCH   5  12
BRANCH   1  20
ATOM     19  N   UNL     1       1.192  10.330  20.603  0.00  0.00    +0.000 N 
ATOM     20  C   UNL     1       0.852   9.725  19.403  0.00  0.00    +0.000 C 
ATOM     21  O   UNL     1      -0.106  10.051  18.708  0.00  0.00    +0.000 OA
ATOM     22  H   UNL     1       1.995  10.021  21.138  0.00  0.00    +0.000 HD
BRANCH  19  30
ATOM     23  C   UNL     1       1.000  12.725  21.047  0.00  0.00    +0.000 A 
ATOM     24  C   UNL     1       0.300  13.812  21.592  0.00  0.00    +0.000 A 
ATOM     25  C   UNL     1      -0.840  13.610  22.375  0.00  0.00    +0.000 A 
ATOM     26 CL   UNL     1      -1.592  15.002  23.062  0.00  0.00    +0.000 Cl
ATOM     27  C   UNL     1      -1.322  12.320  22.592  0.00  0.00    +0.000 A 
ATOM     28  C   UNL     1      -2.508  11.980  23.445  0.00  0.00    +0.000 C 
ATOM     29  C   UNL     1      -0.653  11.245  21.983  0.00  0.00    +0.000 A 
ATOM     30  C   UNL     1       0.501  11.418  21.210  0.00  0.00    +0.000 A 
BRANCH  23  32
ATOM     31  C   UNL     1       2.020  13.383  19.027  0.00  0.00    +0.000 C 
ATOM     32  O   UNL     1       2.181  12.868  20.355  0.00  0.00    +0.000 OA
ENDBRANCH  23  32
ENDBRANCH  19  30
ENDBRANCH   1  20
TORSDOF 4
ENDMDL
MODEL 4
REMARK VINA RESULT:      -8.6      3.036      4.379
REMARK  Name = 
REMARK  9 active torsions:
REMARK  status: ('A' for Active; 'I' for Inactive)
REMARK    1  A    between atoms: C_1  and  O_2
REMARK    2  A    between atoms: O_2  and  C_3
REMARK    3  A    between atoms: C_7  and  C_8
REMARK    4  A    between atoms: C_10  and  N_11
REMARK    5  A    between atoms: C_12  and  C_14
REMARK    6  A    between atoms: C_18  and  C_19
REMARK    7  A    between atoms: C_23  and  C_24
REMARK    8  A    between atoms: C_26  and  C_27
REMARK    9  A    between atoms: C_30  and  C_31
REMARK                            x       y       z     vdW  Elec       q    Type
REMARK                         _______ _______ _______ _____ _____    ______ ____
ROOT
ATOM      1  C   UNL     1       1.208  10.246  19.067  0.00  0.00    +0.000 A 
ATOM      2  C   UNL     1       2.016   9.728  17.929  0.00  0.00    +0.000 A 
ATOM      3  N   UNL     1       2.498   8.533  17.794  0.00  0.00    +0.000 NA
ATOM      4  C   UNL     1       2.264   7.667  18.833  0.00  0.00    +0.000 A 
ATOM      5  C   UNL     1       2.681   6.366  19.062  0.00  0.00    +0.000 A 
ATOM      6  C   UNL     1       2.127   6.032  20.328  0.00  0.00    +0.000 A 
ATOM      7  C   UNL     1       2.260   4.785  21.133  0.00  0.00    +0.000 C 
ATOM      8  N   UNL     1       1.403   7.031  20.838  0.00  0.00    +0.000 NA
ATOM      9  N   UNL     1       1.504   8.047  19.943  0.00  0.00    +0.000 N 
ATOM     10  C   UNL     1       0.971   9.344  20.055  0.00  0.00    +0.000 A 
ATOM     11  C   UNL     1       0.170   9.640  21.300  0.00  0.00    +0.000 C 
ENDROOT
BRANCH   5  12
ATOM     12  C   UNL     1       3.516   5.602  18.144  0.00  0.00    +0.000 A 
ATOM     13  C   UNL     1       3.059   4.401  17.572  0.00  0.00    +0.000 A 
ATOM     14  C   UNL     1       3.865   3.677  16.698  0.00  0.00    +0.000 A 
ATOM     15  C   UNL     1       5.136   4.143  16.366  0.00  0.00    +0.000 A 
ATOM     16  C   UNL     1       5.615   5.332  16.922  0.00  0.00    +0.000 A 
ATOM     17  C   UNL     1       6.980   5.855  16.591  0.00  0.00    +0.000 C 
ATOM     18  C   UNL     1       4.803   6.046  17.815  0.00  0.00    +0.000 A 
ENDBRANCH   5  12
BRANCH   1  20
ATOM     19  N   UNL     1       1.768  12.593  19.544  0.00  0.00    +0.000 N 
ATOM     20  C   UNL     1       0.793  11.676  19.182  0.00  0.00    +0.000 C 
ATOM     21  O   UNL     1      -0.387  11.956  18.988  0.00  0.00    +0.000 OA
ATOM     22  H   UNL     1       2.728  12.308  19.692  0.00  0.00    +0.000 HD
BRANCH  19  30
ATOM     23  C   UNL     1       2.192  14.632  20.821  0.00  0.00    +0.000 A 
ATOM     24  C   UNL     1       2.044  16.016  20.993  0.00  0.00    +0.000 A 
ATOM     25  C   UNL     1       1.205  16.756  20.156  0.00  0.00    +0.000 A 
ATOM     26 CL   UNL     1       1.030  18.440  20.488  0.00  0.00    +0.000 Cl
ATOM     27  C   UNL     1       0.531  16.131  19.108  0.00  0.00    +0.000 A 
ATOM     28  C   UNL     1      -0.425  16.812  18.174  0.00  0.00    +0.000 C 
ATOM     29  C   UNL     1       0.742  14.757  18.903  0.00  0.00    +0.000 A 
ATOM     30  C   UNL     1       1.563  13.989  19.738  0.00  0.00    +0.000 A 
BRANCH  23  32
ATOM     31  C   UNL     1       4.299  14.243  21.802  0.00  0.00    +0.000 C 
ATOM     32  O   UNL     1       2.928  13.847  21.680  0.00  0.00    +0.000 OA
ENDBRANCH  23  32
ENDBRANCH  19  30
ENDBRANCH   1  20
TORSDOF 4
ENDMDL
MODEL 5
REMARK VINA RESULT:      -8.6      2.686      4.189
REMARK  Name = 
REMARK  9 active torsions:
REMARK  status: ('A' for Active; 'I' for Inactive)
REMARK    1  A    between atoms: C_1  and  O_2
REMARK    2  A    between atoms: O_2  and  C_3
REMARK    3  A    between atoms: C_7  and  C_8
REMARK    4  A    between atoms: C_10  and  N_11
REMARK    5  A    between atoms: C_12  and  C_14
REMARK    6  A    between atoms: C_18  and  C_19
REMARK    7  A    between atoms: C_23  and  C_24
REMARK    8  A    between atoms: C_26  and  C_27
REMARK    9  A    between atoms: C_30  and  C_31
REMARK                            x       y       z     vdW  Elec       q    Type
REMARK                         _______ _______ _______ _____ _____    ______ ____
ROOT
ATOM      1  C   UNL     1       1.180  10.204  18.992  0.00  0.00    +0.000 A 
ATOM      2  C   UNL     1       2.035   9.704  17.881  0.00  0.00    +0.000 A 
ATOM      3  N   UNL     1       2.549   8.520  17.762  0.00  0.00    +0.000 NA
ATOM      4  C   UNL     1       2.302   7.650  18.794  0.00  0.00    +0.000 A 
ATOM      5  C   UNL     1       2.741   6.359  19.037  0.00  0.00    +0.000 A 
ATOM      6  C   UNL     1       2.156   6.012  20.286  0.00  0.00    +0.000 A 
ATOM      7  C   UNL     1       2.292   4.769  21.096  0.00  0.00    +0.000 C 
ATOM      8  N   UNL     1       1.393   6.994  20.771  0.00  0.00    +0.000 NA
ATOM      9  N   UNL     1       1.498   8.012  19.879  0.00  0.00    +0.000 N 
ATOM     10  C   UNL     1       0.932   9.297  19.973  0.00  0.00    +0.000 A 
ATOM     11  C   UNL     1       0.086   9.575  21.192  0.00  0.00    +0.000 C 
ENDROOT
BRANCH   5  12
ATOM     12  C   UNL     1       3.622   5.614  18.147  0.00  0.00    +0.000 A 
ATOM     13  C   UNL     1       3.199   4.421  17.535  0.00  0.00    +0.000 A 
ATOM     14  C   UNL     1       4.049   3.715  16.687  0.00  0.00    +0.000 A 
ATOM     15  C   UNL     1       5.332   4.192  16.423  0.00  0.00    +0.000 A 
ATOM     16  C   UNL     1       5.778   5.374  17.021  0.00  0.00    +0.000 A 
ATOM     17  C   UNL     1       7.154   5.907  16.764  0.00  0.00    +0.000 C 
ATOM     18  C   UNL     1       4.922   6.069  17.887  0.00  0.00    +0.000 A 
ENDBRANCH   5  12
BRANCH   1  20
ATOM     19  N   UNL     1       1.583  12.519  19.716  0.00  0.00    +0.000 N 
ATOM     20  C   UNL     1       0.729  11.624  19.092  0.00  0.00    +0.000 C 
ATOM     21  O   UNL     1      -0.381  11.913  18.654  0.00  0.00    +0.000 OA
ATOM     22  H   UNL     1       2.490  12.227  20.060  0.00  0.00    +0.000 HD
BRANCH  19  30
ATOM     23  C   UNL     1       1.857  14.854  19.053  0.00  0.00    +0.000 A 
ATOM     24  C   UNL     1       1.562  16.214  19.227  0.00  0.00    +0.000 A 
ATOM     25  C   UNL     1       0.813  16.650  20.323  0.00  0.00    +0.000 A 
ATOM     26 CL   UNL     1       0.559  18.348  20.493  0.00  0.00    +0.000 Cl
ATOM     27  C   UNL     1       0.314  15.728  21.242  0.00  0.00    +0.000 A 
ATOM     28  C   UNL     1      -0.465  16.080  22.476  0.00  0.00    +0.000 C 
ATOM     29  C   UNL     1       0.558  14.362  21.019  0.00  0.00    +0.000 A 
ATOM     30  C   UNL     1       1.320  13.901  19.939  0.00  0.00    +0.000 A 
BRANCH  23  32
ATOM     31  C   UNL     1       3.645  15.343  17.598  0.00  0.00    +0.000 C 
ATOM     32  O   UNL     1       2.673  14.390  18.045  0.00  0.00    +0.000 OA
ENDBRANCH  23  32
ENDBRANCH  19  30
ENDBRANCH   1  20
TORSDOF 4
ENDMDL
MODEL 6
REMARK VINA RESULT:      -8.5      2.142      4.142
REMARK  Name = 
REMARK  9 active torsions:
REMARK  status: ('A' for Active; 'I' for Inactive)
REMARK    1  A    between atoms: C_1  and  O_2
REMARK    2  A    between atoms: O_2  and  C_3
REMARK    3  A    between atoms: C_7  and  C_8
REMARK    4  A    between atoms: C_10  and  N_11
REMARK    5  A    between atoms: C_12  and  C_14
REMARK    6  A    between atoms: C_18  and  C_19
REMARK    7  A    between atoms: C_23  and  C_24
REMARK    8  A    between atoms: C_26  and  C_27
REMARK    9  A    between atoms: C_30  and  C_31
REMARK                            x       y       z     vdW  Elec       q    Type
REMARK                         _______ _______ _______ _____ _____    ______ ____
ROOT
ATOM      1  C   UNL     1       1.544   8.898  18.927  0.00  0.00    +0.000 A 
ATOM      2  C   UNL     1       2.552   8.767  17.840  0.00  0.00    +0.000 A 
ATOM      3  N   UNL     1       3.338   7.759  17.621  0.00  0.00    +0.000 NA
ATOM      4  C   UNL     1       3.250   6.721  18.513  0.00  0.00    +0.000 A 
ATOM      5  C   UNL     1       3.969   5.543  18.633  0.00  0.00    +0.000 A 
ATOM      6  C   UNL     1       3.417   4.902  19.776  0.00  0.00    +0.000 A 
ATOM      7  C   UNL     1       3.800   3.623  20.435  0.00  0.00    +0.000 C 
ATOM      8  N   UNL     1       2.417   5.607  20.311  0.00  0.00    +0.000 NA
ATOM      9  N   UNL     1       2.326   6.736  19.562  0.00  0.00    +0.000 N 
ATOM     10  C   UNL     1       1.466   7.831  19.765  0.00  0.00    +0.000 A 
ATOM     11  C   UNL     1       0.514   7.736  20.932  0.00  0.00    +0.000 C 
ENDROOT
BRANCH   5  12
ATOM     12  C   UNL     1       5.049   5.151  17.737  0.00  0.00    +0.000 A 
ATOM     13  C   UNL     1       6.376   5.058  18.194  0.00  0.00    +0.000 A 
ATOM     14  C   UNL     1       7.402   4.683  17.329  0.00  0.00    +0.000 A 
ATOM     15  C   UNL     1       7.122   4.382  15.997  0.00  0.00    +0.000 A 
ATOM     16  C   UNL     1       5.813   4.469  15.518  0.00  0.00    +0.000 A 
ATOM     17  C   UNL     1       5.482   4.160  14.090  0.00  0.00    +0.000 C 
ATOM     18  C   UNL     1       4.788   4.864  16.391  0.00  0.00    +0.000 A 
ENDBRANCH   5  12
BRANCH   1  20
ATOM     19  N   UNL     1       1.332  11.107  19.987  0.00  0.00    +0.000 N 
ATOM     20  C   UNL     1       0.764  10.149  19.162  0.00  0.00    +0.000 C 
ATOM     21  O   UNL     1      -0.347  10.247  18.646  0.00  0.00    +0.000 OA
ATOM     22  H   UNL     1       2.253  10.976  20.387  0.00  0.00    +0.000 HD
BRANCH  19  30
ATOM     23  C   UNL     1       0.077  12.446  21.600  0.00  0.00    +0.000 A 
ATOM     24  C   UNL     1      -0.470  13.673  22.003  0.00  0.00    +0.000 A 
ATOM     25  C   UNL     1      -0.455  14.779  21.149  0.00  0.00    +0.000 A 
ATOM     26 CL   UNL     1      -1.214  16.226  21.702  0.00  0.00    +0.000 Cl
ATOM     27  C   UNL     1       0.144  14.686  19.893  0.00  0.00    +0.000 A 
ATOM     28  C   UNL     1       0.184  15.791  18.878  0.00  0.00    +0.000 C 
ATOM     29  C   UNL     1       0.750  13.472  19.529  0.00  0.00    +0.000 A 
ATOM     30  C   UNL     1       0.733  12.345  20.358  0.00  0.00    +0.000 A 
BRANCH  23  32
ATOM     31  C   UNL     1      -1.266  11.130  23.021  0.00  0.00    +0.000 C 
ATOM     32  O   UNL     1      -0.003  11.305  22.366  0.00  0.00    +0.000 OA
ENDBRANCH  23  32
ENDBRANCH  19  30
ENDBRANCH   1  20
TORSDOF 4
ENDMDL
MODEL 7
REMARK VINA RESULT:      -8.5      2.795      4.725
REMARK  Name = 
REMARK  9 active torsions:
REMARK  status: ('A' for Active; 'I' for Inactive)
REMARK    1  A    between atoms: C_1  and  O_2
REMARK    2  A    between atoms: O_2  and  C_3
REMARK    3  A    between atoms: C_7  and  C_8
REMARK    4  A    between atoms: C_10  and  N_11
REMARK    5  A    between atoms: C_12  and  C_14
REMARK    6  A    between atoms: C_18  and  C_19
REMARK    7  A    between atoms: C_23  and  C_24
REMARK    8  A    between atoms: C_26  and  C_27
REMARK    9  A    between atoms: C_30  and  C_31
REMARK                            x       y       z     vdW  Elec       q    Type
REMARK                         _______ _______ _______ _____ _____    ______ ____
ROOT
ATOM      1  C   UNL     1       2.270   7.417  19.225  0.00  0.00    +0.000 A 
ATOM      2  C   UNL     1       3.167   7.750  18.085  0.00  0.00    +0.000 A 
ATOM      3  N   UNL     1       3.817   6.917  17.333  0.00  0.00    +0.000 NA
ATOM      4  C   UNL     1       3.685   5.589  17.651  0.00  0.00    +0.000 A 
ATOM      5  C   UNL     1       4.277   4.452  17.127  0.00  0.00    +0.000 A 
ATOM      6  C   UNL     1       3.750   3.384  17.904  0.00  0.00    +0.000 A 
ATOM      7  C   UNL     1       4.041   1.924  17.850  0.00  0.00    +0.000 C 
ATOM      8  N   UNL     1       2.880   3.815  18.822  0.00  0.00    +0.000 NA
ATOM      9  N   UNL     1       2.856   5.166  18.694  0.00  0.00    +0.000 N 
ATOM     10  C   UNL     1       2.142   6.088  19.481  0.00  0.00    +0.000 A 
ATOM     11  C   UNL     1       1.281   5.515  20.581  0.00  0.00    +0.000 C 
ENDROOT
BRANCH   5  12
ATOM     12  C   UNL     1       5.231   4.460  16.026  0.00  0.00    +0.000 A 
ATOM     13  C   UNL     1       6.535   4.962  16.196  0.00  0.00    +0.000 A 
ATOM     14  C   UNL     1       7.439   4.968  15.137  0.00  0.00    +0.000 A 
ATOM     15  C   UNL     1       7.066   4.461  13.893  0.00  0.00    +0.000 A 
ATOM     16  C   UNL     1       5.777   3.960  13.697  0.00  0.00    +0.000 A 
ATOM     17  C   UNL     1       5.344   3.417  12.369  0.00  0.00    +0.000 C 
ATOM     18  C   UNL     1       4.867   3.974  14.763  0.00  0.00    +0.000 A 
ENDBRANCH   5  12
BRANCH   1  20
ATOM     19  N   UNL     1       1.041   9.532  19.478  0.00  0.00    +0.000 N 
ATOM     20  C   UNL     1       1.655   8.457  20.102  0.00  0.00    +0.000 C 
ATOM     21  O   UNL     1       1.758   8.326  21.319  0.00  0.00    +0.000 OA
ATOM     22  H   UNL     1       0.984   9.590  18.469  0.00  0.00    +0.000 HD
BRANCH  19  30
ATOM     23  C   UNL     1       0.620  11.934  19.624  0.00  0.00    +0.000 A 
ATOM     24  C   UNL     1      -0.019  13.025  20.230  0.00  0.00    +0.000 A 
ATOM     25  C   UNL     1      -0.772  12.858  21.396  0.00  0.00    +0.000 A 
ATOM     26 CL   UNL     1      -1.462  14.268  22.110  0.00  0.00    +0.000 Cl
ATOM     27  C   UNL     1      -0.931  11.589  21.951  0.00  0.00    +0.000 A 
ATOM     28  C   UNL     1      -1.679  11.294  23.218  0.00  0.00    +0.000 C 
ATOM     29  C   UNL     1      -0.344  10.493  21.295  0.00  0.00    +0.000 A 
ATOM     30  C   UNL     1       0.430  10.636  20.138  0.00  0.00    +0.000 A 
BRANCH  23  32
ATOM     31  C   UNL     1       2.495  13.032  18.712  0.00  0.00    +0.000 C 
ATOM     32  O   UNL     1       1.452  12.066  18.535  0.00  0.00    +0.000 OA
ENDBRANCH  23  32
ENDBRANCH  19  30
ENDBRANCH   1  20
TORSDOF 4
ENDMDL
MODEL 8
REMARK VINA RESULT:      -8.4      0.693      1.179
REMARK  Name = 
REMARK  9 active torsions:
REMARK  status: ('A' for Active; 'I' for Inactive)
REMARK    1  A    between atoms: C_1  and  O_2
REMARK    2  A    between atoms: O_2  and  C_3
REMARK    3  A    between atoms: C_7  and  C_8
REMARK    4  A    between atoms: C_10  and  N_11
REMARK    5  A    between atoms: C_12  and  C_14
REMARK    6  A    between atoms: C_18  and  C_19
REMARK    7  A    between atoms: C_23  and  C_24
REMARK    8  A    between atoms: C_26  and  C_27
REMARK    9  A    between atoms: C_30  and  C_31
REMARK                            x       y       z     vdW  Elec       q    Type
REMARK                         _______ _______ _______ _____ _____    ______ ____
ROOT
ATOM      1  C   UNL     1       0.220   9.825  20.685  0.00  0.00    +0.000 A 
ATOM      2  C   UNL     1       0.167   8.502  21.364  0.00  0.00    +0.000 A 
ATOM      3  N   UNL     1       0.830   7.434  21.047  0.00  0.00    +0.000 NA
ATOM      4  C   UNL     1       1.639   7.532  19.944  0.00  0.00    +0.000 A 
ATOM      5  C   UNL     1       2.418   6.596  19.284  0.00  0.00    +0.000 A 
ATOM      6  C   UNL     1       2.993   7.310  18.198  0.00  0.00    +0.000 A 
ATOM      7  C   UNL     1       3.889   6.837  17.106  0.00  0.00    +0.000 C 
ATOM      8  N   UNL     1       2.626   8.594  18.193  0.00  0.00    +0.000 NA
ATOM      9  N   UNL     1       1.774   8.733  19.241  0.00  0.00    +0.000 N 
ATOM     10  C   UNL     1       1.062   9.886  19.620  0.00  0.00    +0.000 A 
ATOM     11  C   UNL     1       1.285  11.123  18.784  0.00  0.00    +0.000 C 
ENDROOT
BRANCH   5  12
ATOM     12  C   UNL     1       2.539   5.202  19.691  0.00  0.00    +0.000 A 
ATOM     13  C   UNL     1       2.314   4.810  21.023  0.00  0.00    +0.000 A 
ATOM     14  C   UNL     1       2.434   3.476  21.403  0.00  0.00    +0.000 A 
ATOM     15  C   UNL     1       2.767   2.505  20.460  0.00  0.00    +0.000 A 
ATOM     16  C   UNL     1       2.999   2.868  19.131  0.00  0.00    +0.000 A 
ATOM     17  C   UNL     1       3.368   1.849  18.096  0.00  0.00    +0.000 C 
ATOM     18  C   UNL     1       2.893   4.216  18.760  0.00  0.00    +0.000 A 
ENDBRANCH   5  12
BRANCH   1  20
ATOM     19  N   UNL     1      -0.715  11.322  22.398  0.00  0.00    +0.000 N 
ATOM     20  C   UNL     1      -0.669  10.965  21.059  0.00  0.00    +0.000 C 
ATOM     21  O   UNL     1      -1.336  11.496  20.175  0.00  0.00    +0.000 OA
ATOM     22  H   UNL     1      -0.143  10.849  23.087  0.00  0.00    +0.000 HD
BRANCH  19  30
ATOM     23  C   UNL     1      -1.008  13.660  23.040  0.00  0.00    +0.000 A 
ATOM     24  C   UNL     1      -1.812  14.698  23.536  0.00  0.00    +0.000 A 
ATOM     25  C   UNL     1      -3.091  14.437  24.033  0.00  0.00    +0.000 A 
ATOM     26 CL   UNL     1      -3.979  15.764  24.688  0.00  0.00    +0.000 Cl
ATOM     27  C   UNL     1      -3.603  13.140  24.007  0.00  0.00    +0.000 A 
ATOM     28  C   UNL     1      -4.942  12.735  24.549  0.00  0.00    +0.000 C 
ATOM     29  C   UNL     1      -2.815  12.122  23.443  0.00  0.00    +0.000 A 
ATOM     30  C   UNL     1      -1.524  12.353  22.955  0.00  0.00    +0.000 A 
BRANCH  23  32
ATOM     31  C   UNL     1       0.420  14.642  21.443  0.00  0.00    +0.000 C 
ATOM     32  O   UNL     1       0.293  13.853  22.632  0.00  0.00    +0.000 OA
ENDBRANCH  23  32
ENDBRANCH  19  30
ENDBRANCH   1  20
TORSDOF 4
ENDMDL
MODEL 9
REMARK VINA RESULT:      -8.4      2.492      4.281
REMARK  Name = 
REMARK  9 active torsions:
REMARK  status: ('A' for Active; 'I' for Inactive)
REMARK    1  A    between atoms: C_1  and  O_2
REMARK    2  A    between atoms: O_2  and  C_3
REMARK    3  A    between atoms: C_7  and  C_8
REMARK    4  A    between atoms: C_10  and  N_11
REMARK    5  A    between atoms: C_12  and  C_14
REMARK    6  A    between atoms: C_18  and  C_19
REMARK    7  A    between atoms: C_23  and  C_24
REMARK    8  A    between atoms: C_26  and  C_27
REMARK    9  A    between atoms: C_30  and  C_31
REMARK                            x       y       z     vdW  Elec       q    Type
REMARK                         _______ _______ _______ _____ _____    ______ ____
ROOT
ATOM      1  C   UNL     1       1.857   8.696  18.966  0.00  0.00    +0.000 A 
ATOM      2  C   UNL     1       2.749   8.606  17.778  0.00  0.00    +0.000 A 
ATOM      3  N   UNL     1       3.497   7.603  17.436  0.00  0.00    +0.000 NA
ATOM      4  C   UNL     1       3.485   6.526  18.286  0.00  0.00    +0.000 A 
ATOM      5  C   UNL     1       4.198   5.338  18.280  0.00  0.00    +0.000 A 
ATOM      6  C   UNL     1       3.754   4.650  19.443  0.00  0.00    +0.000 A 
ATOM      7  C   UNL     1       4.185   3.339  20.003  0.00  0.00    +0.000 C 
ATOM      8  N   UNL     1       2.822   5.338  20.107  0.00  0.00    +0.000 NA
ATOM      9  N   UNL     1       2.671   6.500  19.422  0.00  0.00    +0.000 N 
ATOM     10  C   UNL     1       1.850   7.592  19.759  0.00  0.00    +0.000 A 
ATOM     11  C   UNL     1       1.018   7.453  21.011  0.00  0.00    +0.000 C 
ENDROOT
BRANCH   5  12
ATOM     12  C   UNL     1       5.177   4.978  17.264  0.00  0.00    +0.000 A 
ATOM     13  C   UNL     1       6.552   4.937  17.559  0.00  0.00    +0.000 A 
ATOM     14  C   UNL     1       7.481   4.593  16.580  0.00  0.00    +0.000 A 
ATOM     15  C   UNL     1       7.056   4.270  15.293  0.00  0.00    +0.000 A 
ATOM     16  C   UNL     1       5.697   4.306  14.972  0.00  0.00    +0.000 A 
ATOM     17  C   UNL     1       5.210   3.972  13.594  0.00  0.00    +0.000 C 
ATOM     18  C   UNL     1       4.769   4.670  15.959  0.00  0.00    +0.000 A 
ENDBRANCH   5  12
BRANCH   1  20
ATOM     19  N   UNL     1      -0.213   9.809  19.689  0.00  0.00    +0.000 N 
ATOM     20  C   UNL     1       1.120   9.942  19.333  0.00  0.00    +0.000 C 
ATOM     21  O   UNL     1       1.718  11.012  19.263  0.00  0.00    +0.000 OA
ATOM     22  H   UNL     1      -0.657   8.900  19.731  0.00  0.00    +0.000 HD
BRANCH  19  30
ATOM     23  C   UNL     1      -2.041  11.318  19.098  0.00  0.00    +0.000 A 
ATOM     24  C   UNL     1      -2.946  12.331  19.445  0.00  0.00    +0.000 A 
ATOM     25  C   UNL     1      -2.861  12.976  20.682  0.00  0.00    +0.000 A 
ATOM     26 CL   UNL     1      -3.972  14.258  20.993  0.00  0.00    +0.000 Cl
ATOM     27  C   UNL     1      -1.892  12.590  21.608  0.00  0.00    +0.000 A 
ATOM     28  C   UNL     1      -1.679  13.235  22.946  0.00  0.00    +0.000 C 
ATOM     29  C   UNL     1      -1.036  11.527  21.276  0.00  0.00    +0.000 A 
ATOM     30  C   UNL     1      -1.089  10.877  20.037  0.00  0.00    +0.000 A 
BRANCH  23  32
ATOM     31  C   UNL     1      -3.158   9.889  17.594  0.00  0.00    +0.000 C 
ATOM     32  O   UNL     1      -2.024  10.725  17.856  0.00  0.00    +0.000 OA
ENDBRANCH  23  32
ENDBRANCH  19  30
ENDBRANCH   1  20
TORSDOF 4
ENDMDL
