MODEL 1
REMARK VINA RESULT:      -7.6      0.000      0.000
REMARK  Name = 
REMARK  7 active torsions:
REMARK  status: ('A' for Active; 'I' for Inactive)
REMARK    1  A    between atoms: C_1  and  C_2
REMARK    2  A    between atoms: C_2  and  C_3
REMARK    3  A    between atoms: C_2  and  N_20
REMARK    4  A    between atoms: C_3  and  C_4
REMARK    5  A    between atoms: C_4  and  N_5
REMARK    6  A    between atoms: C_6  and  C_8
REMARK    7  A    between atoms: C_8  and  N_9
REMARK                            x       y       z     vdW  Elec       q    Type
REMARK                         _______ _______ _______ _____ _____    ______ ____
ROOT
ATOM      1  N   UNL     1       5.080   5.263  19.572  0.00  0.00    +0.000 N 
ATOM      2  C   UNL     1       3.955   4.658  19.050  0.00  0.00    +0.000 C 
ATOM      3  O   UNL     1       4.057   3.764  18.202  0.00  0.00    +0.000 OA
ATOM      4  H   UNL     1       4.962   5.694  20.493  0.00  0.00    +0.000 HD
ENDROOT
BRANCH   2   5
ATOM      5  C   UNL     1       2.568   5.166  19.589  0.00  0.00    +0.000 C 
ATOM      6  C   UNL     1       1.463   4.491  18.717  0.00  0.00    +0.000 C 
ATOM      7  C   UNL     1       1.431   2.967  18.877  0.00  0.00    +0.000 C 
ATOM      8  C   UNL     1       1.219   2.577  20.336  0.00  0.00    +0.000 C 
ATOM      9  C   UNL     1       2.285   3.179  21.236  0.00  0.00    +0.000 C 
ATOM     10  C   UNL     1       2.389   4.697  21.065  0.00  0.00    +0.000 C 
BRANCH   5  11
ATOM     11  N   UNL     1       2.544   6.679  19.448  0.00  0.00    +0.000 NA
ATOM     12  C   UNL     1       2.331   7.134  18.054  0.00  0.00    +0.000 C 
ATOM     13  C   UNL     1       2.348   8.659  17.918  0.00  0.00    +0.000 C 
ATOM     14  C   UNL     1       1.321   9.308  18.831  0.00  0.00    +0.000 C 
ATOM     15  C   UNL     1       1.522   8.822  20.257  0.00  0.00    +0.000 C 
ATOM     16  C   UNL     1       1.516   7.293  20.324  0.00  0.00    +0.000 C 
ENDBRANCH   5  11
ENDBRANCH   2   5
BRANCH   1  17
ATOM     17  C   UNL     1       6.394   4.823  19.158  0.00  0.00    +0.000 C 
BRANCH  17  18
ATOM     18  C   UNL     1       7.420   5.960  19.108  0.00  0.00    +0.000 C 
BRANCH  18  20
ATOM     19  C   UNL     1       7.632   7.990  17.581  0.00  0.00    +0.000 C 
ATOM     20  C   UNL     1       7.711   6.457  17.667  0.00  0.00    +0.000 C 
BRANCH  20  21
ATOM     21  N   UNL     1       6.859   5.792  16.676  0.00  0.00    +0.000 N 
ATOM     22  C   UNL     1       5.678   6.258  16.165  0.00  0.00    +0.000 A 
ATOM     23  C   UNL     1       5.267   5.314  15.264  0.00  0.00    +0.000 A 
ATOM     24  N   UNL     1       6.138   4.265  15.226  0.00  0.00    +0.000 NA
ATOM     25  C   UNL     1       7.085   4.573  16.095  0.00  0.00    +0.000 A 
ENDBRANCH  20  21
ENDBRANCH  18  20
ENDBRANCH  17  18
ENDBRANCH   1  17
TORSDOF 6
ENDMDL
MODEL 2
REMARK VINA RESULT:      -7.5      2.450      6.564
REMARK  Name = 
REMARK  7 active torsions:
REMARK  status: ('A' for Active; 'I' for Inactive)
REMARK    1  A    between atoms: C_1  and  C_2
REMARK    2  A    between atoms: C_2  and  C_3
REMARK    3  A    between atoms: C_2  and  N_20
REMARK    4  A    between atoms: C_3  and  C_4
REMARK    5  A    between atoms: C_4  and  N_5
REMARK    6  A    between atoms: C_6  and  C_8
REMARK    7  A    between atoms: C_8  and  N_9
REMARK                            x       y       z     vdW  Elec       q    Type
REMARK                         _______ _______ _______ _____ _____    ______ ____
ROOT
ATOM      1  N   UNL     1       2.389   6.981  20.047  0.00  0.00    +0.000 N 
ATOM      2  C   UNL     1       2.645   6.498  18.781  0.00  0.00    +0.000 C 
ATOM      3  O   UNL     1       2.305   7.140  17.781  0.00  0.00    +0.000 OA
ATOM      4  H   UNL     1       2.997   6.622  20.788  0.00  0.00    +0.000 HD
ENDROOT
BRANCH   2   5
ATOM      5  C   UNL     1       3.380   5.110  18.691  0.00  0.00    +0.000 C 
ATOM      6  C   UNL     1       3.320   4.468  20.113  0.00  0.00    +0.000 C 
ATOM      7  C   UNL     1       1.889   4.144  20.557  0.00  0.00    +0.000 C 
ATOM      8  C   UNL     1       1.208   3.212  19.561  0.00  0.00    +0.000 C 
ATOM      9  C   UNL     1       1.205   3.796  18.159  0.00  0.00    +0.000 C 
ATOM     10  C   UNL     1       2.612   4.186  17.698  0.00  0.00    +0.000 C 
BRANCH   5  11
ATOM     11  N   UNL     1       4.812   5.374  18.258  0.00  0.00    +0.000 NA
ATOM     12  C   UNL     1       5.792   5.244  19.362  0.00  0.00    +0.000 C 
ATOM     13  C   UNL     1       7.226   5.551  18.923  0.00  0.00    +0.000 C 
ATOM     14  C   UNL     1       7.649   4.671  17.758  0.00  0.00    +0.000 C 
ATOM     15  C   UNL     1       6.631   4.784  16.634  0.00  0.00    +0.000 C 
ATOM     16  C   UNL     1       5.218   4.487  17.140  0.00  0.00    +0.000 C 
ENDBRANCH   5  11
ENDBRANCH   2   5
BRANCH   1  17
ATOM     17  C   UNL     1       1.754   8.269  20.214  0.00  0.00    +0.000 C 
BRANCH  17  18
ATOM     18  C   UNL     1       0.796   8.317  21.409  0.00  0.00    +0.000 C 
BRANCH  18  20
ATOM     19  C   UNL     1      -0.329   9.736  23.203  0.00  0.00    +0.000 C 
ATOM     20  C   UNL     1       0.667   9.733  22.032  0.00  0.00    +0.000 C 
BRANCH  20  21
ATOM     21  N   UNL     1       0.352  10.749  21.022  0.00  0.00    +0.000 N 
ATOM     22  C   UNL     1       1.096  11.855  20.711  0.00  0.00    +0.000 A 
ATOM     23  C   UNL     1       0.420  12.483  19.701  0.00  0.00    +0.000 A 
ATOM     24  N   UNL     1      -0.734  11.820  19.401  0.00  0.00    +0.000 NA
ATOM     25  C   UNL     1      -0.756  10.782  20.219  0.00  0.00    +0.000 A 
ENDBRANCH  20  21
ENDBRANCH  18  20
ENDBRANCH  17  18
ENDBRANCH   1  17
TORSDOF 6
ENDMDL
MODEL 3
REMARK VINA RESULT:      -7.5      1.116      2.127
REMARK  Name = 
REMARK  7 active torsions:
REMARK  status: ('A' for Active; 'I' for Inactive)
REMARK    1  A    between atoms: C_1  and  C_2
REMARK    2  A    between atoms: C_2  and  C_3
REMARK    3  A    between atoms: C_2  and  N_20
REMARK    4  A    between atoms: C_3  and  C_4
REMARK    5  A    between atoms: C_4  and  N_5
REMARK    6  A    between atoms: C_6  and  C_8
REMARK    7  A    between atoms: C_8  and  N_9
REMARK                            x       y       z     vdW  Elec       q    Type
REMARK                         _______ _______ _______ _____ _____    ______ ____
ROOT
ATOM      1  N   UNL     1       3.660   4.212  17.644  0.00  0.00    +0.000 N 
ATOM      2  C   UNL     1       3.782   4.452  18.998  0.00  0.00    +0.000 C 
ATOM      3  O   UNL     1       4.847   4.228  19.584  0.00  0.00    +0.000 OA
ATOM      4  H   UNL     1       2.931   4.746  17.165  0.00  0.00    +0.000 HD
ENDROOT
BRANCH   2   5
ATOM      5  C   UNL     1       2.509   5.016  19.730  0.00  0.00    +0.000 C 
ATOM      6  C   UNL     1       1.263   4.385  19.032  0.00  0.00    +0.000 C 
ATOM      7  C   UNL     1       1.194   2.864  19.205  0.00  0.00    +0.000 C 
ATOM      8  C   UNL     1       1.181   2.483  20.681  0.00  0.00    +0.000 C 
ATOM      9  C   UNL     1       2.390   3.042  21.413  0.00  0.00    +0.000 C 
ATOM     10  C   UNL     1       2.529   4.554  21.219  0.00  0.00    +0.000 C 
BRANCH   5  11
ATOM     11  N   UNL     1       2.525   6.528  19.585  0.00  0.00    +0.000 NA
ATOM     12  C   UNL     1       2.310   6.985  18.192  0.00  0.00    +0.000 C 
ATOM     13  C   UNL     1       2.368   8.508  18.050  0.00  0.00    +0.000 C 
ATOM     14  C   UNL     1       1.368   9.188  18.972  0.00  0.00    +0.000 C 
ATOM     15  C   UNL     1       1.570   8.701  20.397  0.00  0.00    +0.000 C 
ATOM     16  C   UNL     1       1.523   7.173  20.469  0.00  0.00    +0.000 C 
ENDBRANCH   5  11
ENDBRANCH   2   5
BRANCH   1  17
ATOM     17  C   UNL     1       4.798   3.733  16.891  0.00  0.00    +0.000 C 
BRANCH  17  18
ATOM     18  C   UNL     1       4.974   4.448  15.548  0.00  0.00    +0.000 C 
BRANCH  18  20
ATOM     19  C   UNL     1       7.220   4.812  14.397  0.00  0.00    +0.000 C 
ATOM     20  C   UNL     1       6.256   5.320  15.482  0.00  0.00    +0.000 C 
BRANCH  20  21
ATOM     21  N   UNL     1       6.900   5.445  16.794  0.00  0.00    +0.000 N 
ATOM     22  C   UNL     1       6.911   6.551  17.601  0.00  0.00    +0.000 A 
ATOM     23  C   UNL     1       7.608   6.185  18.720  0.00  0.00    +0.000 A 
ATOM     24  N   UNL     1       8.057   4.901  18.616  0.00  0.00    +0.000 NA
ATOM     25  C   UNL     1       7.625   4.480  17.441  0.00  0.00    +0.000 A 
ENDBRANCH  20  21
ENDBRANCH  18  20
ENDBRANCH  17  18
ENDBRANCH   1  17
TORSDOF 6
ENDMDL
MODEL 4
REMARK VINA RESULT:      -7.4      2.213      6.387
REMARK  Name = 
REMARK  7 active torsions:
REMARK  status: ('A' for Active; 'I' for Inactive)
REMARK    1  A    between atoms: C_1  and  C_2
REMARK    2  A    between atoms: C_2  and  C_3
REMARK    3  A    between atoms: C_2  and  N_20
REMARK    4  A    between atoms: C_3  and  C_4
REMARK    5  A    between atoms: C_4  and  N_5
REMARK    6  A    between atoms: C_6  and  C_8
REMARK    7  A    between atoms: C_8  and  N_9
REMARK                            x       y       z     vdW  Elec       q    Type
REMARK                         _______ _______ _______ _____ _____    ______ ____
ROOT
ATOM      1  N   UNL     1       3.992   5.330  17.371  0.00  0.00    +0.000 N 
ATOM      2  C   UNL     1       4.862   6.205  16.752  0.00  0.00    +0.000 C 
ATOM      3  O   UNL     1       4.546   7.386  16.571  0.00  0.00    +0.000 OA
ATOM      4  H   UNL     1       4.426   4.518  17.816  0.00  0.00    +0.000 HD
ENDROOT
BRANCH   2   5
ATOM      5  C   UNL     1       6.250   5.617  16.302  0.00  0.00    +0.000 C 
ATOM      6  C   UNL     1       7.325   6.713  16.586  0.00  0.00    +0.000 C 
ATOM      7  C   UNL     1       7.476   7.021  18.080  0.00  0.00    +0.000 C 
ATOM      8  C   UNL     1       7.832   5.762  18.863  0.00  0.00    +0.000 C 
ATOM      9  C   UNL     1       6.804   4.664  18.653  0.00  0.00    +0.000 C 
ATOM     10  C   UNL     1       6.580   4.363  17.169  0.00  0.00    +0.000 C 
BRANCH   5  11
ATOM     11  N   UNL     1       6.157   5.297  14.820  0.00  0.00    +0.000 NA
ATOM     12  C   UNL     1       7.478   5.211  14.155  0.00  0.00    +0.000 C 
ATOM     13  C   UNL     1       7.371   4.927  12.654  0.00  0.00    +0.000 C 
ATOM     14  C   UNL     1       6.579   3.658  12.386  0.00  0.00    +0.000 C 
ATOM     15  C   UNL     1       5.233   3.734  13.089  0.00  0.00    +0.000 C 
ATOM     16  C   UNL     1       5.407   4.040  14.578  0.00  0.00    +0.000 C 
ENDBRANCH   5  11
ENDBRANCH   2   5
BRANCH   1  17
ATOM     17  C   UNL     1       2.713   5.804  17.851  0.00  0.00    +0.000 C 
BRANCH  17  18
ATOM     18  C   UNL     1       1.616   4.737  17.791  0.00  0.00    +0.000 C 
BRANCH  18  20
ATOM     19  C   UNL     1       1.418   4.740  20.333  0.00  0.00    +0.000 C 
ATOM     20  C   UNL     1       1.538   3.866  19.073  0.00  0.00    +0.000 C 
BRANCH  20  21
ATOM     21  N   UNL     1       2.649   2.912  19.155  0.00  0.00    +0.000 N 
ATOM     22  C   UNL     1       3.638   2.882  20.101  0.00  0.00    +0.000 A 
ATOM     23  C   UNL     1       4.423   1.808  19.781  0.00  0.00    +0.000 A 
ATOM     24  N   UNL     1       3.972   1.194  18.649  0.00  0.00    +0.000 NA
ATOM     25  C   UNL     1       2.905   1.885  18.286  0.00  0.00    +0.000 A 
ENDBRANCH  20  21
ENDBRANCH  18  20
ENDBRANCH  17  18
ENDBRANCH   1  17
TORSDOF 6
ENDMDL
MODEL 5
REMARK VINA RESULT:      -7.3      2.344      6.133
REMARK  Name = 
REMARK  7 active torsions:
REMARK  status: ('A' for Active; 'I' for Inactive)
REMARK    1  A    between atoms: C_1  and  C_2
REMARK    2  A    between atoms: C_2  and  C_3
REMARK    3  A    between atoms: C_2  and  N_20
REMARK    4  A    between atoms: C_3  and  C_4
REMARK    5  A    between atoms: C_4  and  N_5
REMARK    6  A    between atoms: C_6  and  C_8
REMARK    7  A    between atoms: C_8  and  N_9
REMARK                            x       y       z     vdW  Elec       q    Type
REMARK                         _______ _______ _______ _____ _____    ______ ____
ROOT
ATOM      1  N   UNL     1       2.310   7.020  19.853  0.00  0.00    +0.000 N 
ATOM      2  C   UNL     1       2.563   5.686  20.097  0.00  0.00    +0.000 C 
ATOM      3  O   UNL     1       2.128   5.138  21.116  0.00  0.00    +0.000 OA
ATOM      4  H   UNL     1       2.358   7.306  18.872  0.00  0.00    +0.000 HD
ENDROOT
BRANCH   2   5
ATOM      5  C   UNL     1       3.421   4.923  19.022  0.00  0.00    +0.000 C 
ATOM      6  C   UNL     1       3.698   3.494  19.587  0.00  0.00    +0.000 C 
ATOM      7  C   UNL     1       2.420   2.665  19.754  0.00  0.00    +0.000 C 
ATOM      8  C   UNL     1       1.675   2.539  18.430  0.00  0.00    +0.000 C 
ATOM      9  C   UNL     1       1.347   3.900  17.841  0.00  0.00    +0.000 C 
ATOM     10  C   UNL     1       2.590   4.784  17.709  0.00  0.00    +0.000 C 
BRANCH   5  11
ATOM     11  N   UNL     1       4.708   5.704  18.820  0.00  0.00    +0.000 NA
ATOM     12  C   UNL     1       5.919   4.952  19.226  0.00  0.00    +0.000 C 
ATOM     13  C   UNL     1       7.207   5.763  19.056  0.00  0.00    +0.000 C 
ATOM     14  C   UNL     1       7.366   6.256  17.627  0.00  0.00    +0.000 C 
ATOM     15  C   UNL     1       6.114   7.005  17.200  0.00  0.00    +0.000 C 
ATOM     16  C   UNL     1       4.862   6.151  17.414  0.00  0.00    +0.000 C 
ENDBRANCH   5  11
ENDBRANCH   2   5
BRANCH   1  17
ATOM     17  C   UNL     1       1.494   7.780  20.773  0.00  0.00    +0.000 C 
BRANCH  17  18
ATOM     18  C   UNL     1       1.297   9.236  20.340  0.00  0.00    +0.000 C 
BRANCH  18  20
ATOM     19  C   UNL     1       1.904   9.846  17.940  0.00  0.00    +0.000 C 
ATOM     20  C   UNL     1       0.784   9.376  18.882  0.00  0.00    +0.000 C 
BRANCH  20  21
ATOM     21  N   UNL     1      -0.412  10.222  18.801  0.00  0.00    +0.000 N 
ATOM     22  C   UNL     1      -0.823  11.152  19.717  0.00  0.00    +0.000 A 
ATOM     23  C   UNL     1      -1.965  11.700  19.200  0.00  0.00    +0.000 A 
ATOM     24  N   UNL     1      -2.292  11.115  18.011  0.00  0.00    +0.000 NA
ATOM     25  C   UNL     1      -1.344  10.220  17.797  0.00  0.00    +0.000 A 
ENDBRANCH  20  21
ENDBRANCH  18  20
ENDBRANCH  17  18
ENDBRANCH   1  17
TORSDOF 6
ENDMDL
MODEL 6
REMARK VINA RESULT:      -7.3      2.688      6.728
REMARK  Name = 
REMARK  7 active torsions:
REMARK  status: ('A' for Active; 'I' for Inactive)
REMARK    1  A    between atoms: C_1  and  C_2
REMARK    2  A    between atoms: C_2  and  C_3
REMARK    3  A    between atoms: C_2  and  N_20
REMARK    4  A    between atoms: C_3  and  C_4
REMARK    5  A    between atoms: C_4  and  N_5
REMARK    6  A    between atoms: C_6  and  C_8
REMARK    7  A    between atoms: C_8  and  N_9
REMARK                            x       y       z     vdW  Elec       q    Type
REMARK                         _______ _______ _______ _____ _____    ______ ____
ROOT
ATOM      1  N   UNL     1       2.377   7.014  19.939  0.00  0.00    +0.000 N 
ATOM      2  C   UNL     1       2.558   5.659  20.131  0.00  0.00    +0.000 C 
ATOM      3  O   UNL     1       2.071   5.091  21.115  0.00  0.00    +0.000 OA
ATOM      4  H   UNL     1       2.464   7.338  18.973  0.00  0.00    +0.000 HD
ENDROOT
BRANCH   2   5
ATOM      5  C   UNL     1       3.403   4.901  19.043  0.00  0.00    +0.000 C 
ATOM      6  C   UNL     1       3.685   3.469  19.598  0.00  0.00    +0.000 C 
ATOM      7  C   UNL     1       2.408   2.640  19.775  0.00  0.00    +0.000 C 
ATOM      8  C   UNL     1       1.649   2.521  18.458  0.00  0.00    +0.000 C 
ATOM      9  C   UNL     1       1.315   3.886  17.879  0.00  0.00    +0.000 C 
ATOM     10  C   UNL     1       2.558   4.768  17.739  0.00  0.00    +0.000 C 
BRANCH   5  11
ATOM     11  N   UNL     1       4.689   5.681  18.831  0.00  0.00    +0.000 NA
ATOM     12  C   UNL     1       5.903   4.927  19.222  0.00  0.00    +0.000 C 
ATOM     13  C   UNL     1       7.190   5.737  19.042  0.00  0.00    +0.000 C 
ATOM     14  C   UNL     1       7.335   6.235  17.613  0.00  0.00    +0.000 C 
ATOM     15  C   UNL     1       6.080   6.987  17.201  0.00  0.00    +0.000 C 
ATOM     16  C   UNL     1       4.829   6.134  17.425  0.00  0.00    +0.000 C 
ENDBRANCH   5  11
ENDBRANCH   2   5
BRANCH   1  17
ATOM     17  C   UNL     1       1.577   7.774  20.874  0.00  0.00    +0.000 C 
BRANCH  17  18
ATOM     18  C   UNL     1       0.993   9.053  20.264  0.00  0.00    +0.000 C 
BRANCH  18  20
ATOM     19  C   UNL     1      -0.087   9.261  22.564  0.00  0.00    +0.000 C 
ATOM     20  C   UNL     1       0.407  10.023  21.323  0.00  0.00    +0.000 C 
BRANCH  20  21
ATOM     21  N   UNL     1      -0.622  10.899  20.754  0.00  0.00    +0.000 N 
ATOM     22  C   UNL     1      -1.042  10.933  19.451  0.00  0.00    +0.000 A 
ATOM     23  C   UNL     1      -2.026  11.883  19.405  0.00  0.00    +0.000 A 
ATOM     24  N   UNL     1      -2.203  12.461  20.628  0.00  0.00    +0.000 NA
ATOM     25  C   UNL     1      -1.338  11.856  21.423  0.00  0.00    +0.000 A 
ENDBRANCH  20  21
ENDBRANCH  18  20
ENDBRANCH  17  18
ENDBRANCH   1  17
TORSDOF 6
ENDMDL
MODEL 7
REMARK VINA RESULT:      -7.3      0.759      1.036
REMARK  Name = 
REMARK  7 active torsions:
REMARK  status: ('A' for Active; 'I' for Inactive)
REMARK    1  A    between atoms: C_1  and  C_2
REMARK    2  A    between atoms: C_2  and  C_3
REMARK    3  A    between atoms: C_2  and  N_20
REMARK    4  A    between atoms: C_3  and  C_4
REMARK    5  A    between atoms: C_4  and  N_5
REMARK    6  A    between atoms: C_6  and  C_8
REMARK    7  A    between atoms: C_8  and  N_9
REMARK                            x       y       z     vdW  Elec       q    Type
REMARK                         _______ _______ _______ _____ _____    ______ ____
ROOT
ATOM      1  N   UNL     1       4.759   5.190  19.029  0.00  0.00    +0.000 N 
ATOM      2  C   UNL     1       3.761   4.399  19.559  0.00  0.00    +0.000 C 
ATOM      3  O   UNL     1       4.028   3.312  20.082  0.00  0.00    +0.000 OA
ATOM      4  H   UNL     1       4.545   6.188  18.964  0.00  0.00    +0.000 HD
ENDROOT
BRANCH   2   5
ATOM      5  C   UNL     1       2.293   4.957  19.459  0.00  0.00    +0.000 C 
ATOM      6  C   UNL     1       1.719   4.491  18.084  0.00  0.00    +0.000 C 
ATOM      7  C   UNL     1       1.585   2.968  17.984  0.00  0.00    +0.000 C 
ATOM      8  C   UNL     1       0.701   2.424  19.101  0.00  0.00    +0.000 C 
ATOM      9  C   UNL     1       1.226   2.818  20.471  0.00  0.00    +0.000 C 
ATOM     10  C   UNL     1       1.428   4.330  20.595  0.00  0.00    +0.000 C 
BRANCH   5  11
ATOM     11  N   UNL     1       2.369   6.472  19.548  0.00  0.00    +0.000 NA
ATOM     12  C   UNL     1       2.094   7.149  18.259  0.00  0.00    +0.000 C 
ATOM     13  C   UNL     1       2.212   8.673  18.352  0.00  0.00    +0.000 C 
ATOM     14  C   UNL     1       1.299   9.235  19.430  0.00  0.00    +0.000 C 
ATOM     15  C   UNL     1       1.562   8.523  20.747  0.00  0.00    +0.000 C 
ATOM     16  C   UNL     1       1.450   7.005  20.584  0.00  0.00    +0.000 C 
ENDBRANCH   5  11
ENDBRANCH   2   5
BRANCH   1  17
ATOM     17  C   UNL     1       6.139   4.766  19.119  0.00  0.00    +0.000 C 
BRANCH  17  18
ATOM     18  C   UNL     1       7.127   5.937  19.146  0.00  0.00    +0.000 C 
BRANCH  18  20
ATOM     19  C   UNL     1       7.669   7.860  17.561  0.00  0.00    +0.000 C 
ATOM     20  C   UNL     1       7.644   6.332  17.737  0.00  0.00    +0.000 C 
BRANCH  20  21
ATOM     21  N   UNL     1       6.899   5.655  16.670  0.00  0.00    +0.000 N 
ATOM     22  C   UNL     1       7.189   4.440  16.111  0.00  0.00    +0.000 A 
ATOM     23  C   UNL     1       6.208   4.217  15.184  0.00  0.00    +0.000 A 
ATOM     24  N   UNL     1       5.341   5.269  15.129  0.00  0.00    +0.000 NA
ATOM     25  C   UNL     1       5.786   6.128  16.029  0.00  0.00    +0.000 A 
ENDBRANCH  20  21
ENDBRANCH  18  20
ENDBRANCH  17  18
ENDBRANCH   1  17
TORSDOF 6
ENDMDL
MODEL 8
REMARK VINA RESULT:      -7.3      1.053      1.288
REMARK  Name = 
REMARK  7 active torsions:
REMARK  status: ('A' for Active; 'I' for Inactive)
REMARK    1  A    between atoms: C_1  and  C_2
REMARK    2  A    between atoms: C_2  and  C_3
REMARK    3  A    between atoms: C_2  and  N_20
REMARK    4  A    between atoms: C_3  and  C_4
REMARK    5  A    between atoms: C_4  and  N_5
REMARK    6  A    between atoms: C_6  and  C_8
REMARK    7  A    between atoms: C_8  and  N_9
REMARK                            x       y       z     vdW  Elec       q    Type
REMARK                         _______ _______ _______ _____ _____    ______ ____
ROOT
ATOM      1  N   UNL     1       4.753   5.670  19.169  0.00  0.00    +0.000 N 
ATOM      2  C   UNL     1       3.775   4.782  19.568  0.00  0.00    +0.000 C 
ATOM      3  O   UNL     1       4.078   3.665  20.004  0.00  0.00    +0.000 OA
ATOM      4  H   UNL     1       4.485   6.657  19.183  0.00  0.00    +0.000 HD
ENDROOT
BRANCH   2   5
ATOM      5  C   UNL     1       2.285   5.269  19.437  0.00  0.00    +0.000 C 
ATOM      6  C   UNL     1       1.767   4.787  18.046  0.00  0.00    +0.000 C 
ATOM      7  C   UNL     1       1.709   3.260  17.932  0.00  0.00    +0.000 C 
ATOM      8  C   UNL     1       0.826   2.665  19.024  0.00  0.00    +0.000 C 
ATOM      9  C   UNL     1       1.299   3.073  20.409  0.00  0.00    +0.000 C 
ATOM     10  C   UNL     1       1.426   4.592  20.548  0.00  0.00    +0.000 C 
BRANCH   5  11
ATOM     11  N   UNL     1       2.285   6.785  19.539  0.00  0.00    +0.000 NA
ATOM     12  C   UNL     1       1.943   7.458  18.264  0.00  0.00    +0.000 C 
ATOM     13  C   UNL     1       1.985   8.985  18.367  0.00  0.00    +0.000 C 
ATOM     14  C   UNL     1       1.073   9.490  19.473  0.00  0.00    +0.000 C 
ATOM     15  C   UNL     1       1.406   8.782  20.776  0.00  0.00    +0.000 C 
ATOM     16  C   UNL     1       1.368   7.262  20.603  0.00  0.00    +0.000 C 
ENDBRANCH   5  11
ENDBRANCH   2   5
BRANCH   1  17
ATOM     17  C   UNL     1       6.148   5.312  19.297  0.00  0.00    +0.000 C 
BRANCH  17  18
ATOM     18  C   UNL     1       6.636   4.385  18.180  0.00  0.00    +0.000 C 
BRANCH  18  20
ATOM     19  C   UNL     1       7.334   6.656  17.256  0.00  0.00    +0.000 C 
ATOM     20  C   UNL     1       7.396   5.133  17.052  0.00  0.00    +0.000 C 
BRANCH  20  21
ATOM     21  N   UNL     1       6.939   4.724  15.720  0.00  0.00    +0.000 N 
ATOM     22  C   UNL     1       5.936   3.838  15.432  0.00  0.00    +0.000 A 
ATOM     23  C   UNL     1       5.859   3.799  14.066  0.00  0.00    +0.000 A 
ATOM     24  N   UNL     1       6.804   4.605  13.501  0.00  0.00    +0.000 NA
ATOM     25  C   UNL     1       7.448   5.145  14.520  0.00  0.00    +0.000 A 
ENDBRANCH  20  21
ENDBRANCH  18  20
ENDBRANCH  17  18
ENDBRANCH   1  17
TORSDOF 6
ENDMDL
MODEL 9
REMARK VINA RESULT:      -7.3      2.628      6.529
REMARK  Name = 
REMARK  7 active torsions:
REMARK  status: ('A' for Active; 'I' for Inactive)
REMARK    1  A    between atoms: C_1  and  C_2
REMARK    2  A    between atoms: C_2  and  C_3
REMARK    3  A    between atoms: C_2  and  N_20
REMARK    4  A    between atoms: C_3  and  C_4
REMARK    5  A    between atoms: C_4  and  N_5
REMARK    6  A    between atoms: C_6  and  C_8
REMARK    7  A    between atoms: C_8  and  N_9
REMARK                            x       y       z     vdW  Elec       q    Type
REMARK                         _______ _______ _______ _____ _____    ______ ____
ROOT
ATOM      1  N   UNL     1       2.862   7.288  18.317  0.00  0.00    +0.000 N 
ATOM      2  C   UNL     1       3.802   6.543  17.635  0.00  0.00    +0.000 C 
ATOM      3  O   UNL     1       4.388   7.013  16.654  0.00  0.00    +0.000 OA
ATOM      4  H   UNL     1       2.702   7.014  19.290  0.00  0.00    +0.000 HD
ENDROOT
BRANCH   2   5
ATOM      5  C   UNL     1       4.074   5.090  18.173  0.00  0.00    +0.000 C 
ATOM      6  C   UNL     1       4.577   4.241  16.963  0.00  0.00    +0.000 C 
ATOM      7  C   UNL     1       5.920   4.731  16.412  0.00  0.00    +0.000 C 
ATOM      8  C   UNL     1       6.989   4.727  17.500  0.00  0.00    +0.000 C 
ATOM      9  C   UNL     1       6.573   5.566  18.696  0.00  0.00    +0.000 C 
ATOM     10  C   UNL     1       5.207   5.145  19.244  0.00  0.00    +0.000 C 
BRANCH   5  11
ATOM     11  N   UNL     1       2.767   4.552  18.729  0.00  0.00    +0.000 NA
ATOM     12  C   UNL     1       2.363   3.259  18.129  0.00  0.00    +0.000 C 
ATOM     13  C   UNL     1       1.025   2.745  18.667  0.00  0.00    +0.000 C 
ATOM     14  C   UNL     1       1.049   2.620  20.182  0.00  0.00    +0.000 C 
ATOM     15  C   UNL     1       1.489   3.938  20.799  0.00  0.00    +0.000 C 
ATOM     16  C   UNL     1       2.819   4.408  20.205  0.00  0.00    +0.000 C 
ENDBRANCH   5  11
ENDBRANCH   2   5
BRANCH   1  17
ATOM     17  C   UNL     1       2.586   8.648  17.910  0.00  0.00    +0.000 C 
BRANCH  17  18
ATOM     18  C   UNL     1       1.090   8.929  17.730  0.00  0.00    +0.000 C 
BRANCH  18  20
ATOM     19  C   UNL     1       0.849   9.911  20.071  0.00  0.00    +0.000 C 
ATOM     20  C   UNL     1       0.589  10.133  18.572  0.00  0.00    +0.000 C 
BRANCH  20  21
ATOM     21  N   UNL     1      -0.813  10.455  18.286  0.00  0.00    +0.000 N 
ATOM     22  C   UNL     1      -1.573   9.970  17.256  0.00  0.00    +0.000 A 
ATOM     23  C   UNL     1      -2.811  10.531  17.414  0.00  0.00    +0.000 A 
ATOM     24  N   UNL     1      -2.831  11.373  18.488  0.00  0.00    +0.000 NA
ATOM     25  C   UNL     1      -1.610  11.316  18.991  0.00  0.00    +0.000 A 
ENDBRANCH  20  21
ENDBRANCH  18  20
ENDBRANCH  17  18
ENDBRANCH   1  17
TORSDOF 6
ENDMDL
