MODEL 1
REMARK VINA RESULT:      -7.1      0.000      0.000
REMARK  Name = 
REMARK  6 active torsions:
REMARK  status: ('A' for Active; 'I' for Inactive)
REMARK    1  A    between atoms: C_1  and  C_2
REMARK    2  A    between atoms: C_2  and  O_3
REMARK    3  A    between atoms: O_3  and  C_4
REMARK    4  A    between atoms: C_4  and  C_6
REMARK    5  A    between atoms: C_6  and  C_7
REMARK    6  A    between atoms: N_20  and  C_21
REMARK                            x       y       z     vdW  Elec       q    Type
REMARK                         _______ _______ _______ _____ _____    ______ ____
ROOT
ATOM      1  C   UNL     1       4.699   5.433  18.434  0.00  0.00    +0.000 C 
ATOM      2  C   UNL     1       3.704   4.701  19.409  0.00  0.00    +0.000 A 
ATOM      3  C   UNL     1       3.961   3.338  19.730  0.00  0.00    +0.000 A 
ATOM      4  C   UNL     1       3.159   2.577  20.587  0.00  0.00    +0.000 A 
ATOM      5  C   UNL     1       2.088   3.164  21.227  0.00  0.00    +0.000 A 
ATOM      6  C   UNL     1       1.846   4.517  21.029  0.00  0.00    +0.000 A 
ATOM      7  C   UNL     1       2.631   5.283  20.130  0.00  0.00    +0.000 A 
ATOM      8  N   UNL     1       2.234   6.629  19.976  0.00  0.00    +0.000 N 
ATOM      9  N   UNL     1       1.555   7.304  20.939  0.00  0.00    +0.000 NA
ATOM     10  N   UNL     1       1.338   8.539  20.508  0.00  0.00    +0.000 NA
ATOM     11  C   UNL     1       1.804   8.620  19.232  0.00  0.00    +0.000 A 
ATOM     12  C   UNL     1       2.336   7.409  18.860  0.00  0.00    +0.000 A 
ATOM     13  C   UNL     1       2.836   6.879  17.592  0.00  0.00    +0.000 C 
ATOM     14  N   UNL     1       4.267   6.678  17.714  0.00  0.00    +0.000 NA
ATOM     15  C   UNL     1       4.900   6.931  16.414  0.00  0.00    +0.000 C 
ENDROOT
BRANCH   1  16
ATOM     16  C   UNL     1       5.493   4.434  17.539  0.00  0.00    +0.000 C 
BRANCH  16  17
ATOM     17  C   UNL     1       6.983   4.636  17.700  0.00  0.00    +0.000 C 
ATOM     18  O   UNL     1       7.549   4.811  18.776  0.00  0.00    +0.000 OA
BRANCH  17  19
ATOM     19  O   UNL     1       7.614   4.589  16.503  0.00  0.00    +0.000 OA
BRANCH  19  21
ATOM     20  C   UNL     1       7.035   4.846  14.164  0.00  0.00    +0.000 C 
ATOM     21  C   UNL     1       6.797   4.063  15.444  0.00  0.00    +0.000 C 
ENDBRANCH  19  21
ENDBRANCH  17  19
ENDBRANCH  16  17
ENDBRANCH   1  16
TORSDOF 4
ENDMDL
MODEL 2
REMARK VINA RESULT:      -7.0      0.986      1.617
REMARK  Name = 
REMARK  6 active torsions:
REMARK  status: ('A' for Active; 'I' for Inactive)
REMARK    1  A    between atoms: C_1  and  C_2
REMARK    2  A    between atoms: C_2  and  O_3
REMARK    3  A    between atoms: O_3  and  C_4
REMARK    4  A    between atoms: C_4  and  C_6
REMARK    5  A    between atoms: C_6  and  C_7
REMARK    6  A    between atoms: N_20  and  C_21
REMARK                            x       y       z     vdW  Elec       q    Type
REMARK                         _______ _______ _______ _____ _____    ______ ____
ROOT
ATOM      1  C   UNL     1       4.721   5.459  18.392  0.00  0.00    +0.000 C 
ATOM      2  C   UNL     1       3.714   4.747  19.368  0.00  0.00    +0.000 A 
ATOM      3  C   UNL     1       3.969   3.392  19.724  0.00  0.00    +0.000 A 
ATOM      4  C   UNL     1       3.157   2.649  20.587  0.00  0.00    +0.000 A 
ATOM      5  C   UNL     1       2.075   3.248  21.198  0.00  0.00    +0.000 A 
ATOM      6  C   UNL     1       1.833   4.595  20.965  0.00  0.00    +0.000 A 
ATOM      7  C   UNL     1       2.629   5.342  20.060  0.00  0.00    +0.000 A 
ATOM      8  N   UNL     1       2.231   6.683  19.869  0.00  0.00    +0.000 N 
ATOM      9  N   UNL     1       1.537   7.378  20.808  0.00  0.00    +0.000 NA
ATOM     10  N   UNL     1       1.324   8.602  20.345  0.00  0.00    +0.000 NA
ATOM     11  C   UNL     1       1.808   8.656  19.075  0.00  0.00    +0.000 A 
ATOM     12  C   UNL     1       2.348   7.438  18.738  0.00  0.00    +0.000 A 
ATOM     13  C   UNL     1       2.868   6.881  17.490  0.00  0.00    +0.000 C 
ATOM     14  N   UNL     1       4.297   6.686  17.638  0.00  0.00    +0.000 NA
ATOM     15  C   UNL     1       4.948   6.911  16.341  0.00  0.00    +0.000 C 
ENDROOT
BRANCH   1  16
ATOM     16  C   UNL     1       5.531   4.442  17.531  0.00  0.00    +0.000 C 
BRANCH  16  17
ATOM     17  C   UNL     1       7.007   4.524  17.849  0.00  0.00    +0.000 C 
ATOM     18  O   UNL     1       7.905   4.210  17.072  0.00  0.00    +0.000 OA
BRANCH  17  19
ATOM     19  O   UNL     1       7.211   4.998  19.101  0.00  0.00    +0.000 OA
BRANCH  19  21
ATOM     20  C   UNL     1       7.959   7.199  18.413  0.00  0.00    +0.000 C 
ATOM     21  C   UNL     1       8.297   5.936  19.189  0.00  0.00    +0.000 C 
ENDBRANCH  19  21
ENDBRANCH  17  19
ENDBRANCH  16  17
ENDBRANCH   1  16
TORSDOF 4
ENDMDL
MODEL 3
REMARK VINA RESULT:      -6.9      1.272      1.342
REMARK  Name = 
REMARK  6 active torsions:
REMARK  status: ('A' for Active; 'I' for Inactive)
REMARK    1  A    between atoms: C_1  and  C_2
REMARK    2  A    between atoms: C_2  and  O_3
REMARK    3  A    between atoms: O_3  and  C_4
REMARK    4  A    between atoms: C_4  and  C_6
REMARK    5  A    between atoms: C_6  and  C_7
REMARK    6  A    between atoms: N_20  and  C_21
REMARK                            x       y       z     vdW  Elec       q    Type
REMARK                         _______ _______ _______ _____ _____    ______ ____
ROOT
ATOM      1  C   UNL     1       4.553   5.108  17.826  0.00  0.00    +0.000 C 
ATOM      2  C   UNL     1       3.373   4.166  18.268  0.00  0.00    +0.000 A 
ATOM      3  C   UNL     1       3.416   2.802  17.861  0.00  0.00    +0.000 A 
ATOM      4  C   UNL     1       2.435   1.861  18.192  0.00  0.00    +0.000 A 
ATOM      5  C   UNL     1       1.387   2.221  19.013  0.00  0.00    +0.000 A 
ATOM      6  C   UNL     1       1.345   3.512  19.521  0.00  0.00    +0.000 A 
ATOM      7  C   UNL     1       2.314   4.481  19.156  0.00  0.00    +0.000 A 
ATOM      8  N   UNL     1       2.114   5.770  19.695  0.00  0.00    +0.000 N 
ATOM      9  N   UNL     1       1.429   5.980  20.849  0.00  0.00    +0.000 NA
ATOM     10  N   UNL     1       1.422   7.282  21.098  0.00  0.00    +0.000 NA
ATOM     11  C   UNL     1       2.028   7.907  20.052  0.00  0.00    +0.000 A 
ATOM     12  C   UNL     1       2.435   6.972  19.132  0.00  0.00    +0.000 A 
ATOM     13  C   UNL     1       2.994   7.067  17.785  0.00  0.00    +0.000 C 
ATOM     14  N   UNL     1       4.366   6.598  17.826  0.00  0.00    +0.000 NA
ATOM     15  C   UNL     1       5.161   7.354  16.850  0.00  0.00    +0.000 C 
ENDROOT
BRANCH   1  16
ATOM     16  C   UNL     1       5.303   4.569  16.569  0.00  0.00    +0.000 C 
BRANCH  16  17
ATOM     17  C   UNL     1       6.789   4.480  16.827  0.00  0.00    +0.000 C 
ATOM     18  O   UNL     1       7.300   4.419  17.942  0.00  0.00    +0.000 OA
BRANCH  17  19
ATOM     19  O   UNL     1       7.486   4.468  15.666  0.00  0.00    +0.000 OA
BRANCH  19  21
ATOM     20  C   UNL     1       6.575   3.927  13.487  0.00  0.00    +0.000 C 
ATOM     21  C   UNL     1       6.751   4.997  14.550  0.00  0.00    +0.000 C 
ENDBRANCH  19  21
ENDBRANCH  17  19
ENDBRANCH  16  17
ENDBRANCH   1  16
TORSDOF 4
ENDMDL
MODEL 4
REMARK VINA RESULT:      -6.9      1.438      2.007
REMARK  Name = 
REMARK  6 active torsions:
REMARK  status: ('A' for Active; 'I' for Inactive)
REMARK    1  A    between atoms: C_1  and  C_2
REMARK    2  A    between atoms: C_2  and  O_3
REMARK    3  A    between atoms: O_3  and  C_4
REMARK    4  A    between atoms: C_4  and  C_6
REMARK    5  A    between atoms: C_6  and  C_7
REMARK    6  A    between atoms: N_20  and  C_21
REMARK                            x       y       z     vdW  Elec       q    Type
REMARK                         _______ _______ _______ _____ _____    ______ ____
ROOT
ATOM      1  C   UNL     1       4.402   5.149  17.671  0.00  0.00    +0.000 C 
ATOM      2  C   UNL     1       3.219   4.221  18.133  0.00  0.00    +0.000 A 
ATOM      3  C   UNL     1       3.221   2.865  17.701  0.00  0.00    +0.000 A 
ATOM      4  C   UNL     1       2.233   1.937  18.047  0.00  0.00    +0.000 A 
ATOM      5  C   UNL     1       1.218   2.302  18.906  0.00  0.00    +0.000 A 
ATOM      6  C   UNL     1       1.218   3.585  19.437  0.00  0.00    +0.000 A 
ATOM      7  C   UNL     1       2.194   4.541  19.059  0.00  0.00    +0.000 A 
ATOM      8  N   UNL     1       2.036   5.824  19.626  0.00  0.00    +0.000 N 
ATOM      9  N   UNL     1       1.392   6.026  20.805  0.00  0.00    +0.000 NA
ATOM     10  N   UNL     1       1.418   7.323  21.076  0.00  0.00    +0.000 NA
ATOM     11  C   UNL     1       2.003   7.955  20.023  0.00  0.00    +0.000 A 
ATOM     12  C   UNL     1       2.363   7.029  19.074  0.00  0.00    +0.000 A 
ATOM     13  C   UNL     1       2.882   7.137  17.712  0.00  0.00    +0.000 C 
ATOM     14  N   UNL     1       4.245   6.641  17.702  0.00  0.00    +0.000 NA
ATOM     15  C   UNL     1       5.024   7.400  16.715  0.00  0.00    +0.000 C 
ENDROOT
BRANCH   1  16
ATOM     16  C   UNL     1       5.102   4.618  16.382  0.00  0.00    +0.000 C 
BRANCH  16  17
ATOM     17  C   UNL     1       6.586   4.444  16.608  0.00  0.00    +0.000 C 
ATOM     18  O   UNL     1       7.438   4.519  15.727  0.00  0.00    +0.000 OA
BRANCH  17  19
ATOM     19  O   UNL     1       6.855   4.201  17.913  0.00  0.00    +0.000 OA
BRANCH  19  21
ATOM     20  C   UNL     1       7.821   6.198  18.889  0.00  0.00    +0.000 C 
ATOM     21  C   UNL     1       8.083   4.796  18.365  0.00  0.00    +0.000 C 
ENDBRANCH  19  21
ENDBRANCH  17  19
ENDBRANCH  16  17
ENDBRANCH   1  16
TORSDOF 4
ENDMDL
MODEL 5
REMARK VINA RESULT:      -6.5      3.465      6.149
REMARK  Name = 
REMARK  6 active torsions:
REMARK  status: ('A' for Active; 'I' for Inactive)
REMARK    1  A    between atoms: C_1  and  C_2
REMARK    2  A    between atoms: C_2  and  O_3
REMARK    3  A    between atoms: O_3  and  C_4
REMARK    4  A    between atoms: C_4  and  C_6
REMARK    5  A    between atoms: C_6  and  C_7
REMARK    6  A    between atoms: N_20  and  C_21
REMARK                            x       y       z     vdW  Elec       q    Type
REMARK                         _______ _______ _______ _____ _____    ______ ____
ROOT
ATOM      1  C   UNL     1       4.638   4.115  17.261  0.00  0.00    +0.000 C 
ATOM      2  C   UNL     1       5.526   4.331  15.981  0.00  0.00    +0.000 A 
ATOM      3  C   UNL     1       5.151   3.658  14.784  0.00  0.00    +0.000 A 
ATOM      4  C   UNL     1       5.850   3.771  13.577  0.00  0.00    +0.000 A 
ATOM      5  C   UNL     1       6.930   4.623  13.486  0.00  0.00    +0.000 A 
ATOM      6  C   UNL     1       7.284   5.380  14.595  0.00  0.00    +0.000 A 
ATOM      7  C   UNL     1       6.604   5.240  15.831  0.00  0.00    +0.000 A 
ATOM      8  N   UNL     1       7.110   6.022  16.891  0.00  0.00    +0.000 N 
ATOM      9  N   UNL     1       7.790   7.180  16.683  0.00  0.00    +0.000 NA
ATOM     10  N   UNL     1       8.121   7.685  17.864  0.00  0.00    +0.000 NA
ATOM     11  C   UNL     1       7.725   6.802  18.819  0.00  0.00    +0.000 A 
ATOM     12  C   UNL     1       7.121   5.721  18.223  0.00  0.00    +0.000 A 
ATOM     13  C   UNL     1       6.644   4.434  18.725  0.00  0.00    +0.000 C 
ATOM     14  N   UNL     1       5.198   4.411  18.623  0.00  0.00    +0.000 NA
ATOM     15  C   UNL     1       4.650   3.626  19.737  0.00  0.00    +0.000 C 
ENDROOT
BRANCH   1  16
ATOM     16  C   UNL     1       3.814   2.793  17.195  0.00  0.00    +0.000 C 
BRANCH  16  17
ATOM     17  C   UNL     1       2.359   3.051  17.509  0.00  0.00    +0.000 C 
ATOM     18  O   UNL     1       1.707   3.994  17.067  0.00  0.00    +0.000 OA
BRANCH  17  19
ATOM     19  O   UNL     1       1.862   2.100  18.336  0.00  0.00    +0.000 OA
BRANCH  19  21
ATOM     20  C   UNL     1       1.056   3.050  20.415  0.00  0.00    +0.000 C 
ATOM     21  C   UNL     1       0.681   2.515  19.043  0.00  0.00    +0.000 C 
ENDBRANCH  19  21
ENDBRANCH  17  19
ENDBRANCH  16  17
ENDBRANCH   1  16
TORSDOF 4
ENDMDL
MODEL 6
REMARK VINA RESULT:      -6.3      3.318      5.818
REMARK  Name = 
REMARK  6 active torsions:
REMARK  status: ('A' for Active; 'I' for Inactive)
REMARK    1  A    between atoms: C_1  and  C_2
REMARK    2  A    between atoms: C_2  and  O_3
REMARK    3  A    between atoms: O_3  and  C_4
REMARK    4  A    between atoms: C_4  and  C_6
REMARK    5  A    between atoms: C_6  and  C_7
REMARK    6  A    between atoms: N_20  and  C_21
REMARK                            x       y       z     vdW  Elec       q    Type
REMARK                         _______ _______ _______ _____ _____    ______ ____
ROOT
ATOM      1  C   UNL     1       2.971   4.339  18.483  0.00  0.00    +0.000 C 
ATOM      2  C   UNL     1       3.076   5.853  18.067  0.00  0.00    +0.000 A 
ATOM      3  C   UNL     1       1.939   6.685  18.269  0.00  0.00    +0.000 A 
ATOM      4  C   UNL     1       1.904   8.046  17.949  0.00  0.00    +0.000 A 
ATOM      5  C   UNL     1       3.038   8.668  17.469  0.00  0.00    +0.000 A 
ATOM      6  C   UNL     1       4.206   7.929  17.343  0.00  0.00    +0.000 A 
ATOM      7  C   UNL     1       4.236   6.540  17.628  0.00  0.00    +0.000 A 
ATOM      8  N   UNL     1       5.472   5.900  17.394  0.00  0.00    +0.000 N 
ATOM      9  N   UNL     1       6.655   6.567  17.426  0.00  0.00    +0.000 NA
ATOM     10  N   UNL     1       7.628   5.700  17.182  0.00  0.00    +0.000 NA
ATOM     11  C   UNL     1       7.053   4.498  16.908  0.00  0.00    +0.000 A 
ATOM     12  C   UNL     1       5.686   4.613  16.994  0.00  0.00    +0.000 A 
ATOM     13  C   UNL     1       4.581   3.712  16.671  0.00  0.00    +0.000 C 
ATOM     14  N   UNL     1       3.925   3.333  17.908  0.00  0.00    +0.000 NA
ATOM     15  C   UNL     1       3.425   1.958  17.783  0.00  0.00    +0.000 C 
ENDROOT
BRANCH   1  16
ATOM     16  C   UNL     1       1.494   3.842  18.541  0.00  0.00    +0.000 C 
BRANCH  16  17
ATOM     17  C   UNL     1       0.986   3.830  19.965  0.00  0.00    +0.000 C 
ATOM     18  O   UNL     1       0.642   4.830  20.590  0.00  0.00    +0.000 OA
BRANCH  17  19
ATOM     19  O   UNL     1       0.952   2.571  20.460  0.00  0.00    +0.000 OA
BRANCH  19  21
ATOM     20  C   UNL     1       3.119   2.352  21.523  0.00  0.00    +0.000 C 
ATOM     21  C   UNL     1       1.616   2.435  21.728  0.00  0.00    +0.000 C 
ENDBRANCH  19  21
ENDBRANCH  17  19
ENDBRANCH  16  17
ENDBRANCH   1  16
TORSDOF 4
ENDMDL
MODEL 7
REMARK VINA RESULT:      -6.2      3.439      6.025
REMARK  Name = 
REMARK  6 active torsions:
REMARK  status: ('A' for Active; 'I' for Inactive)
REMARK    1  A    between atoms: C_1  and  C_2
REMARK    2  A    between atoms: C_2  and  O_3
REMARK    3  A    between atoms: O_3  and  C_4
REMARK    4  A    between atoms: C_4  and  C_6
REMARK    5  A    between atoms: C_6  and  C_7
REMARK    6  A    between atoms: N_20  and  C_21
REMARK                            x       y       z     vdW  Elec       q    Type
REMARK                         _______ _______ _______ _____ _____    ______ ____
ROOT
ATOM      1  C   UNL     1       4.895   3.603  18.411  0.00  0.00    +0.000 C 
ATOM      2  C   UNL     1       6.004   4.719  18.363  0.00  0.00    +0.000 A 
ATOM      3  C   UNL     1       6.475   5.249  19.597  0.00  0.00    +0.000 A 
ATOM      4  C   UNL     1       7.461   6.238  19.693  0.00  0.00    +0.000 A 
ATOM      5  C   UNL     1       8.080   6.703  18.552  0.00  0.00    +0.000 A 
ATOM      6  C   UNL     1       7.730   6.153  17.326  0.00  0.00    +0.000 A 
ATOM      7  C   UNL     1       6.703   5.180  17.219  0.00  0.00    +0.000 A 
ATOM      8  N   UNL     1       6.407   4.755  15.907  0.00  0.00    +0.000 N 
ATOM      9  N   UNL     1       7.315   4.814  14.898  0.00  0.00    +0.000 NA
ATOM     10  N   UNL     1       6.747   4.336  13.799  0.00  0.00    +0.000 NA
ATOM     11  C   UNL     1       5.449   4.056  14.091  0.00  0.00    +0.000 A 
ATOM     12  C   UNL     1       5.200   4.355  15.409  0.00  0.00    +0.000 A 
ATOM     13  C   UNL     1       3.982   4.393  16.217  0.00  0.00    +0.000 C 
ATOM     14  N   UNL     1       4.052   3.328  17.199  0.00  0.00    +0.000 NA
ATOM     15  C   UNL     1       2.699   2.818  17.450  0.00  0.00    +0.000 C 
ENDROOT
BRANCH   1  16
ATOM     16  C   UNL     1       4.088   3.627  19.745  0.00  0.00    +0.000 C 
BRANCH  16  17
ATOM     17  C   UNL     1       4.305   2.352  20.527  0.00  0.00    +0.000 C 
ATOM     18  O   UNL     1       5.154   1.506  20.258  0.00  0.00    +0.000 OA
BRANCH  17  19
ATOM     19  O   UNL     1       3.446   2.267  21.570  0.00  0.00    +0.000 OA
BRANCH  19  21
ATOM     20  C   UNL     1       1.128   2.780  21.082  0.00  0.00    +0.000 C 
ATOM     21  C   UNL     1       2.459   3.312  21.587  0.00  0.00    +0.000 C 
ENDBRANCH  19  21
ENDBRANCH  17  19
ENDBRANCH  16  17
ENDBRANCH   1  16
TORSDOF 4
ENDMDL
MODEL 8
REMARK VINA RESULT:      -6.1      1.612      2.110
REMARK  Name = 
REMARK  6 active torsions:
REMARK  status: ('A' for Active; 'I' for Inactive)
REMARK    1  A    between atoms: C_1  and  C_2
REMARK    2  A    between atoms: C_2  and  O_3
REMARK    3  A    between atoms: O_3  and  C_4
REMARK    4  A    between atoms: C_4  and  C_6
REMARK    5  A    between atoms: C_6  and  C_7
REMARK    6  A    between atoms: N_20  and  C_21
REMARK                            x       y       z     vdW  Elec       q    Type
REMARK                         _______ _______ _______ _____ _____    ______ ____
ROOT
ATOM      1  C   UNL     1       4.690   5.532  17.645  0.00  0.00    +0.000 C 
ATOM      2  C   UNL     1       3.817   4.317  18.130  0.00  0.00    +0.000 A 
ATOM      3  C   UNL     1       4.165   3.015  17.671  0.00  0.00    +0.000 A 
ATOM      4  C   UNL     1       3.475   1.853  18.033  0.00  0.00    +0.000 A 
ATOM      5  C   UNL     1       2.434   1.925  18.934  0.00  0.00    +0.000 A 
ATOM      6  C   UNL     1       2.111   3.155  19.491  0.00  0.00    +0.000 A 
ATOM      7  C   UNL     1       2.781   4.342  19.097  0.00  0.00    +0.000 A 
ATOM      8  N   UNL     1       2.307   5.530  19.695  0.00  0.00    +0.000 N 
ATOM      9  N   UNL     1       1.680   5.540  20.899  0.00  0.00    +0.000 NA
ATOM     10  N   UNL     1       1.368   6.794  21.195  0.00  0.00    +0.000 NA
ATOM     11  C   UNL     1       1.722   7.571  20.135  0.00  0.00    +0.000 A 
ATOM     12  C   UNL     1       2.279   6.784  19.156  0.00  0.00    +0.000 A 
ATOM     13  C   UNL     1       2.696   7.040  17.779  0.00  0.00    +0.000 C 
ATOM     14  N   UNL     1       4.141   6.928  17.711  0.00  0.00    +0.000 NA
ATOM     15  C   UNL     1       4.650   7.877  16.713  0.00  0.00    +0.000 C 
ENDROOT
BRANCH   1  16
ATOM     16  C   UNL     1       5.455   5.221  16.322  0.00  0.00    +0.000 C 
BRANCH  16  17
ATOM     17  C   UNL     1       6.949   5.229  16.550  0.00  0.00    +0.000 C 
ATOM     18  O   UNL     1       7.635   4.222  16.706  0.00  0.00    +0.000 OA
BRANCH  17  19
ATOM     19  O   UNL     1       7.436   6.493  16.551  0.00  0.00    +0.000 OA
BRANCH  19  21
ATOM     20  C   UNL     1       8.049   8.453  17.839  0.00  0.00    +0.000 C 
ATOM     21  C   UNL     1       7.849   6.946  17.851  0.00  0.00    +0.000 C 
ENDBRANCH  19  21
ENDBRANCH  17  19
ENDBRANCH  16  17
ENDBRANCH   1  16
TORSDOF 4
ENDMDL
MODEL 9
REMARK VINA RESULT:      -6.0      1.152      1.320
REMARK  Name = 
REMARK  6 active torsions:
REMARK  status: ('A' for Active; 'I' for Inactive)
REMARK    1  A    between atoms: C_1  and  C_2
REMARK    2  A    between atoms: C_2  and  O_3
REMARK    3  A    between atoms: O_3  and  C_4
REMARK    4  A    between atoms: C_4  and  C_6
REMARK    5  A    between atoms: C_6  and  C_7
REMARK    6  A    between atoms: N_20  and  C_21
REMARK                            x       y       z     vdW  Elec       q    Type
REMARK                         _______ _______ _______ _____ _____    ______ ____
ROOT
ATOM      1  C   UNL     1       4.785   5.362  18.825  0.00  0.00    +0.000 C 
ATOM      2  C   UNL     1       3.605   4.645  19.581  0.00  0.00    +0.000 A 
ATOM      3  C   UNL     1       3.745   3.261  19.883  0.00  0.00    +0.000 A 
ATOM      4  C   UNL     1       2.775   2.510  20.555  0.00  0.00    +0.000 A 
ATOM      5  C   UNL     1       1.634   3.125  21.025  0.00  0.00    +0.000 A 
ATOM      6  C   UNL     1       1.487   4.494  20.846  0.00  0.00    +0.000 A 
ATOM      7  C   UNL     1       2.448   5.252  20.130  0.00  0.00    +0.000 A 
ATOM      8  N   UNL     1       2.140   6.620  19.967  0.00  0.00    +0.000 N 
ATOM      9  N   UNL     1       1.333   7.293  20.827  0.00  0.00    +0.000 NA
ATOM     10  N   UNL     1       1.246   8.551  20.418  0.00  0.00    +0.000 NA
ATOM     11  C   UNL     1       1.931   8.655  19.247  0.00  0.00    +0.000 A 
ATOM     12  C   UNL     1       2.468   7.433  18.921  0.00  0.00    +0.000 A 
ATOM     13  C   UNL     1       3.159   6.925  17.737  0.00  0.00    +0.000 C 
ATOM     14  N   UNL     1       4.538   6.650  18.096  0.00  0.00    +0.000 NA
ATOM     15  C   UNL     1       5.397   6.918  16.936  0.00  0.00    +0.000 C 
ENDROOT
BRANCH   1  16
ATOM     16  C   UNL     1       5.681   4.357  18.038  0.00  0.00    +0.000 C 
BRANCH  16  17
ATOM     17  C   UNL     1       5.008   3.927  16.755  0.00  0.00    +0.000 C 
ATOM     18  O   UNL     1       3.799   3.756  16.627  0.00  0.00    +0.000 OA
BRANCH  17  19
ATOM     19  O   UNL     1       5.912   3.763  15.761  0.00  0.00    +0.000 OA
BRANCH  19  21
ATOM     20  C   UNL     1       6.214   3.701  13.357  0.00  0.00    +0.000 C 
ATOM     21  C   UNL     1       5.525   4.386  14.525  0.00  0.00    +0.000 C 
ENDBRANCH  19  21
ENDBRANCH  17  19
ENDBRANCH  16  17
ENDBRANCH   1  16
TORSDOF 4
ENDMDL
