MODEL 1
REMARK VINA RESULT:      -7.6      0.000      0.000
REMARK  Name = 
REMARK  14 active torsions:
REMARK  status: ('A' for Active; 'I' for Inactive)
REMARK    1  A    between atoms: C_1  and  C_2
REMARK    2  A    between atoms: C_2  and  C_3
REMARK    3  A    between atoms: C_3  and  C_4
REMARK    4  A    between atoms: C_4  and  N_5
REMARK    5  A    between atoms: C_6  and  C_7
REMARK    6  A    between atoms: C_8  and  C_9
REMARK    7  A    between atoms: C_9  and  C_11
REMARK    8  A    between atoms: C_11  and  C_12
REMARK    9  A    between atoms: C_13  and  C_14
REMARK   10  A    between atoms: N_16  and  C_17
REMARK   11  A    between atoms: C_17  and  C_18
REMARK   12  A    between atoms: C_18  and  N_19
REMARK   13  A    between atoms: N_22  and  C_23
REMARK   14  A    between atoms: C_32  and  C_33
REMARK                            x       y       z     vdW  Elec       q    Type
REMARK                         _______ _______ _______ _____ _____    ______ ____
ROOT
ATOM      1  C   UNL     1       2.959   7.534  17.970  0.00  0.00    +0.000 C 
ATOM      2  O   UNL     1       2.738   8.376  17.101  0.00  0.00    +0.000 OA
ATOM      3  N   UNL     1       2.459   7.676  19.240  0.00  0.00    +0.000 N 
ATOM      4  H   UNL     1       2.651   6.982  19.946  0.00  0.00    +0.000 HD
ENDROOT
BRANCH   1   9
ATOM      5  N   UNL     1       5.317   4.851  17.078  0.00  0.00    +0.000 N 
ATOM      6  C   UNL     1       4.199   4.100  17.361  0.00  0.00    +0.000 A 
ATOM      7  C   UNL     1       4.152   2.605  17.277  0.00  0.00    +0.000 C 
ATOM      8  C   UNL     1       3.167   4.961  17.730  0.00  0.00    +0.000 A 
ATOM      9  C   UNL     1       3.708   6.306  17.697  0.00  0.00    +0.000 A 
ATOM     10  C   UNL     1       5.046   6.198  17.294  0.00  0.00    +0.000 A 
ATOM     11  C   UNL     1       6.093   7.234  17.021  0.00  0.00    +0.000 C 
BRANCH   8  12
ATOM     12  C   UNL     1       1.807   4.472  18.089  0.00  0.00    +0.000 C 
ATOM     13  O   UNL     1       0.976   4.244  17.206  0.00  0.00    +0.000 OA
BRANCH  12  14
ATOM     14  C   UNL     1       1.444   4.213  19.540  0.00  0.00    +0.000 C 
ATOM     15  C   UNL     1       0.910   2.808  19.791  0.00  0.00    +0.000 C 
ENDBRANCH  12  14
ENDBRANCH   8  12
BRANCH   5  16
ATOM     16  C   UNL     1       6.619   4.309  16.685  0.00  0.00    +0.000 C 
BRANCH  16  17
ATOM     17  C   UNL     1       7.058   4.676  15.264  0.00  0.00    +0.000 C 
BRANCH  17  19
ATOM     18  C   UNL     1       6.056   3.583  13.237  0.00  0.00    +0.000 C 
ATOM     19  C   UNL     1       5.870   4.653  14.301  0.00  0.00    +0.000 C 
ENDBRANCH  17  19
ENDBRANCH  16  17
ENDBRANCH   5  16
ENDBRANCH   1   9
BRANCH   3  20
ATOM     20  C   UNL     1       1.610   8.790  19.602  0.00  0.00    +0.000 C 
BRANCH  20  21
ATOM     21  C   UNL     1       1.072   8.661  21.036  0.00  0.00    +0.000 C 
BRANCH  21  22
ATOM     22  N   UNL     1      -0.392   8.850  21.159  0.00  0.00    +0.000 NA
ATOM     23  C   UNL     1      -0.826   9.037  22.568  0.00  0.00    +0.000 C 
ATOM     24  C   UNL     1      -0.274  10.317  23.233  0.00  0.00    +0.000 C 
ATOM     25  N   UNL     1      -0.634  11.512  22.449  0.00  0.00    +0.000 N 
ATOM     26  C   UNL     1      -0.361  11.422  21.000  0.00  0.00    +0.000 C 
ATOM     27  C   UNL     1      -0.819  10.061  20.410  0.00  0.00    +0.000 C 
BRANCH  25  28
ATOM     28  C   UNL     1      -1.565  12.427  22.936  0.00  0.00    +0.000 A 
ATOM     29  C   UNL     1      -2.791  11.975  23.469  0.00  0.00    +0.000 A 
ATOM     30  C   UNL     1      -3.726  12.837  24.048  0.00  0.00    +0.000 A 
ATOM     31  C   UNL     1      -3.475  14.200  24.096  0.00  0.00    +0.000 A 
ATOM     32  C   UNL     1      -2.293  14.693  23.559  0.00  0.00    +0.000 A 
ATOM     33  C   UNL     1      -1.345  13.827  22.990  0.00  0.00    +0.000 A 
ATOM     34 CL   UNL     1       0.136  14.570  22.471  0.00  0.00    +0.000 Cl
ENDBRANCH  25  28
ENDBRANCH  21  22
ENDBRANCH  20  21
ENDBRANCH   3  20
TORSDOF 10
ENDMDL
MODEL 2
REMARK VINA RESULT:      -7.4      1.886      2.228
REMARK  Name = 
REMARK  14 active torsions:
REMARK  status: ('A' for Active; 'I' for Inactive)
REMARK    1  A    between atoms: C_1  and  C_2
REMARK    2  A    between atoms: C_2  and  C_3
REMARK    3  A    between atoms: C_3  and  C_4
REMARK    4  A    between atoms: C_4  and  N_5
REMARK    5  A    between atoms: C_6  and  C_7
REMARK    6  A    between atoms: C_8  and  C_9
REMARK    7  A    between atoms: C_9  and  C_11
REMARK    8  A    between atoms: C_11  and  C_12
REMARK    9  A    between atoms: C_13  and  C_14
REMARK   10  A    between atoms: N_16  and  C_17
REMARK   11  A    between atoms: C_17  and  C_18
REMARK   12  A    between atoms: C_18  and  N_19
REMARK   13  A    between atoms: N_22  and  C_23
REMARK   14  A    between atoms: C_32  and  C_33
REMARK                            x       y       z     vdW  Elec       q    Type
REMARK                         _______ _______ _______ _____ _____    ______ ____
ROOT
ATOM      1  C   UNL     1       2.801   7.371  18.532  0.00  0.00    +0.000 C 
ATOM      2  O   UNL     1       2.409   7.496  19.691  0.00  0.00    +0.000 OA
ATOM      3  N   UNL     1       2.647   8.384  17.619  0.00  0.00    +0.000 N 
ATOM      4  H   UNL     1       2.966   8.269  16.669  0.00  0.00    +0.000 HD
ENDROOT
BRANCH   1   9
ATOM      5  N   UNL     1       5.036   4.786  17.163  0.00  0.00    +0.000 N 
ATOM      6  C   UNL     1       3.936   4.015  17.464  0.00  0.00    +0.000 A 
ATOM      7  C   UNL     1       3.862   2.536  17.230  0.00  0.00    +0.000 C 
ATOM      8  C   UNL     1       2.952   4.837  18.010  0.00  0.00    +0.000 A 
ATOM      9  C   UNL     1       3.506   6.175  18.069  0.00  0.00    +0.000 A 
ATOM     10  C   UNL     1       4.803   6.104  17.541  0.00  0.00    +0.000 A 
ATOM     11  C   UNL     1       5.836   7.158  17.286  0.00  0.00    +0.000 C 
BRANCH   8  12
ATOM     12  C   UNL     1       1.622   4.319  18.435  0.00  0.00    +0.000 C 
ATOM     13  O   UNL     1       0.812   3.923  17.593  0.00  0.00    +0.000 OA
BRANCH  12  14
ATOM     14  C   UNL     1       1.267   4.238  19.908  0.00  0.00    +0.000 C 
ATOM     15  C   UNL     1       1.286   2.817  20.460  0.00  0.00    +0.000 C 
ENDBRANCH  12  14
ENDBRANCH   8  12
BRANCH   5  16
ATOM     16  C   UNL     1       6.290   4.282  16.603  0.00  0.00    +0.000 C 
BRANCH  16  17
ATOM     17  C   UNL     1       6.561   4.715  15.159  0.00  0.00    +0.000 C 
BRANCH  17  19
ATOM     18  C   UNL     1       6.199   3.654  12.911  0.00  0.00    +0.000 C 
ATOM     19  C   UNL     1       5.535   4.104  14.203  0.00  0.00    +0.000 C 
ENDBRANCH  17  19
ENDBRANCH  16  17
ENDBRANCH   5  16
ENDBRANCH   1   9
BRANCH   3  20
ATOM     20  C   UNL     1       2.066   9.657  17.986  0.00  0.00    +0.000 C 
BRANCH  20  21
ATOM     21  C   UNL     1       0.537   9.658  17.829  0.00  0.00    +0.000 C 
BRANCH  21  22
ATOM     22  N   UNL     1      -0.207   9.849  19.095  0.00  0.00    +0.000 NA
ATOM     23  C   UNL     1       0.497  10.755  20.039  0.00  0.00    +0.000 C 
ATOM     24  C   UNL     1       0.649  12.203  19.528  0.00  0.00    +0.000 C 
ATOM     25  N   UNL     1      -0.664  12.779  19.188  0.00  0.00    +0.000 N 
ATOM     26  C   UNL     1      -1.526  11.930  18.341  0.00  0.00    +0.000 C 
ATOM     27  C   UNL     1      -1.538  10.454  18.825  0.00  0.00    +0.000 C 
BRANCH  25  28
ATOM     28  C   UNL     1      -1.220  13.790  19.970  0.00  0.00    +0.000 A 
ATOM     29  C   UNL     1      -2.130  13.470  21.000  0.00  0.00    +0.000 A 
ATOM     30  C   UNL     1      -2.654  14.429  21.869  0.00  0.00    +0.000 A 
ATOM     31  C   UNL     1      -2.300  15.762  21.724  0.00  0.00    +0.000 A 
ATOM     32  C   UNL     1      -1.428  16.128  20.707  0.00  0.00    +0.000 A 
ATOM     33  C   UNL     1      -0.889  15.163  19.841  0.00  0.00    +0.000 A 
ATOM     34 CL   UNL     1       0.279  15.749  18.698  0.00  0.00    +0.000 Cl
ENDBRANCH  25  28
ENDBRANCH  21  22
ENDBRANCH  20  21
ENDBRANCH   3  20
TORSDOF 10
ENDMDL
MODEL 3
REMARK VINA RESULT:      -7.3      1.827      3.896
REMARK  Name = 
REMARK  14 active torsions:
REMARK  status: ('A' for Active; 'I' for Inactive)
REMARK    1  A    between atoms: C_1  and  C_2
REMARK    2  A    between atoms: C_2  and  C_3
REMARK    3  A    between atoms: C_3  and  C_4
REMARK    4  A    between atoms: C_4  and  N_5
REMARK    5  A    between atoms: C_6  and  C_7
REMARK    6  A    between atoms: C_8  and  C_9
REMARK    7  A    between atoms: C_9  and  C_11
REMARK    8  A    between atoms: C_11  and  C_12
REMARK    9  A    between atoms: C_13  and  C_14
REMARK   10  A    between atoms: N_16  and  C_17
REMARK   11  A    between atoms: C_17  and  C_18
REMARK   12  A    between atoms: C_18  and  N_19
REMARK   13  A    between atoms: N_22  and  C_23
REMARK   14  A    between atoms: C_32  and  C_33
REMARK                            x       y       z     vdW  Elec       q    Type
REMARK                         _______ _______ _______ _____ _____    ______ ____
ROOT
ATOM      1  C   UNL     1       2.948   7.595  18.201  0.00  0.00    +0.000 C 
ATOM      2  O   UNL     1       3.635   7.882  17.223  0.00  0.00    +0.000 OA
ATOM      3  N   UNL     1       1.961   8.437  18.647  0.00  0.00    +0.000 N 
ATOM      4  H   UNL     1       1.407   8.195  19.454  0.00  0.00    +0.000 HD
ENDROOT
BRANCH   1   9
ATOM      5  N   UNL     1       2.882   4.655  20.417  0.00  0.00    +0.000 N 
ATOM      6  C   UNL     1       3.889   4.282  19.555  0.00  0.00    +0.000 A 
ATOM      7  C   UNL     1       4.634   2.985  19.652  0.00  0.00    +0.000 C 
ATOM      8  C   UNL     1       4.068   5.294  18.615  0.00  0.00    +0.000 A 
ATOM      9  C   UNL     1       3.090   6.322  18.911  0.00  0.00    +0.000 A 
ATOM     10  C   UNL     1       2.367   5.889  20.031  0.00  0.00    +0.000 A 
ATOM     11  C   UNL     1       1.281   6.539  20.831  0.00  0.00    +0.000 C 
BRANCH   8  12
ATOM     12  C   UNL     1       5.095   5.214  17.539  0.00  0.00    +0.000 C 
ATOM     13  O   UNL     1       6.227   5.668  17.727  0.00  0.00    +0.000 OA
BRANCH  12  14
ATOM     14  C   UNL     1       4.770   4.540  16.219  0.00  0.00    +0.000 C 
ATOM     15  C   UNL     1       5.963   3.829  15.590  0.00  0.00    +0.000 C 
ENDBRANCH  12  14
ENDBRANCH   8  12
BRANCH   5  16
ATOM     16  C   UNL     1       2.376   3.844  21.524  0.00  0.00    +0.000 C 
BRANCH  16  17
ATOM     17  C   UNL     1       1.489   2.670  21.098  0.00  0.00    +0.000 C 
BRANCH  17  19
ATOM     18  C   UNL     1       0.964   2.264  18.676  0.00  0.00    +0.000 C 
ATOM     19  C   UNL     1       0.596   3.059  19.919  0.00  0.00    +0.000 C 
ENDBRANCH  17  19
ENDBRANCH  16  17
ENDBRANCH   5  16
ENDBRANCH   1   9
BRANCH   3  20
ATOM     20  C   UNL     1       1.649   9.673  17.962  0.00  0.00    +0.000 C 
BRANCH  20  21
ATOM     21  C   UNL     1       0.422  10.373  18.568  0.00  0.00    +0.000 C 
BRANCH  21  22
ATOM     22  N   UNL     1       0.726  11.642  19.268  0.00  0.00    +0.000 NA
ATOM     23  C   UNL     1      -0.390  12.620  19.186  0.00  0.00    +0.000 C 
ATOM     24  C   UNL     1      -1.684  12.160  19.891  0.00  0.00    +0.000 C 
ATOM     25  N   UNL     1      -1.423  11.836  21.305  0.00  0.00    +0.000 N 
ATOM     26  C   UNL     1      -0.262  10.956  21.547  0.00  0.00    +0.000 C 
ATOM     27  C   UNL     1       0.974  11.388  20.711  0.00  0.00    +0.000 C 
BRANCH  25  28
ATOM     28  C   UNL     1      -1.915  12.650  22.323  0.00  0.00    +0.000 A 
ATOM     29  C   UNL     1      -3.107  12.304  22.993  0.00  0.00    +0.000 A 
ATOM     30  C   UNL     1      -3.603  13.033  24.077  0.00  0.00    +0.000 A 
ATOM     31  C   UNL     1      -2.928  14.160  24.520  0.00  0.00    +0.000 A 
ATOM     32  C   UNL     1      -1.764  14.554  23.873  0.00  0.00    +0.000 A 
ATOM     33  C   UNL     1      -1.255  13.814  22.793  0.00  0.00    +0.000 A 
ATOM     34 CL   UNL     1       0.269  14.355  22.164  0.00  0.00    +0.000 Cl
ENDBRANCH  25  28
ENDBRANCH  21  22
ENDBRANCH  20  21
ENDBRANCH   3  20
TORSDOF 10
ENDMDL
MODEL 4
REMARK VINA RESULT:      -7.2      2.071      4.088
REMARK  Name = 
REMARK  14 active torsions:
REMARK  status: ('A' for Active; 'I' for Inactive)
REMARK    1  A    between atoms: C_1  and  C_2
REMARK    2  A    between atoms: C_2  and  C_3
REMARK    3  A    between atoms: C_3  and  C_4
REMARK    4  A    between atoms: C_4  and  N_5
REMARK    5  A    between atoms: C_6  and  C_7
REMARK    6  A    between atoms: C_8  and  C_9
REMARK    7  A    between atoms: C_9  and  C_11
REMARK    8  A    between atoms: C_11  and  C_12
REMARK    9  A    between atoms: C_13  and  C_14
REMARK   10  A    between atoms: N_16  and  C_17
REMARK   11  A    between atoms: C_17  and  C_18
REMARK   12  A    between atoms: C_18  and  N_19
REMARK   13  A    between atoms: N_22  and  C_23
REMARK   14  A    between atoms: C_32  and  C_33
REMARK                            x       y       z     vdW  Elec       q    Type
REMARK                         _______ _______ _______ _____ _____    ______ ____
ROOT
ATOM      1  C   UNL     1       2.985   7.510  18.118  0.00  0.00    +0.000 C 
ATOM      2  O   UNL     1       3.594   7.720  17.071  0.00  0.00    +0.000 OA
ATOM      3  N   UNL     1       2.108   8.435  18.626  0.00  0.00    +0.000 N 
ATOM      4  H   UNL     1       1.618   8.255  19.490  0.00  0.00    +0.000 HD
ENDROOT
BRANCH   1   9
ATOM      5  N   UNL     1       2.871   4.619  20.395  0.00  0.00    +0.000 N 
ATOM      6  C   UNL     1       3.856   4.201  19.529  0.00  0.00    +0.000 A 
ATOM      7  C   UNL     1       4.568   2.887  19.643  0.00  0.00    +0.000 C 
ATOM      8  C   UNL     1       4.050   5.189  18.565  0.00  0.00    +0.000 A 
ATOM      9  C   UNL     1       3.102   6.249  18.852  0.00  0.00    +0.000 A 
ATOM     10  C   UNL     1       2.384   5.858  19.990  0.00  0.00    +0.000 A 
ATOM     11  C   UNL     1       1.325   6.553  20.790  0.00  0.00    +0.000 C 
BRANCH   8  12
ATOM     12  C   UNL     1       5.059   5.060  17.479  0.00  0.00    +0.000 C 
ATOM     13  O   UNL     1       6.167   5.592  17.594  0.00  0.00    +0.000 OA
BRANCH  12  14
ATOM     14  C   UNL     1       4.750   4.241  16.239  0.00  0.00    +0.000 C 
ATOM     15  C   UNL     1       5.986   3.894  15.416  0.00  0.00    +0.000 C 
ENDBRANCH  12  14
ENDBRANCH   8  12
BRANCH   5  16
ATOM     16  C   UNL     1       2.358   3.844  21.525  0.00  0.00    +0.000 C 
BRANCH  16  17
ATOM     17  C   UNL     1       1.405   2.710  21.138  0.00  0.00    +0.000 C 
BRANCH  17  19
ATOM     18  C   UNL     1       0.885   2.225  18.729  0.00  0.00    +0.000 C 
ATOM     19  C   UNL     1       0.554   3.100  19.928  0.00  0.00    +0.000 C 
ENDBRANCH  17  19
ENDBRANCH  16  17
ENDBRANCH   5  16
ENDBRANCH   1   9
BRANCH   3  20
ATOM     20  C   UNL     1       1.822   9.672  17.934  0.00  0.00    +0.000 C 
BRANCH  20  21
ATOM     21  C   UNL     1       0.660  10.440  18.584  0.00  0.00    +0.000 C 
BRANCH  21  22
ATOM     22  N   UNL     1       1.080  11.481  19.551  0.00  0.00    +0.000 NA
ATOM     23  C   UNL     1       0.312  12.743  19.398  0.00  0.00    +0.000 C 
ATOM     24  C   UNL     1      -1.196  12.606  19.701  0.00  0.00    +0.000 C 
ATOM     25  N   UNL     1      -1.411  12.066  21.055  0.00  0.00    +0.000 N 
ATOM     26  C   UNL     1      -0.618  10.865  21.389  0.00  0.00    +0.000 C 
ATOM     27  C   UNL     1       0.862  11.008  20.944  0.00  0.00    +0.000 C 
BRANCH  25  28
ATOM     28  C   UNL     1      -1.931  12.870  22.067  0.00  0.00    +0.000 A 
ATOM     29  C   UNL     1      -1.068  13.490  22.995  0.00  0.00    +0.000 A 
ATOM     30  C   UNL     1      -1.523  14.373  23.977  0.00  0.00    +0.000 A 
ATOM     31  C   UNL     1      -2.877  14.656  24.080  0.00  0.00    +0.000 A 
ATOM     32  C   UNL     1      -3.767  14.048  23.205  0.00  0.00    +0.000 A 
ATOM     33  C   UNL     1      -3.310  13.171  22.207  0.00  0.00    +0.000 A 
ATOM     34 CL   UNL     1      -4.521  12.584  21.111  0.00  0.00    +0.000 Cl
ENDBRANCH  25  28
ENDBRANCH  21  22
ENDBRANCH  20  21
ENDBRANCH   3  20
TORSDOF 10
ENDMDL
MODEL 5
REMARK VINA RESULT:      -7.2      2.256      2.821
REMARK  Name = 
REMARK  14 active torsions:
REMARK  status: ('A' for Active; 'I' for Inactive)
REMARK    1  A    between atoms: C_1  and  C_2
REMARK    2  A    between atoms: C_2  and  C_3
REMARK    3  A    between atoms: C_3  and  C_4
REMARK    4  A    between atoms: C_4  and  N_5
REMARK    5  A    between atoms: C_6  and  C_7
REMARK    6  A    between atoms: C_8  and  C_9
REMARK    7  A    between atoms: C_9  and  C_11
REMARK    8  A    between atoms: C_11  and  C_12
REMARK    9  A    between atoms: C_13  and  C_14
REMARK   10  A    between atoms: N_16  and  C_17
REMARK   11  A    between atoms: C_17  and  C_18
REMARK   12  A    between atoms: C_18  and  N_19
REMARK   13  A    between atoms: N_22  and  C_23
REMARK   14  A    between atoms: C_32  and  C_33
REMARK                            x       y       z     vdW  Elec       q    Type
REMARK                         _______ _______ _______ _____ _____    ______ ____
ROOT
ATOM      1  C   UNL     1       2.742   7.323  18.632  0.00  0.00    +0.000 C 
ATOM      2  O   UNL     1       2.406   7.433  19.810  0.00  0.00    +0.000 OA
ATOM      3  N   UNL     1       2.531   8.341  17.737  0.00  0.00    +0.000 N 
ATOM      4  H   UNL     1       2.804   8.238  16.771  0.00  0.00    +0.000 HD
ENDROOT
BRANCH   1   9
ATOM      5  N   UNL     1       4.930   4.777  17.121  0.00  0.00    +0.000 N 
ATOM      6  C   UNL     1       3.864   3.987  17.488  0.00  0.00    +0.000 A 
ATOM      7  C   UNL     1       3.799   2.508  17.255  0.00  0.00    +0.000 C 
ATOM      8  C   UNL     1       2.902   4.792  18.095  0.00  0.00    +0.000 A 
ATOM      9  C   UNL     1       3.437   6.140  18.123  0.00  0.00    +0.000 A 
ATOM     10  C   UNL     1       4.700   6.090  17.516  0.00  0.00    +0.000 A 
ATOM     11  C   UNL     1       5.698   7.162  17.201  0.00  0.00    +0.000 C 
BRANCH   8  12
ATOM     12  C   UNL     1       1.609   4.252  18.599  0.00  0.00    +0.000 C 
ATOM     13  O   UNL     1       0.791   3.766  17.814  0.00  0.00    +0.000 OA
BRANCH  12  14
ATOM     14  C   UNL     1       1.304   4.258  20.086  0.00  0.00    +0.000 C 
ATOM     15  C   UNL     1       2.309   3.468  20.916  0.00  0.00    +0.000 C 
ENDBRANCH  12  14
ENDBRANCH   8  12
BRANCH   5  16
ATOM     16  C   UNL     1       6.156   4.294  16.484  0.00  0.00    +0.000 C 
BRANCH  16  17
ATOM     17  C   UNL     1       6.329   4.731  15.026  0.00  0.00    +0.000 C 
BRANCH  17  19
ATOM     18  C   UNL     1       6.461   3.840  12.682  0.00  0.00    +0.000 C 
ATOM     19  C   UNL     1       5.872   3.629  14.068  0.00  0.00    +0.000 C 
ENDBRANCH  17  19
ENDBRANCH  16  17
ENDBRANCH   5  16
ENDBRANCH   1   9
BRANCH   3  20
ATOM     20  C   UNL     1       1.955   9.604  18.144  0.00  0.00    +0.000 C 
BRANCH  20  21
ATOM     21  C   UNL     1       0.425   9.613  17.995  0.00  0.00    +0.000 C 
BRANCH  21  22
ATOM     22  N   UNL     1      -0.300  10.156  19.167  0.00  0.00    +0.000 NA
ATOM     23  C   UNL     1       0.537  11.077  19.977  0.00  0.00    +0.000 C 
ATOM     24  C   UNL     1       0.963  12.361  19.234  0.00  0.00    +0.000 C 
ATOM     25  N   UNL     1      -0.214  13.090  18.729  0.00  0.00    +0.000 N 
ATOM     26  C   UNL     1      -1.197  12.268  17.993  0.00  0.00    +0.000 C 
ATOM     27  C   UNL     1      -1.490  10.929  18.723  0.00  0.00    +0.000 C 
BRANCH  25  28
ATOM     28  C   UNL     1      -0.593  14.306  19.293  0.00  0.00    +0.000 A 
ATOM     29  C   UNL     1      -0.233  15.519  18.669  0.00  0.00    +0.000 A 
ATOM     30  C   UNL     1      -0.656  16.765  19.140  0.00  0.00    +0.000 A 
ATOM     31  C   UNL     1      -1.445  16.844  20.277  0.00  0.00    +0.000 A 
ATOM     32  C   UNL     1      -1.802  15.676  20.940  0.00  0.00    +0.000 A 
ATOM     33  C   UNL     1      -1.390  14.422  20.460  0.00  0.00    +0.000 A 
ATOM     34 CL   UNL     1      -2.013  13.048  21.319  0.00  0.00    +0.000 Cl
ENDBRANCH  25  28
ENDBRANCH  21  22
ENDBRANCH  20  21
ENDBRANCH   3  20
TORSDOF 10
ENDMDL
MODEL 6
REMARK VINA RESULT:      -7.2      3.297      3.970
REMARK  Name = 
REMARK  14 active torsions:
REMARK  status: ('A' for Active; 'I' for Inactive)
REMARK    1  A    between atoms: C_1  and  C_2
REMARK    2  A    between atoms: C_2  and  C_3
REMARK    3  A    between atoms: C_3  and  C_4
REMARK    4  A    between atoms: C_4  and  N_5
REMARK    5  A    between atoms: C_6  and  C_7
REMARK    6  A    between atoms: C_8  and  C_9
REMARK    7  A    between atoms: C_9  and  C_11
REMARK    8  A    between atoms: C_11  and  C_12
REMARK    9  A    between atoms: C_13  and  C_14
REMARK   10  A    between atoms: N_16  and  C_17
REMARK   11  A    between atoms: C_17  and  C_18
REMARK   12  A    between atoms: C_18  and  N_19
REMARK   13  A    between atoms: N_22  and  C_23
REMARK   14  A    between atoms: C_32  and  C_33
REMARK                            x       y       z     vdW  Elec       q    Type
REMARK                         _______ _______ _______ _____ _____    ______ ____
ROOT
ATOM      1  C   UNL     1       2.389   7.141  19.144  0.00  0.00    +0.000 C 
ATOM      2  O   UNL     1       1.865   7.637  18.148  0.00  0.00    +0.000 OA
ATOM      3  N   UNL     1       2.022   7.531  20.407  0.00  0.00    +0.000 N 
ATOM      4  H   UNL     1       2.463   7.122  21.217  0.00  0.00    +0.000 HD
ENDROOT
BRANCH   1   9
ATOM      5  N   UNL     1       5.182   4.836  18.478  0.00  0.00    +0.000 N 
ATOM      6  C   UNL     1       4.392   4.032  19.269  0.00  0.00    +0.000 A 
ATOM      7  C   UNL     1       4.748   2.627  19.650  0.00  0.00    +0.000 C 
ATOM      8  C   UNL     1       3.253   4.747  19.634  0.00  0.00    +0.000 A 
ATOM      9  C   UNL     1       3.382   6.070  19.054  0.00  0.00    +0.000 A 
ATOM     10  C   UNL     1       4.594   6.090  18.349  0.00  0.00    +0.000 A 
ATOM     11  C   UNL     1       5.239   7.145  17.503  0.00  0.00    +0.000 C 
BRANCH   8  12
ATOM     12  C   UNL     1       2.179   4.161  20.482  0.00  0.00    +0.000 C 
ATOM     13  O   UNL     1       2.329   4.075  21.703  0.00  0.00    +0.000 OA
BRANCH  12  14
ATOM     14  C   UNL     1       0.874   3.702  19.857  0.00  0.00    +0.000 C 
ATOM     15  C   UNL     1       1.057   2.642  18.777  0.00  0.00    +0.000 C 
ENDBRANCH  12  14
ENDBRANCH   8  12
BRANCH   5  16
ATOM     16  C   UNL     1       6.481   4.457  17.922  0.00  0.00    +0.000 C 
BRANCH  16  17
ATOM     17  C   UNL     1       6.630   4.715  16.420  0.00  0.00    +0.000 C 
BRANCH  17  19
ATOM     18  C   UNL     1       5.826   4.087  14.124  0.00  0.00    +0.000 C 
ATOM     19  C   UNL     1       5.671   3.835  15.616  0.00  0.00    +0.000 C 
ENDBRANCH  17  19
ENDBRANCH  16  17
ENDBRANCH   5  16
ENDBRANCH   1   9
BRANCH   3  20
ATOM     20  C   UNL     1       0.972   8.501  20.629  0.00  0.00    +0.000 C 
BRANCH  20  21
ATOM     21  C   UNL     1       1.510   9.940  20.632  0.00  0.00    +0.000 C 
BRANCH  21  22
ATOM     22  N   UNL     1       0.512  10.967  20.251  0.00  0.00    +0.000 NA
ATOM     23  C   UNL     1       0.689  12.238  21.000  0.00  0.00    +0.000 C 
ATOM     24  C   UNL     1       2.024  12.959  20.712  0.00  0.00    +0.000 C 
ATOM     25  N   UNL     1       2.180  13.216  19.270  0.00  0.00    +0.000 N 
ATOM     26  C   UNL     1       1.921  12.058  18.390  0.00  0.00    +0.000 C 
ATOM     27  C   UNL     1       0.635  11.294  18.806  0.00  0.00    +0.000 C 
BRANCH  25  28
ATOM     28  C   UNL     1       2.107  14.514  18.768  0.00  0.00    +0.000 A 
ATOM     29  C   UNL     1       0.907  15.248  18.875  0.00  0.00    +0.000 A 
ATOM     30  C   UNL     1       0.797  16.580  18.467  0.00  0.00    +0.000 A 
ATOM     31  C   UNL     1       1.891  17.226  17.911  0.00  0.00    +0.000 A 
ATOM     32  C   UNL     1       3.086  16.534  17.762  0.00  0.00    +0.000 A 
ATOM     33  C   UNL     1       3.203  15.200  18.185  0.00  0.00    +0.000 A 
ATOM     34 CL   UNL     1       4.787  14.504  18.047  0.00  0.00    +0.000 Cl
ENDBRANCH  25  28
ENDBRANCH  21  22
ENDBRANCH  20  21
ENDBRANCH   3  20
TORSDOF 10
ENDMDL
MODEL 7
REMARK VINA RESULT:      -7.1      1.836      2.398
REMARK  Name = 
REMARK  14 active torsions:
REMARK  status: ('A' for Active; 'I' for Inactive)
REMARK    1  A    between atoms: C_1  and  C_2
REMARK    2  A    between atoms: C_2  and  C_3
REMARK    3  A    between atoms: C_3  and  C_4
REMARK    4  A    between atoms: C_4  and  N_5
REMARK    5  A    between atoms: C_6  and  C_7
REMARK    6  A    between atoms: C_8  and  C_9
REMARK    7  A    between atoms: C_9  and  C_11
REMARK    8  A    between atoms: C_11  and  C_12
REMARK    9  A    between atoms: C_13  and  C_14
REMARK   10  A    between atoms: N_16  and  C_17
REMARK   11  A    between atoms: C_17  and  C_18
REMARK   12  A    between atoms: C_18  and  N_19
REMARK   13  A    between atoms: N_22  and  C_23
REMARK   14  A    between atoms: C_32  and  C_33
REMARK                            x       y       z     vdW  Elec       q    Type
REMARK                         _______ _______ _______ _____ _____    ______ ____
ROOT
ATOM      1  C   UNL     1       2.357   7.283  18.686  0.00  0.00    +0.000 C 
ATOM      2  O   UNL     1       2.124   7.536  19.866  0.00  0.00    +0.000 OA
ATOM      3  N   UNL     1       1.914   8.107  17.682  0.00  0.00    +0.000 N 
ATOM      4  H   UNL     1       2.105   7.886  16.717  0.00  0.00    +0.000 HD
ENDROOT
BRANCH   1   9
ATOM      5  N   UNL     1       4.780   4.840  17.375  0.00  0.00    +0.000 N 
ATOM      6  C   UNL     1       3.809   3.984  17.844  0.00  0.00    +0.000 A 
ATOM      7  C   UNL     1       3.898   2.490  17.758  0.00  0.00    +0.000 C 
ATOM      8  C   UNL     1       2.776   4.741  18.394  0.00  0.00    +0.000 A 
ATOM      9  C   UNL     1       3.165   6.133  18.277  0.00  0.00    +0.000 A 
ATOM     10  C   UNL     1       4.417   6.155  17.646  0.00  0.00    +0.000 A 
ATOM     11  C   UNL     1       5.291   7.288  17.203  0.00  0.00    +0.000 C 
BRANCH   8  12
ATOM     12  C   UNL     1       1.555   4.123  18.981  0.00  0.00    +0.000 C 
ATOM     13  O   UNL     1       0.772   3.494  18.264  0.00  0.00    +0.000 OA
BRANCH  12  14
ATOM     14  C   UNL     1       1.285   4.226  20.471  0.00  0.00    +0.000 C 
ATOM     15  C   UNL     1       2.233   3.387  21.320  0.00  0.00    +0.000 C 
ENDBRANCH  12  14
ENDBRANCH   8  12
BRANCH   5  16
ATOM     16  C   UNL     1       6.040   4.427  16.757  0.00  0.00    +0.000 C 
BRANCH  16  17
ATOM     17  C   UNL     1       5.884   3.717  15.409  0.00  0.00    +0.000 C 
BRANCH  17  19
ATOM     18  C   UNL     1       6.401   3.806  12.953  0.00  0.00    +0.000 C 
ATOM     19  C   UNL     1       6.550   4.518  14.289  0.00  0.00    +0.000 C 
ENDBRANCH  17  19
ENDBRANCH  16  17
ENDBRANCH   5  16
ENDBRANCH   1   9
BRANCH   3  20
ATOM     20  C   UNL     1       1.201   9.333  17.965  0.00  0.00    +0.000 C 
BRANCH  20  21
ATOM     21  C   UNL     1       2.156  10.516  18.193  0.00  0.00    +0.000 C 
BRANCH  21  22
ATOM     22  N   UNL     1       1.504  11.845  18.155  0.00  0.00    +0.000 NA
ATOM     23  C   UNL     1       0.060  11.782  18.500  0.00  0.00    +0.000 C 
ATOM     24  C   UNL     1      -0.223  11.322  19.946  0.00  0.00    +0.000 C 
ATOM     25  N   UNL     1       0.473  12.185  20.917  0.00  0.00    +0.000 N 
ATOM     26  C   UNL     1       1.902  12.430  20.633  0.00  0.00    +0.000 C 
ATOM     27  C   UNL     1       2.144  12.761  19.135  0.00  0.00    +0.000 C 
BRANCH  25  28
ATOM     28  C   UNL     1      -0.243  13.058  21.733  0.00  0.00    +0.000 A 
ATOM     29  C   UNL     1      -0.230  14.444  21.471  0.00  0.00    +0.000 A 
ATOM     30  C   UNL     1      -0.995  15.358  22.201  0.00  0.00    +0.000 A 
ATOM     31  C   UNL     1      -1.793  14.915  23.245  0.00  0.00    +0.000 A 
ATOM     32  C   UNL     1      -1.817  13.562  23.556  0.00  0.00    +0.000 A 
ATOM     33  C   UNL     1      -1.060  12.639  22.814  0.00  0.00    +0.000 A 
ATOM     34 CL   UNL     1      -1.284  10.971  23.238  0.00  0.00    +0.000 Cl
ENDBRANCH  25  28
ENDBRANCH  21  22
ENDBRANCH  20  21
ENDBRANCH   3  20
TORSDOF 10
ENDMDL
MODEL 8
REMARK VINA RESULT:      -7.1      1.909      3.833
REMARK  Name = 
REMARK  14 active torsions:
REMARK  status: ('A' for Active; 'I' for Inactive)
REMARK    1  A    between atoms: C_1  and  C_2
REMARK    2  A    between atoms: C_2  and  C_3
REMARK    3  A    between atoms: C_3  and  C_4
REMARK    4  A    between atoms: C_4  and  N_5
REMARK    5  A    between atoms: C_6  and  C_7
REMARK    6  A    between atoms: C_8  and  C_9
REMARK    7  A    between atoms: C_9  and  C_11
REMARK    8  A    between atoms: C_11  and  C_12
REMARK    9  A    between atoms: C_13  and  C_14
REMARK   10  A    between atoms: N_16  and  C_17
REMARK   11  A    between atoms: C_17  and  C_18
REMARK   12  A    between atoms: C_18  and  N_19
REMARK   13  A    between atoms: N_22  and  C_23
REMARK   14  A    between atoms: C_32  and  C_33
REMARK                            x       y       z     vdW  Elec       q    Type
REMARK                         _______ _______ _______ _____ _____    ______ ____
ROOT
ATOM      1  C   UNL     1       2.983   7.645  17.959  0.00  0.00    +0.000 C 
ATOM      2  O   UNL     1       3.487   7.830  16.853  0.00  0.00    +0.000 OA
ATOM      3  N   UNL     1       2.181   8.594  18.542  0.00  0.00    +0.000 N 
ATOM      4  H   UNL     1       1.778   8.435  19.453  0.00  0.00    +0.000 HD
ENDROOT
BRANCH   1   9
ATOM      5  N   UNL     1       2.980   4.754  20.240  0.00  0.00    +0.000 N 
ATOM      6  C   UNL     1       3.981   4.374  19.375  0.00  0.00    +0.000 A 
ATOM      7  C   UNL     1       4.744   3.089  19.491  0.00  0.00    +0.000 C 
ATOM      8  C   UNL     1       4.137   5.368  18.410  0.00  0.00    +0.000 A 
ATOM      9  C   UNL     1       3.149   6.390  18.695  0.00  0.00    +0.000 A 
ATOM     10  C   UNL     1       2.445   5.972  19.833  0.00  0.00    +0.000 A 
ATOM     11  C   UNL     1       1.360   6.627  20.632  0.00  0.00    +0.000 C 
BRANCH   8  12
ATOM     12  C   UNL     1       5.152   5.277  17.325  0.00  0.00    +0.000 C 
ATOM     13  O   UNL     1       6.214   5.898  17.415  0.00  0.00    +0.000 OA
BRANCH  12  14
ATOM     14  C   UNL     1       4.906   4.390  16.118  0.00  0.00    +0.000 C 
ATOM     15  C   UNL     1       5.696   4.809  14.884  0.00  0.00    +0.000 C 
ENDBRANCH  12  14
ENDBRANCH   8  12
BRANCH   5  16
ATOM     16  C   UNL     1       2.497   3.961  21.370  0.00  0.00    +0.000 C 
BRANCH  16  17
ATOM     17  C   UNL     1       1.202   3.190  21.099  0.00  0.00    +0.000 C 
BRANCH  17  19
ATOM     18  C   UNL     1       0.728   2.566  18.712  0.00  0.00    +0.000 C 
ATOM     19  C   UNL     1       1.408   2.141  20.005  0.00  0.00    +0.000 C 
ENDBRANCH  17  19
ENDBRANCH  16  17
ENDBRANCH   5  16
ENDBRANCH   1   9
BRANCH   3  20
ATOM     20  C   UNL     1       1.851   9.829  17.865  0.00  0.00    +0.000 C 
BRANCH  20  21
ATOM     21  C   UNL     1       1.254  10.870  18.826  0.00  0.00    +0.000 C 
BRANCH  21  22
ATOM     22  N   UNL     1       0.409  10.297  19.899  0.00  0.00    +0.000 NA
ATOM     23  C   UNL     1       0.643  10.945  21.216  0.00  0.00    +0.000 C 
ATOM     24  C   UNL     1       0.259  12.439  21.261  0.00  0.00    +0.000 C 
ATOM     25  N   UNL     1      -1.148  12.631  20.868  0.00  0.00    +0.000 N 
ATOM     26  C   UNL     1      -1.555  11.943  19.625  0.00  0.00    +0.000 C 
ATOM     27  C   UNL     1      -1.030  10.482  19.576  0.00  0.00    +0.000 C 
BRANCH  25  28
ATOM     28  C   UNL     1      -2.103  13.013  21.807  0.00  0.00    +0.000 A 
ATOM     29  C   UNL     1      -2.553  12.091  22.775  0.00  0.00    +0.000 A 
ATOM     30  C   UNL     1      -3.445  12.440  23.793  0.00  0.00    +0.000 A 
ATOM     31  C   UNL     1      -3.939  13.733  23.867  0.00  0.00    +0.000 A 
ATOM     32  C   UNL     1      -3.544  14.668  22.919  0.00  0.00    +0.000 A 
ATOM     33  C   UNL     1      -2.637  14.323  21.904  0.00  0.00    +0.000 A 
ATOM     34 CL   UNL     1      -2.141  15.624  20.867  0.00  0.00    +0.000 Cl
ENDBRANCH  25  28
ENDBRANCH  21  22
ENDBRANCH  20  21
ENDBRANCH   3  20
TORSDOF 10
ENDMDL
MODEL 9
REMARK VINA RESULT:      -7.1      3.390      4.255
REMARK  Name = 
REMARK  14 active torsions:
REMARK  status: ('A' for Active; 'I' for Inactive)
REMARK    1  A    between atoms: C_1  and  C_2
REMARK    2  A    between atoms: C_2  and  C_3
REMARK    3  A    between atoms: C_3  and  C_4
REMARK    4  A    between atoms: C_4  and  N_5
REMARK    5  A    between atoms: C_6  and  C_7
REMARK    6  A    between atoms: C_8  and  C_9
REMARK    7  A    between atoms: C_9  and  C_11
REMARK    8  A    between atoms: C_11  and  C_12
REMARK    9  A    between atoms: C_13  and  C_14
REMARK   10  A    between atoms: N_16  and  C_17
REMARK   11  A    between atoms: C_17  and  C_18
REMARK   12  A    between atoms: C_18  and  N_19
REMARK   13  A    between atoms: N_22  and  C_23
REMARK   14  A    between atoms: C_32  and  C_33
REMARK                            x       y       z     vdW  Elec       q    Type
REMARK                         _______ _______ _______ _____ _____    ______ ____
ROOT
ATOM      1  C   UNL     1       2.269   7.399  18.990  0.00  0.00    +0.000 C 
ATOM      2  O   UNL     1       1.699   8.046  18.114  0.00  0.00    +0.000 OA
ATOM      3  N   UNL     1       2.022   7.633  20.319  0.00  0.00    +0.000 N 
ATOM      4  H   UNL     1       2.500   7.100  21.030  0.00  0.00    +0.000 HD
ENDROOT
BRANCH   1   9
ATOM      5  N   UNL     1       4.755   5.012  17.693  0.00  0.00    +0.000 N 
ATOM      6  C   UNL     1       4.198   4.254  18.698  0.00  0.00    +0.000 A 
ATOM      7  C   UNL     1       4.627   2.856  19.026  0.00  0.00    +0.000 C 
ATOM      8  C   UNL     1       3.206   5.005  19.326  0.00  0.00    +0.000 A 
ATOM      9  C   UNL     1       3.189   6.303  18.680  0.00  0.00    +0.000 A 
ATOM     10  C   UNL     1       4.168   6.273  17.676  0.00  0.00    +0.000 A 
ATOM     11  C   UNL     1       4.573   7.283  16.647  0.00  0.00    +0.000 C 
BRANCH   8  12
ATOM     12  C   UNL     1       2.393   4.473  20.454  0.00  0.00    +0.000 C 
ATOM     13  O   UNL     1       2.472   4.987  21.573  0.00  0.00    +0.000 OA
BRANCH  12  14
ATOM     14  C   UNL     1       1.431   3.321  20.228  0.00  0.00    +0.000 C 
ATOM     15  C   UNL     1       1.207   2.465  21.469  0.00  0.00    +0.000 C 
ENDBRANCH  12  14
ENDBRANCH   8  12
BRANCH   5  16
ATOM     16  C   UNL     1       5.852   4.586  16.825  0.00  0.00    +0.000 C 
BRANCH  16  17
ATOM     17  C   UNL     1       7.225   4.553  17.504  0.00  0.00    +0.000 C 
BRANCH  17  19
ATOM     18  C   UNL     1       7.753   5.759  19.643  0.00  0.00    +0.000 C 
ATOM     19  C   UNL     1       7.551   5.904  18.143  0.00  0.00    +0.000 C 
ENDBRANCH  17  19
ENDBRANCH  16  17
ENDBRANCH   5  16
ENDBRANCH   1   9
BRANCH   3  20
ATOM     20  C   UNL     1       1.049   8.613  20.751  0.00  0.00    +0.000 C 
BRANCH  20  21
ATOM     21  C   UNL     1       1.581  10.049  20.617  0.00  0.00    +0.000 C 
BRANCH  21  22
ATOM     22  N   UNL     1       0.586  11.025  20.115  0.00  0.00    +0.000 NA
ATOM     23  C   UNL     1       0.621  12.309  20.862  0.00  0.00    +0.000 C 
ATOM     24  C   UNL     1       1.945  13.088  20.713  0.00  0.00    +0.000 C 
ATOM     25  N   UNL     1       2.249  13.341  19.294  0.00  0.00    +0.000 N 
ATOM     26  C   UNL     1       2.141  12.165  18.406  0.00  0.00    +0.000 C 
ATOM     27  C   UNL     1       0.853  11.345  18.689  0.00  0.00    +0.000 C 
BRANCH  25  28
ATOM     28  C   UNL     1       2.173  14.629  18.769  0.00  0.00    +0.000 A 
ATOM     29  C   UNL     1       0.996  15.390  18.927  0.00  0.00    +0.000 A 
ATOM     30  C   UNL     1       0.890  16.715  18.498  0.00  0.00    +0.000 A 
ATOM     31  C   UNL     1       1.963  17.328  17.869  0.00  0.00    +0.000 A 
ATOM     32  C   UNL     1       3.134  16.608  17.669  0.00  0.00    +0.000 A 
ATOM     33  C   UNL     1       3.248  15.281  18.112  0.00  0.00    +0.000 A 
ATOM     34 CL   UNL     1       4.808  14.550  17.902  0.00  0.00    +0.000 Cl
ENDBRANCH  25  28
ENDBRANCH  21  22
ENDBRANCH  20  21
ENDBRANCH   3  20
TORSDOF 10
ENDMDL
