MODEL 1
REMARK VINA RESULT:      -7.3      0.000      0.000
REMARK  Name = 
REMARK  6 active torsions:
REMARK  status: ('A' for Active; 'I' for Inactive)
REMARK    1  A    between atoms: C_1  and  C_2
REMARK    2  A    between atoms: C_2  and  C_3
REMARK    3  A    between atoms: C_8  and  C_9
REMARK    4  A    between atoms: C_9  and  O_11
REMARK    5  A    between atoms: C_15  and  C_16
REMARK    6  A    between atoms: C_16  and  C_17
REMARK                            x       y       z     vdW  Elec       q    Type
REMARK                         _______ _______ _______ _____ _____    ______ ____
ROOT
ATOM      1  C   UNL     1       5.996   4.699  16.507  0.00  0.00    +0.000 A 
ATOM      2  N   UNL     1       4.840   4.000  16.372  0.00  0.00    +0.000 NA
ATOM      3  C   UNL     1       4.091   3.823  17.470  0.00  0.00    +0.000 A 
ATOM      4  C   UNL     1       2.922   3.084  17.372  0.00  0.00    +0.000 A 
ATOM      5  C   UNL     1       2.130   2.828  18.492  0.00  0.00    +0.000 A 
ATOM      6  C   UNL     1       2.511   3.346  19.730  0.00  0.00    +0.000 A 
ATOM      7  C   UNL     1       3.684   4.104  19.830  0.00  0.00    +0.000 A 
ATOM      8  C   UNL     1       4.480   4.354  18.719  0.00  0.00    +0.000 A 
ATOM      9  N   UNL     1       5.608   5.074  18.843  0.00  0.00    +0.000 NA
ATOM     10  C   UNL     1       6.380   5.247  17.737  0.00  0.00    +0.000 A 
ENDROOT
BRANCH   1  12
ATOM     11  C   UNL     1       6.207   3.956  14.136  0.00  0.00    +0.000 C 
ATOM     12  C   UNL     1       6.841   4.756  15.264  0.00  0.00    +0.000 C 
ENDBRANCH   1  12
BRANCH   6  13
ATOM     13  C   UNL     1       1.747   3.067  20.973  0.00  0.00    +0.000 C 
ATOM     14  O   UNL     1       2.281   2.974  22.064  0.00  0.00    +0.000 OA
BRANCH  13  15
ATOM     15  O   UNL     1       0.416   2.945  20.793  0.00  0.00    +0.000 OA
ATOM     16  H   UNL     1      -0.023   2.253  21.319  0.00  0.00    +0.000 HD
ENDBRANCH  13  15
ENDBRANCH   6  13
BRANCH  10  17
ATOM     17  C   UNL     1       7.654   6.042  17.896  0.00  0.00    +0.000 C 
ATOM     18  C   UNL     1       7.522   7.533  17.595  0.00  0.00    +0.000 C 
ENDBRANCH  10  17
TORSDOF 4
ENDMDL
MODEL 2
REMARK VINA RESULT:      -7.0      3.612      6.248
REMARK  Name = 
REMARK  6 active torsions:
REMARK  status: ('A' for Active; 'I' for Inactive)
REMARK    1  A    between atoms: C_1  and  C_2
REMARK    2  A    between atoms: C_2  and  C_3
REMARK    3  A    between atoms: C_8  and  C_9
REMARK    4  A    between atoms: C_9  and  O_11
REMARK    5  A    between atoms: C_15  and  C_16
REMARK    6  A    between atoms: C_16  and  C_17
REMARK                            x       y       z     vdW  Elec       q    Type
REMARK                         _______ _______ _______ _____ _____    ______ ____
ROOT
ATOM      1  C   UNL     1       3.073   4.491  19.502  0.00  0.00    +0.000 A 
ATOM      2  N   UNL     1       3.842   5.517  19.057  0.00  0.00    +0.000 NA
ATOM      3  C   UNL     1       4.521   5.332  17.916  0.00  0.00    +0.000 A 
ATOM      4  C   UNL     1       5.343   6.348  17.452  0.00  0.00    +0.000 A 
ATOM      5  C   UNL     1       6.110   6.191  16.297  0.00  0.00    +0.000 A 
ATOM      6  C   UNL     1       6.030   4.997  15.582  0.00  0.00    +0.000 A 
ATOM      7  C   UNL     1       5.190   3.973  16.039  0.00  0.00    +0.000 A 
ATOM      8  C   UNL     1       4.432   4.122  17.194  0.00  0.00    +0.000 A 
ATOM      9  N   UNL     1       3.644   3.120  17.620  0.00  0.00    +0.000 NA
ATOM     10  C   UNL     1       2.961   3.295  18.783  0.00  0.00    +0.000 A 
ENDROOT
BRANCH   1  12
ATOM     11  C   UNL     1       1.455   5.887  20.788  0.00  0.00    +0.000 C 
ATOM     12  C   UNL     1       2.435   4.724  20.844  0.00  0.00    +0.000 C 
ENDBRANCH   1  12
BRANCH   6  13
ATOM     13  C   UNL     1       6.857   4.739  14.377  0.00  0.00    +0.000 C 
ATOM     14  O   UNL     1       7.781   5.463  14.048  0.00  0.00    +0.000 OA
BRANCH  13  15
ATOM     15  O   UNL     1       6.512   3.631  13.690  0.00  0.00    +0.000 OA
ATOM     16  H   UNL     1       7.128   3.355  12.989  0.00  0.00    +0.000 HD
ENDBRANCH  13  15
ENDBRANCH   6  13
BRANCH  10  17
ATOM     17  C   UNL     1       2.094   2.152  19.258  0.00  0.00    +0.000 C 
ATOM     18  C   UNL     1       0.635   2.229  18.818  0.00  0.00    +0.000 C 
ENDBRANCH  10  17
TORSDOF 4
ENDMDL
MODEL 3
REMARK VINA RESULT:      -7.0      3.685      6.116
REMARK  Name = 
REMARK  6 active torsions:
REMARK  status: ('A' for Active; 'I' for Inactive)
REMARK    1  A    between atoms: C_1  and  C_2
REMARK    2  A    between atoms: C_2  and  C_3
REMARK    3  A    between atoms: C_8  and  C_9
REMARK    4  A    between atoms: C_9  and  O_11
REMARK    5  A    between atoms: C_15  and  C_16
REMARK    6  A    between atoms: C_16  and  C_17
REMARK                            x       y       z     vdW  Elec       q    Type
REMARK                         _______ _______ _______ _____ _____    ______ ____
ROOT
ATOM      1  C   UNL     1       2.284   5.617  19.602  0.00  0.00    +0.000 A 
ATOM      2  N   UNL     1       2.940   6.529  18.839  0.00  0.00    +0.000 NA
ATOM      3  C   UNL     1       3.760   6.064  17.886  0.00  0.00    +0.000 A 
ATOM      4  C   UNL     1       4.470   6.969  17.113  0.00  0.00    +0.000 A 
ATOM      5  C   UNL     1       5.374   6.539  16.140  0.00  0.00    +0.000 A 
ATOM      6  C   UNL     1       5.548   5.172  15.925  0.00  0.00    +0.000 A 
ATOM      7  C   UNL     1       4.821   4.255  16.695  0.00  0.00    +0.000 A 
ATOM      8  C   UNL     1       3.927   4.678  17.672  0.00  0.00    +0.000 A 
ATOM      9  N   UNL     1       3.251   3.779  18.406  0.00  0.00    +0.000 NA
ATOM     10  C   UNL     1       2.428   4.242  19.383  0.00  0.00    +0.000 A 
ENDROOT
BRANCH   1  12
ATOM     11  C   UNL     1       1.566   7.726  20.724  0.00  0.00    +0.000 C 
ATOM     12  C   UNL     1       1.476   6.207  20.726  0.00  0.00    +0.000 C 
ENDBRANCH   1  12
BRANCH   6  13
ATOM     13  C   UNL     1       6.531   4.643  14.947  0.00  0.00    +0.000 C 
ATOM     14  O   UNL     1       7.542   5.251  14.639  0.00  0.00    +0.000 OA
BRANCH  13  15
ATOM     15  O   UNL     1       6.220   3.431  14.444  0.00  0.00    +0.000 OA
ATOM     16  H   UNL     1       6.727   2.679  14.800  0.00  0.00    +0.000 HD
ENDBRANCH  13  15
ENDBRANCH   6  13
BRANCH  10  17
ATOM     17  C   UNL     1       1.690   3.217  20.213  0.00  0.00    +0.000 C 
ATOM     18  C   UNL     1       2.423   2.764  21.473  0.00  0.00    +0.000 C 
ENDBRANCH  10  17
TORSDOF 4
ENDMDL
MODEL 4
REMARK VINA RESULT:      -6.9      4.177      6.252
REMARK  Name = 
REMARK  6 active torsions:
REMARK  status: ('A' for Active; 'I' for Inactive)
REMARK    1  A    between atoms: C_1  and  C_2
REMARK    2  A    between atoms: C_2  and  C_3
REMARK    3  A    between atoms: C_8  and  C_9
REMARK    4  A    between atoms: C_9  and  O_11
REMARK    5  A    between atoms: C_15  and  C_16
REMARK    6  A    between atoms: C_16  and  C_17
REMARK                            x       y       z     vdW  Elec       q    Type
REMARK                         _______ _______ _______ _____ _____    ______ ____
ROOT
ATOM      1  C   UNL     1       6.910   5.916  16.979  0.00  0.00    +0.000 A 
ATOM      2  N   UNL     1       7.522   5.886  15.768  0.00  0.00    +0.000 NA
ATOM      3  C   UNL     1       6.953   5.148  14.804  0.00  0.00    +0.000 A 
ATOM      4  C   UNL     1       7.572   5.069  13.566  0.00  0.00    +0.000 A 
ATOM      5  C   UNL     1       7.050   4.276  12.543  0.00  0.00    +0.000 A 
ATOM      6  C   UNL     1       5.868   3.569  12.763  0.00  0.00    +0.000 A 
ATOM      7  C   UNL     1       5.232   3.657  14.008  0.00  0.00    +0.000 A 
ATOM      8  C   UNL     1       5.755   4.438  15.033  0.00  0.00    +0.000 A 
ATOM      9  N   UNL     1       5.133   4.496  16.223  0.00  0.00    +0.000 NA
ATOM     10  C   UNL     1       5.710   5.232  17.209  0.00  0.00    +0.000 A 
ENDROOT
BRANCH   1  12
ATOM     11  C   UNL     1       7.895   8.112  17.632  0.00  0.00    +0.000 C 
ATOM     12  C   UNL     1       7.665   6.665  18.043  0.00  0.00    +0.000 C 
ENDBRANCH   1  12
BRANCH   6  13
ATOM     13  C   UNL     1       5.286   2.664  11.741  0.00  0.00    +0.000 C 
ATOM     14  O   UNL     1       4.237   2.907  11.171  0.00  0.00    +0.000 OA
BRANCH  13  15
ATOM     15  O   UNL     1       6.023   1.564  11.485  0.00  0.00    +0.000 OA
ATOM     16  H   UNL     1       6.747   1.381  12.110  0.00  0.00    +0.000 HD
ENDBRANCH  13  15
ENDBRANCH   6  13
BRANCH  10  17
ATOM     17  C   UNL     1       5.010   5.272  18.547  0.00  0.00    +0.000 C 
ATOM     18  C   UNL     1       3.574   5.790  18.504  0.00  0.00    +0.000 C 
ENDBRANCH  10  17
TORSDOF 4
ENDMDL
MODEL 5
REMARK VINA RESULT:      -6.9      1.055      2.938
REMARK  Name = 
REMARK  6 active torsions:
REMARK  status: ('A' for Active; 'I' for Inactive)
REMARK    1  A    between atoms: C_1  and  C_2
REMARK    2  A    between atoms: C_2  and  C_3
REMARK    3  A    between atoms: C_8  and  C_9
REMARK    4  A    between atoms: C_9  and  O_11
REMARK    5  A    between atoms: C_15  and  C_16
REMARK    6  A    between atoms: C_16  and  C_17
REMARK                            x       y       z     vdW  Elec       q    Type
REMARK                         _______ _______ _______ _____ _____    ______ ____
ROOT
ATOM      1  C   UNL     1       6.192   5.640  17.130  0.00  0.00    +0.000 A 
ATOM      2  N   UNL     1       5.506   5.881  18.277  0.00  0.00    +0.000 NA
ATOM      3  C   UNL     1       4.423   5.130  18.521  0.00  0.00    +0.000 A 
ATOM      4  C   UNL     1       3.682   5.375  19.666  0.00  0.00    +0.000 A 
ATOM      5  C   UNL     1       2.519   4.656  19.945  0.00  0.00    +0.000 A 
ATOM      6  C   UNL     1       2.107   3.655  19.066  0.00  0.00    +0.000 A 
ATOM      7  C   UNL     1       2.861   3.395  17.914  0.00  0.00    +0.000 A 
ATOM      8  C   UNL     1       4.015   4.115  17.628  0.00  0.00    +0.000 A 
ATOM      9  N   UNL     1       4.715   3.856  16.510  0.00  0.00    +0.000 NA
ATOM     10  C   UNL     1       5.807   4.622  16.249  0.00  0.00    +0.000 A 
ENDROOT
BRANCH   1  12
ATOM     11  C   UNL     1       7.841   7.201  18.159  0.00  0.00    +0.000 C 
ATOM     12  C   UNL     1       7.322   6.595  16.863  0.00  0.00    +0.000 C 
ENDBRANCH   1  12
BRANCH   6  13
ATOM     13  C   UNL     1       0.852   2.889  19.270  0.00  0.00    +0.000 C 
ATOM     14  O   UNL     1       0.345   2.214  18.391  0.00  0.00    +0.000 OA
BRANCH  13  15
ATOM     15  O   UNL     1       0.334   2.989  20.512  0.00  0.00    +0.000 OA
ATOM     16  H   UNL     1       0.568   2.274  21.130  0.00  0.00    +0.000 HD
ENDBRANCH  13  15
ENDBRANCH   6  13
BRANCH  10  17
ATOM     17  C   UNL     1       6.571   4.331  14.978  0.00  0.00    +0.000 C 
ATOM     18  C   UNL     1       5.706   3.936  13.785  0.00  0.00    +0.000 C 
ENDBRANCH  10  17
TORSDOF 4
ENDMDL
MODEL 6
REMARK VINA RESULT:      -6.9      3.449      6.240
REMARK  Name = 
REMARK  6 active torsions:
REMARK  status: ('A' for Active; 'I' for Inactive)
REMARK    1  A    between atoms: C_1  and  C_2
REMARK    2  A    between atoms: C_2  and  C_3
REMARK    3  A    between atoms: C_8  and  C_9
REMARK    4  A    between atoms: C_9  and  O_11
REMARK    5  A    between atoms: C_15  and  C_16
REMARK    6  A    between atoms: C_16  and  C_17
REMARK                            x       y       z     vdW  Elec       q    Type
REMARK                         _______ _______ _______ _____ _____    ______ ____
ROOT
ATOM      1  C   UNL     1       3.026   4.419  19.703  0.00  0.00    +0.000 A 
ATOM      2  N   UNL     1       4.318   4.829  19.642  0.00  0.00    +0.000 NA
ATOM      3  C   UNL     1       4.917   4.814  18.443  0.00  0.00    +0.000 A 
ATOM      4  C   UNL     1       6.248   5.194  18.353  0.00  0.00    +0.000 A 
ATOM      5  C   UNL     1       6.934   5.151  17.139  0.00  0.00    +0.000 A 
ATOM      6  C   UNL     1       6.262   4.741  15.988  0.00  0.00    +0.000 A 
ATOM      7  C   UNL     1       4.914   4.369  16.072  0.00  0.00    +0.000 A 
ATOM      8  C   UNL     1       4.229   4.402  17.281  0.00  0.00    +0.000 A 
ATOM      9  N   UNL     1       2.939   4.028  17.339  0.00  0.00    +0.000 NA
ATOM     10  C   UNL     1       2.328   4.028  18.553  0.00  0.00    +0.000 A 
ENDROOT
BRANCH   1  12
ATOM     11  C   UNL     1       2.539   2.934  21.645  0.00  0.00    +0.000 C 
ATOM     12  C   UNL     1       2.456   4.349  21.093  0.00  0.00    +0.000 C 
ENDBRANCH   1  12
BRANCH   6  13
ATOM     13  C   UNL     1       6.943   4.618  14.675  0.00  0.00    +0.000 C 
ATOM     14  O   UNL     1       7.808   5.394  14.310  0.00  0.00    +0.000 OA
BRANCH  13  15
ATOM     15  O   UNL     1       6.536   3.567  13.933  0.00  0.00    +0.000 OA
ATOM     16  H   UNL     1       6.393   3.745  12.986  0.00  0.00    +0.000 HD
ENDBRANCH  13  15
ENDBRANCH   6  13
BRANCH  10  17
ATOM     17  C   UNL     1       0.884   3.587  18.604  0.00  0.00    +0.000 C 
ATOM     18  C   UNL     1       0.677   2.077  18.690  0.00  0.00    +0.000 C 
ENDBRANCH  10  17
TORSDOF 4
ENDMDL
MODEL 7
REMARK VINA RESULT:      -6.8      1.085      1.154
REMARK  Name = 
REMARK  6 active torsions:
REMARK  status: ('A' for Active; 'I' for Inactive)
REMARK    1  A    between atoms: C_1  and  C_2
REMARK    2  A    between atoms: C_2  and  C_3
REMARK    3  A    between atoms: C_8  and  C_9
REMARK    4  A    between atoms: C_9  and  O_11
REMARK    5  A    between atoms: C_15  and  C_16
REMARK    6  A    between atoms: C_16  and  C_17
REMARK                            x       y       z     vdW  Elec       q    Type
REMARK                         _______ _______ _______ _____ _____    ______ ____
ROOT
ATOM      1  C   UNL     1       5.933   4.909  16.046  0.00  0.00    +0.000 A 
ATOM      2  N   UNL     1       4.843   4.099  16.022  0.00  0.00    +0.000 NA
ATOM      3  C   UNL     1       3.966   4.212  17.030  0.00  0.00    +0.000 A 
ATOM      4  C   UNL     1       2.860   3.376  17.053  0.00  0.00    +0.000 A 
ATOM      5  C   UNL     1       1.941   3.417  18.102  0.00  0.00    +0.000 A 
ATOM      6  C   UNL     1       2.126   4.334  19.136  0.00  0.00    +0.000 A 
ATOM      7  C   UNL     1       3.234   5.190  19.109  0.00  0.00    +0.000 A 
ATOM      8  C   UNL     1       4.157   5.146  18.071  0.00  0.00    +0.000 A 
ATOM      9  N   UNL     1       5.219   5.969  18.074  0.00  0.00    +0.000 NA
ATOM     10  C   UNL     1       6.120   5.852  17.063  0.00  0.00    +0.000 A 
ENDROOT
BRANCH   1  12
ATOM     11  C   UNL     1       6.259   4.024  13.738  0.00  0.00    +0.000 C 
ATOM     12  C   UNL     1       6.931   4.646  14.952  0.00  0.00    +0.000 C 
ENDBRANCH   1  12
BRANCH   6  13
ATOM     13  C   UNL     1       1.220   4.396  20.311  0.00  0.00    +0.000 C 
ATOM     14  O   UNL     1       1.054   5.414  20.958  0.00  0.00    +0.000 OA
BRANCH  13  15
ATOM     15  O   UNL     1       0.587   3.237  20.587  0.00  0.00    +0.000 OA
ATOM     16  H   UNL     1       1.134   2.433  20.551  0.00  0.00    +0.000 HD
ENDBRANCH  13  15
ENDBRANCH   6  13
BRANCH  10  17
ATOM     17  C   UNL     1       7.319   6.772  17.091  0.00  0.00    +0.000 C 
ATOM     18  C   UNL     1       7.964   6.943  18.464  0.00  0.00    +0.000 C 
ENDBRANCH  10  17
TORSDOF 4
ENDMDL
MODEL 8
REMARK VINA RESULT:      -6.8      3.608      6.144
REMARK  Name = 
REMARK  6 active torsions:
REMARK  status: ('A' for Active; 'I' for Inactive)
REMARK    1  A    between atoms: C_1  and  C_2
REMARK    2  A    between atoms: C_2  and  C_3
REMARK    3  A    between atoms: C_8  and  C_9
REMARK    4  A    between atoms: C_9  and  O_11
REMARK    5  A    between atoms: C_15  and  C_16
REMARK    6  A    between atoms: C_16  and  C_17
REMARK                            x       y       z     vdW  Elec       q    Type
REMARK                         _______ _______ _______ _____ _____    ______ ____
ROOT
ATOM      1  C   UNL     1       2.207   5.966  19.992  0.00  0.00    +0.000 A 
ATOM      2  N   UNL     1       2.677   6.725  18.969  0.00  0.00    +0.000 NA
ATOM      3  C   UNL     1       3.729   6.257  18.283  0.00  0.00    +0.000 A 
ATOM      4  C   UNL     1       4.255   7.025  17.255  0.00  0.00    +0.000 A 
ATOM      5  C   UNL     1       5.379   6.609  16.541  0.00  0.00    +0.000 A 
ATOM      6  C   UNL     1       5.971   5.385  16.851  0.00  0.00    +0.000 A 
ATOM      7  C   UNL     1       5.435   4.600  17.880  0.00  0.00    +0.000 A 
ATOM      8  C   UNL     1       4.321   5.015  18.601  0.00  0.00    +0.000 A 
ATOM      9  N   UNL     1       3.833   4.251  19.592  0.00  0.00    +0.000 NA
ATOM     10  C   UNL     1       2.774   4.724  20.301  0.00  0.00    +0.000 A 
ENDROOT
BRANCH   1  12
ATOM     11  C   UNL     1       1.370   8.090  20.997  0.00  0.00    +0.000 C 
ATOM     12  C   UNL     1       1.104   6.606  20.791  0.00  0.00    +0.000 C 
ENDBRANCH   1  12
BRANCH   6  13
ATOM     13  C   UNL     1       7.200   4.905  16.171  0.00  0.00    +0.000 C 
ATOM     14  O   UNL     1       7.479   5.214  15.026  0.00  0.00    +0.000 OA
BRANCH  13  15
ATOM     15  O   UNL     1       7.987   4.118  16.933  0.00  0.00    +0.000 OA
ATOM     16  H   UNL     1       8.946   4.258  16.841  0.00  0.00    +0.000 HD
ENDBRANCH  13  15
ENDBRANCH   6  13
BRANCH  10  17
ATOM     17  C   UNL     1       2.249   3.861  21.425  0.00  0.00    +0.000 C 
ATOM     18  C   UNL     1       1.220   2.815  21.003  0.00  0.00    +0.000 C 
ENDBRANCH  10  17
TORSDOF 4
ENDMDL
MODEL 9
REMARK VINA RESULT:      -6.6      4.086      5.829
REMARK  Name = 
REMARK  6 active torsions:
REMARK  status: ('A' for Active; 'I' for Inactive)
REMARK    1  A    between atoms: C_1  and  C_2
REMARK    2  A    between atoms: C_2  and  C_3
REMARK    3  A    between atoms: C_8  and  C_9
REMARK    4  A    between atoms: C_9  and  O_11
REMARK    5  A    between atoms: C_15  and  C_16
REMARK    6  A    between atoms: C_16  and  C_17
REMARK                            x       y       z     vdW  Elec       q    Type
REMARK                         _______ _______ _______ _____ _____    ______ ____
ROOT
ATOM      1  C   UNL     1       2.631   5.668  19.214  0.00  0.00    +0.000 A 
ATOM      2  N   UNL     1       3.289   4.544  18.834  0.00  0.00    +0.000 NA
ATOM      3  C   UNL     1       4.132   4.639  17.796  0.00  0.00    +0.000 A 
ATOM      4  C   UNL     1       4.793   3.501  17.361  0.00  0.00    +0.000 A 
ATOM      5  C   UNL     1       5.644   3.533  16.256  0.00  0.00    +0.000 A 
ATOM      6  C   UNL     1       5.852   4.740  15.589  0.00  0.00    +0.000 A 
ATOM      7  C   UNL     1       5.196   5.896  16.034  0.00  0.00    +0.000 A 
ATOM      8  C   UNL     1       4.341   5.866  17.129  0.00  0.00    +0.000 A 
ATOM      9  N   UNL     1       3.713   6.985  17.528  0.00  0.00    +0.000 NA
ATOM     10  C   UNL     1       2.847   6.894  18.572  0.00  0.00    +0.000 A 
ENDROOT
BRANCH   1  12
ATOM     11  C   UNL     1       1.075   4.040  20.283  0.00  0.00    +0.000 C 
ATOM     12  C   UNL     1       1.616   5.462  20.304  0.00  0.00    +0.000 C 
ENDBRANCH   1  12
BRANCH   6  13
ATOM     13  C   UNL     1       6.699   4.838  14.374  0.00  0.00    +0.000 C 
ATOM     14  O   UNL     1       7.659   5.584  14.302  0.00  0.00    +0.000 OA
BRANCH  13  15
ATOM     15  O   UNL     1       6.326   4.019  13.368  0.00  0.00    +0.000 OA
ATOM     16  H   UNL     1       5.908   3.181  13.634  0.00  0.00    +0.000 HD
ENDBRANCH  13  15
ENDBRANCH   6  13
BRANCH  10  17
ATOM     17  C   UNL     1       2.135   8.157  18.996  0.00  0.00    +0.000 C 
ATOM     18  C   UNL     1       1.816   9.126  17.861  0.00  0.00    +0.000 C 
ENDBRANCH  10  17
TORSDOF 4
ENDMDL
