MODEL 1
REMARK VINA RESULT:      -6.9      0.000      0.000
REMARK  Name = 
REMARK  11 active torsions:
REMARK  status: ('A' for Active; 'I' for Inactive)
REMARK    1  A    between atoms: C_1  and  C_2
REMARK    2  A    between atoms: C_4  and  O_5
REMARK    3  A    between atoms: O_5  and  C_6
REMARK    4  A    between atoms: C_6  and  C_7
REMARK    5  A    between atoms: C_7  and  O_8
REMARK    6  A    between atoms: C_7  and  C_9
REMARK    7  A    between atoms: C_9  and  N_10
REMARK    8  A    between atoms: N_10  and  C_11
REMARK    9  A    between atoms: C_11  and  C_12
REMARK   10  A    between atoms: C_11  and  C_13
REMARK   11  A    between atoms: C_20  and  C_21
REMARK                            x       y       z     vdW  Elec       q    Type
REMARK                         _______ _______ _______ _____ _____    ______ ____
ROOT
ATOM      1  C   UNL     1       3.012   3.168  21.066  0.00  0.00    +0.000 C 
ENDROOT
BRANCH   1   2
ATOM      2  O   UNL     1       2.547   2.268  22.077  0.00  0.00    +0.000 OA
ATOM      3  H   UNL     1       2.527   1.368  21.697  0.00  0.00    +0.000 HD
ENDBRANCH   1   2
BRANCH   1   4
ATOM      4  C   UNL     1       2.158   4.438  20.994  0.00  0.00    +0.000 C 
BRANCH   4   5
ATOM      5  O   UNL     1       2.721   5.372  20.077  0.00  0.00    +0.000 OA
BRANCH   5   9
ATOM      6  C   UNL     1       0.033   8.991  22.155  0.00  0.00    +0.000 C 
ATOM      7  C   UNL     1       0.849   8.454  21.011  0.00  0.00    +0.000 A 
ATOM      8  C   UNL     1       1.377   7.158  21.110  0.00  0.00    +0.000 A 
ATOM      9  C   UNL     1       2.150   6.617  20.081  0.00  0.00    +0.000 A 
ATOM     10  C   UNL     1       2.393   7.375  18.936  0.00  0.00    +0.000 A 
ATOM     11  C   UNL     1       1.877   8.671  18.803  0.00  0.00    +0.000 A 
ATOM     12  C   UNL     1       2.164   9.442  17.545  0.00  0.00    +0.000 C 
ATOM     13  C   UNL     1       1.104   9.209  19.850  0.00  0.00    +0.000 A 
ATOM     14 CL   UNL     1       0.460  10.813  19.711  0.00  0.00    +0.000 Cl
ENDBRANCH   5   9
ENDBRANCH   4   5
ENDBRANCH   1   4
BRANCH   1  15
ATOM     15  C   UNL     1       2.972   2.460  19.696  0.00  0.00    +0.000 C 
BRANCH  15  16
ATOM     16  N   UNL     1       4.253   2.614  18.999  0.00  0.00    +0.000 NA
ATOM     17  H   UNL     1       4.712   1.710  18.967  0.00  0.00    +0.000 HD
BRANCH  16  18
ATOM     18  C   UNL     1       4.140   3.148  17.631  0.00  0.00    +0.000 C 
ATOM     19  C   UNL     1       2.674   3.421  17.262  0.00  0.00    +0.000 C 
BRANCH  18  20
ATOM     20  C   UNL     1       4.948   4.440  17.510  0.00  0.00    +0.000 A 
ATOM     21  C   UNL     1       6.061   4.692  18.333  0.00  0.00    +0.000 A 
ATOM     22  C   UNL     1       6.753   5.916  18.242  0.00  0.00    +0.000 A 
ATOM     23  C   UNL     1       6.336   6.888  17.341  0.00  0.00    +0.000 A 
ATOM     24  C   UNL     1       5.257   6.636  16.497  0.00  0.00    +0.000 A 
ATOM     25  C   UNL     1       4.584   5.421  16.576  0.00  0.00    +0.000 A 
ENDBRANCH  18  20
ENDBRANCH  16  18
ENDBRANCH  15  16
ENDBRANCH   1  15
TORSDOF 8
ENDMDL
MODEL 2
REMARK VINA RESULT:      -6.8      2.417      5.811
REMARK  Name = 
REMARK  11 active torsions:
REMARK  status: ('A' for Active; 'I' for Inactive)
REMARK    1  A    between atoms: C_1  and  C_2
REMARK    2  A    between atoms: C_4  and  O_5
REMARK    3  A    between atoms: O_5  and  C_6
REMARK    4  A    between atoms: C_6  and  C_7
REMARK    5  A    between atoms: C_7  and  O_8
REMARK    6  A    between atoms: C_7  and  C_9
REMARK    7  A    between atoms: C_9  and  N_10
REMARK    8  A    between atoms: N_10  and  C_11
REMARK    9  A    between atoms: C_11  and  C_12
REMARK   10  A    between atoms: C_11  and  C_13
REMARK   11  A    between atoms: C_20  and  C_21
REMARK                            x       y       z     vdW  Elec       q    Type
REMARK                         _______ _______ _______ _____ _____    ______ ____
ROOT
ATOM      1  C   UNL     1       1.745   3.032  20.698  0.00  0.00    +0.000 C 
ENDROOT
BRANCH   1   2
ATOM      2  O   UNL     1       1.441   2.777  22.074  0.00  0.00    +0.000 OA
ATOM      3  H   UNL     1       1.101   1.864  22.146  0.00  0.00    +0.000 HD
ENDBRANCH   1   2
BRANCH   1   4
ATOM      4  C   UNL     1       3.247   2.922  20.416  0.00  0.00    +0.000 C 
BRANCH   4   5
ATOM      5  O   UNL     1       3.477   2.519  19.069  0.00  0.00    +0.000 OA
BRANCH   5   9
ATOM      6  C   UNL     1       5.324   4.372  14.850  0.00  0.00    +0.000 C 
ATOM      7  C   UNL     1       5.328   4.270  16.351  0.00  0.00    +0.000 A 
ATOM      8  C   UNL     1       4.395   3.425  16.971  0.00  0.00    +0.000 A 
ATOM      9  C   UNL     1       4.350   3.303  18.361  0.00  0.00    +0.000 A 
ATOM     10  C   UNL     1       5.250   4.026  19.142  0.00  0.00    +0.000 A 
ATOM     11  C   UNL     1       6.198   4.876  18.554  0.00  0.00    +0.000 A 
ATOM     12  C   UNL     1       7.149   5.628  19.442  0.00  0.00    +0.000 C 
ATOM     13  C   UNL     1       6.230   4.996  17.152  0.00  0.00    +0.000 A 
ATOM     14 CL   UNL     1       7.389   6.046  16.402  0.00  0.00    +0.000 Cl
ENDBRANCH   5   9
ENDBRANCH   4   5
ENDBRANCH   1   4
BRANCH   1  15
ATOM     15  C   UNL     1       1.269   4.451  20.326  0.00  0.00    +0.000 C 
BRANCH  15  16
ATOM     16  N   UNL     1       2.271   5.449  20.715  0.00  0.00    +0.000 NA
ATOM     17  H   UNL     1       3.128   4.966  20.959  0.00  0.00    +0.000 HD
BRANCH  16  18
ATOM     18  C   UNL     1       2.559   6.455  19.678  0.00  0.00    +0.000 C 
ATOM     19  C   UNL     1       2.161   5.946  18.285  0.00  0.00    +0.000 C 
BRANCH  18  20
ATOM     20  C   UNL     1       1.805   7.748  19.986  0.00  0.00    +0.000 A 
ATOM     21  C   UNL     1       1.615   8.740  19.006  0.00  0.00    +0.000 A 
ATOM     22  C   UNL     1       0.968   9.950  19.330  0.00  0.00    +0.000 A 
ATOM     23  C   UNL     1       0.516  10.173  20.626  0.00  0.00    +0.000 A 
ATOM     24  C   UNL     1       0.667   9.184  21.594  0.00  0.00    +0.000 A 
ATOM     25  C   UNL     1       1.292   7.984  21.270  0.00  0.00    +0.000 A 
ENDBRANCH  18  20
ENDBRANCH  16  18
ENDBRANCH  15  16
ENDBRANCH   1  15
TORSDOF 8
ENDMDL
MODEL 3
REMARK VINA RESULT:      -6.8      3.756      5.228
REMARK  Name = 
REMARK  11 active torsions:
REMARK  status: ('A' for Active; 'I' for Inactive)
REMARK    1  A    between atoms: C_1  and  C_2
REMARK    2  A    between atoms: C_4  and  O_5
REMARK    3  A    between atoms: O_5  and  C_6
REMARK    4  A    between atoms: C_6  and  C_7
REMARK    5  A    between atoms: C_7  and  O_8
REMARK    6  A    between atoms: C_7  and  C_9
REMARK    7  A    between atoms: C_9  and  N_10
REMARK    8  A    between atoms: N_10  and  C_11
REMARK    9  A    between atoms: C_11  and  C_12
REMARK   10  A    between atoms: C_11  and  C_13
REMARK   11  A    between atoms: C_20  and  C_21
REMARK                            x       y       z     vdW  Elec       q    Type
REMARK                         _______ _______ _______ _____ _____    ______ ____
ROOT
ATOM      1  C   UNL     1       7.563   5.603  18.990  0.00  0.00    +0.000 C 
ENDROOT
BRANCH   1   2
ATOM      2  O   UNL     1       8.568   5.290  19.961  0.00  0.00    +0.000 OA
ATOM      3  H   UNL     1       9.417   5.172  19.493  0.00  0.00    +0.000 HD
ENDBRANCH   1   2
BRANCH   1   4
ATOM      4  C   UNL     1       6.153   5.318  19.514  0.00  0.00    +0.000 C 
BRANCH   4   5
ATOM      5  O   UNL     1       5.713   4.027  19.099  0.00  0.00    +0.000 OA
BRANCH   5   9
ATOM      6  C   UNL     1       1.963   2.361  21.891  0.00  0.00    +0.000 C 
ATOM      7  C   UNL     1       2.481   2.964  20.613  0.00  0.00    +0.000 A 
ATOM      8  C   UNL     1       3.860   3.189  20.485  0.00  0.00    +0.000 A 
ATOM      9  C   UNL     1       4.390   3.756  19.325  0.00  0.00    +0.000 A 
ATOM     10  C   UNL     1       3.536   4.097  18.277  0.00  0.00    +0.000 A 
ATOM     11  C   UNL     1       2.154   3.881  18.370  0.00  0.00    +0.000 A 
ATOM     12  C   UNL     1       1.279   4.262  17.209  0.00  0.00    +0.000 C 
ATOM     13  C   UNL     1       1.629   3.315  19.548  0.00  0.00    +0.000 A 
ATOM     14 CL   UNL     1      -0.078   3.046  19.690  0.00  0.00    +0.000 Cl
ENDBRANCH   5   9
ENDBRANCH   4   5
ENDBRANCH   1   4
BRANCH   1  15
ATOM     15  C   UNL     1       7.804   4.763  17.719  0.00  0.00    +0.000 C 
BRANCH  15  16
ATOM     16  N   UNL     1       7.465   5.535  16.519  0.00  0.00    +0.000 NA
ATOM     17  H   UNL     1       8.211   5.422  15.842  0.00  0.00    +0.000 HD
BRANCH  16  18
ATOM     18  C   UNL     1       6.184   5.157  15.896  0.00  0.00    +0.000 C 
ATOM     19  C   UNL     1       5.180   6.318  15.944  0.00  0.00    +0.000 C 
BRANCH  18  20
ATOM     20  C   UNL     1       6.416   4.739  14.445  0.00  0.00    +0.000 A 
ATOM     21  C   UNL     1       5.588   3.795  13.810  0.00  0.00    +0.000 A 
ATOM     22  C   UNL     1       5.858   3.382  12.489  0.00  0.00    +0.000 A 
ATOM     23  C   UNL     1       6.951   3.902  11.806  0.00  0.00    +0.000 A 
ATOM     24  C   UNL     1       7.757   4.862  12.413  0.00  0.00    +0.000 A 
ATOM     25  C   UNL     1       7.480   5.281  13.710  0.00  0.00    +0.000 A 
ENDBRANCH  18  20
ENDBRANCH  16  18
ENDBRANCH  15  16
ENDBRANCH   1  15
TORSDOF 8
ENDMDL
MODEL 4
REMARK VINA RESULT:      -6.8      2.402      5.653
REMARK  Name = 
REMARK  11 active torsions:
REMARK  status: ('A' for Active; 'I' for Inactive)
REMARK    1  A    between atoms: C_1  and  C_2
REMARK    2  A    between atoms: C_4  and  O_5
REMARK    3  A    between atoms: O_5  and  C_6
REMARK    4  A    between atoms: C_6  and  C_7
REMARK    5  A    between atoms: C_7  and  O_8
REMARK    6  A    between atoms: C_7  and  C_9
REMARK    7  A    between atoms: C_9  and  N_10
REMARK    8  A    between atoms: N_10  and  C_11
REMARK    9  A    between atoms: C_11  and  C_12
REMARK   10  A    between atoms: C_11  and  C_13
REMARK   11  A    between atoms: C_20  and  C_21
REMARK                            x       y       z     vdW  Elec       q    Type
REMARK                         _______ _______ _______ _____ _____    ______ ____
ROOT
ATOM      1  C   UNL     1       2.000   3.232  20.864  0.00  0.00    +0.000 C 
ENDROOT
BRANCH   1   2
ATOM      2  O   UNL     1       1.581   2.656  22.106  0.00  0.00    +0.000 OA
ATOM      3  H   UNL     1       1.747   1.695  22.066  0.00  0.00    +0.000 HD
ENDBRANCH   1   2
BRANCH   1   4
ATOM      4  C   UNL     1       3.312   2.619  20.364  0.00  0.00    +0.000 C 
BRANCH   4   5
ATOM      5  O   UNL     1       3.377   2.663  18.941  0.00  0.00    +0.000 OA
BRANCH   5   9
ATOM      6  C   UNL     1       7.300   5.675  19.361  0.00  0.00    +0.000 C 
ATOM      7  C   UNL     1       6.284   4.954  18.519  0.00  0.00    +0.000 A 
ATOM      8  C   UNL     1       5.316   4.165  19.158  0.00  0.00    +0.000 A 
ATOM      9  C   UNL     1       4.357   3.467  18.422  0.00  0.00    +0.000 A 
ATOM     10  C   UNL     1       4.359   3.562  17.031  0.00  0.00    +0.000 A 
ATOM     11  C   UNL     1       5.309   4.345  16.361  0.00  0.00    +0.000 A 
ATOM     12  C   UNL     1       5.263   4.417  14.860  0.00  0.00    +0.000 C 
ATOM     13  C   UNL     1       6.276   5.039  17.113  0.00  0.00    +0.000 A 
ATOM     14 CL   UNL     1       7.466   6.008  16.306  0.00  0.00    +0.000 Cl
ENDBRANCH   5   9
ENDBRANCH   4   5
ENDBRANCH   1   4
BRANCH   1  15
ATOM     15  C   UNL     1       2.196   4.751  21.048  0.00  0.00    +0.000 C 
BRANCH  15  16
ATOM     16  N   UNL     1       1.821   5.470  19.825  0.00  0.00    +0.000 NA
ATOM     17  H   UNL     1       0.833   5.690  19.871  0.00  0.00    +0.000 HD
BRANCH  16  18
ATOM     18  C   UNL     1       2.583   6.709  19.592  0.00  0.00    +0.000 C 
ATOM     19  C   UNL     1       3.031   6.818  18.127  0.00  0.00    +0.000 C 
BRANCH  18  20
ATOM     20  C   UNL     1       1.726   7.921  19.957  0.00  0.00    +0.000 A 
ATOM     21  C   UNL     1       1.151   8.058  21.234  0.00  0.00    +0.000 A 
ATOM     22  C   UNL     1       0.317   9.156  21.527  0.00  0.00    +0.000 A 
ATOM     23  C   UNL     1       0.051  10.109  20.552  0.00  0.00    +0.000 A 
ATOM     24  C   UNL     1       0.642  10.002  19.296  0.00  0.00    +0.000 A 
ATOM     25  C   UNL     1       1.479   8.928  19.012  0.00  0.00    +0.000 A 
ENDBRANCH  18  20
ENDBRANCH  16  18
ENDBRANCH  15  16
ENDBRANCH   1  15
TORSDOF 8
ENDMDL
MODEL 5
REMARK VINA RESULT:      -6.7      1.344      2.620
REMARK  Name = 
REMARK  11 active torsions:
REMARK  status: ('A' for Active; 'I' for Inactive)
REMARK    1  A    between atoms: C_1  and  C_2
REMARK    2  A    between atoms: C_4  and  O_5
REMARK    3  A    between atoms: O_5  and  C_6
REMARK    4  A    between atoms: C_6  and  C_7
REMARK    5  A    between atoms: C_7  and  O_8
REMARK    6  A    between atoms: C_7  and  C_9
REMARK    7  A    between atoms: C_9  and  N_10
REMARK    8  A    between atoms: N_10  and  C_11
REMARK    9  A    between atoms: C_11  and  C_12
REMARK   10  A    between atoms: C_11  and  C_13
REMARK   11  A    between atoms: C_20  and  C_21
REMARK                            x       y       z     vdW  Elec       q    Type
REMARK                         _______ _______ _______ _____ _____    ______ ____
ROOT
ATOM      1  C   UNL     1       1.906   3.668  18.517  0.00  0.00    +0.000 C 
ENDROOT
BRANCH   1   2
ATOM      2  O   UNL     1       1.321   4.324  17.386  0.00  0.00    +0.000 OA
ATOM      3  H   UNL     1       1.103   5.240  17.646  0.00  0.00    +0.000 HD
ENDBRANCH   1   2
BRANCH   1   4
ATOM      4  C   UNL     1       1.708   4.469  19.808  0.00  0.00    +0.000 C 
BRANCH   4   5
ATOM      5  O   UNL     1       2.671   5.515  19.904  0.00  0.00    +0.000 OA
BRANCH   5   9
ATOM      6  C   UNL     1       1.924   9.869  17.641  0.00  0.00    +0.000 C 
ATOM      7  C   UNL     1       1.742   8.956  18.823  0.00  0.00    +0.000 A 
ATOM      8  C   UNL     1       2.314   7.676  18.779  0.00  0.00    +0.000 A 
ATOM      9  C   UNL     1       2.166   6.787  19.845  0.00  0.00    +0.000 A 
ATOM     10  C   UNL     1       1.444   7.181  20.971  0.00  0.00    +0.000 A 
ATOM     11  C   UNL     1       0.863   8.455  21.049  0.00  0.00    +0.000 A 
ATOM     12  C   UNL     1       0.100   8.831  22.288  0.00  0.00    +0.000 C 
ATOM     13  C   UNL     1       1.014   9.341  19.965  0.00  0.00    +0.000 A 
ATOM     14 CL   UNL     1       0.299  10.919  20.034  0.00  0.00    +0.000 Cl
ENDBRANCH   5   9
ENDBRANCH   4   5
ENDBRANCH   1   4
BRANCH   1  15
ATOM     15  C   UNL     1       3.417   3.481  18.271  0.00  0.00    +0.000 C 
BRANCH  15  16
ATOM     16  N   UNL     1       3.933   4.546  17.405  0.00  0.00    +0.000 NA
ATOM     17  H   UNL     1       3.962   5.408  17.937  0.00  0.00    +0.000 HD
BRANCH  16  18
ATOM     18  C   UNL     1       5.269   4.278  16.844  0.00  0.00    +0.000 C 
ATOM     19  C   UNL     1       5.257   4.382  15.311  0.00  0.00    +0.000 C 
BRANCH  18  20
ATOM     20  C   UNL     1       6.281   5.269  17.417  0.00  0.00    +0.000 A 
ATOM     21  C   UNL     1       7.071   4.950  18.537  0.00  0.00    +0.000 A 
ATOM     22  C   UNL     1       7.954   5.903  19.083  0.00  0.00    +0.000 A 
ATOM     23  C   UNL     1       8.048   7.170  18.519  0.00  0.00    +0.000 A 
ATOM     24  C   UNL     1       7.298   7.484  17.389  0.00  0.00    +0.000 A 
ATOM     25  C   UNL     1       6.438   6.539  16.841  0.00  0.00    +0.000 A 
ENDBRANCH  18  20
ENDBRANCH  16  18
ENDBRANCH  15  16
ENDBRANCH   1  15
TORSDOF 8
ENDMDL
MODEL 6
REMARK VINA RESULT:      -6.6      1.035      1.310
REMARK  Name = 
REMARK  11 active torsions:
REMARK  status: ('A' for Active; 'I' for Inactive)
REMARK    1  A    between atoms: C_1  and  C_2
REMARK    2  A    between atoms: C_4  and  O_5
REMARK    3  A    between atoms: O_5  and  C_6
REMARK    4  A    between atoms: C_6  and  C_7
REMARK    5  A    between atoms: C_7  and  O_8
REMARK    6  A    between atoms: C_7  and  C_9
REMARK    7  A    between atoms: C_9  and  N_10
REMARK    8  A    between atoms: N_10  and  C_11
REMARK    9  A    between atoms: C_11  and  C_12
REMARK   10  A    between atoms: C_11  and  C_13
REMARK   11  A    between atoms: C_20  and  C_21
REMARK                            x       y       z     vdW  Elec       q    Type
REMARK                         _______ _______ _______ _____ _____    ______ ____
ROOT
ATOM      1  C   UNL     1       1.676   3.560  20.859  0.00  0.00    +0.000 C 
ENDROOT
BRANCH   1   2
ATOM      2  O   UNL     1       0.417   3.783  20.214  0.00  0.00    +0.000 OA
ATOM      3  H   UNL     1      -0.036   2.922  20.127  0.00  0.00    +0.000 HD
ENDBRANCH   1   2
BRANCH   1   4
ATOM      4  C   UNL     1       2.468   4.860  21.032  0.00  0.00    +0.000 C 
BRANCH   4   5
ATOM      5  O   UNL     1       2.390   5.656  19.853  0.00  0.00    +0.000 OA
BRANCH   5   9
ATOM      6  C   UNL     1      -0.039   9.113  22.457  0.00  0.00    +0.000 C 
ATOM      7  C   UNL     1       0.700   8.681  21.220  0.00  0.00    +0.000 A 
ATOM      8  C   UNL     1       1.175   7.362  21.146  0.00  0.00    +0.000 A 
ATOM      9  C   UNL     1       1.876   6.914  20.025  0.00  0.00    +0.000 A 
ATOM     10  C   UNL     1       2.100   7.788  18.963  0.00  0.00    +0.000 A 
ATOM     11  C   UNL     1       1.636   9.110  19.003  0.00  0.00    +0.000 A 
ATOM     12  C   UNL     1       1.901  10.009  17.828  0.00  0.00    +0.000 C 
ATOM     13  C   UNL     1       0.936   9.554  20.141  0.00  0.00    +0.000 A 
ATOM     14 CL   UNL     1       0.358  11.187  20.217  0.00  0.00    +0.000 Cl
ENDBRANCH   5   9
ENDBRANCH   4   5
ENDBRANCH   1   4
BRANCH   1  15
ATOM     15  C   UNL     1       2.512   2.573  20.018  0.00  0.00    +0.000 C 
BRANCH  15  16
ATOM     16  N   UNL     1       3.741   3.216  19.542  0.00  0.00    +0.000 NA
ATOM     17  H   UNL     1       4.527   2.818  20.044  0.00  0.00    +0.000 HD
BRANCH  16  18
ATOM     18  C   UNL     1       3.974   3.082  18.093  0.00  0.00    +0.000 C 
ATOM     19  C   UNL     1       2.674   3.290  17.302  0.00  0.00    +0.000 C 
BRANCH  18  20
ATOM     20  C   UNL     1       5.018   4.102  17.639  0.00  0.00    +0.000 A 
ATOM     21  C   UNL     1       5.458   4.159  16.304  0.00  0.00    +0.000 A 
ATOM     22  C   UNL     1       6.465   5.068  15.922  0.00  0.00    +0.000 A 
ATOM     23  C   UNL     1       7.036   5.913  16.867  0.00  0.00    +0.000 A 
ATOM     24  C   UNL     1       6.583   5.889  18.183  0.00  0.00    +0.000 A 
ATOM     25  C   UNL     1       5.578   5.003  18.556  0.00  0.00    +0.000 A 
ENDBRANCH  18  20
ENDBRANCH  16  18
ENDBRANCH  15  16
ENDBRANCH   1  15
TORSDOF 8
ENDMDL
MODEL 7
REMARK VINA RESULT:      -6.5      1.605      2.127
REMARK  Name = 
REMARK  11 active torsions:
REMARK  status: ('A' for Active; 'I' for Inactive)
REMARK    1  A    between atoms: C_1  and  C_2
REMARK    2  A    between atoms: C_4  and  O_5
REMARK    3  A    between atoms: O_5  and  C_6
REMARK    4  A    between atoms: C_6  and  C_7
REMARK    5  A    between atoms: C_7  and  O_8
REMARK    6  A    between atoms: C_7  and  C_9
REMARK    7  A    between atoms: C_9  and  N_10
REMARK    8  A    between atoms: N_10  and  C_11
REMARK    9  A    between atoms: C_11  and  C_12
REMARK   10  A    between atoms: C_11  and  C_13
REMARK   11  A    between atoms: C_20  and  C_21
REMARK                            x       y       z     vdW  Elec       q    Type
REMARK                         _______ _______ _______ _____ _____    ______ ____
ROOT
ATOM      1  C   UNL     1       3.715   4.042  18.273  0.00  0.00    +0.000 C 
ENDROOT
BRANCH   1   2
ATOM      2  O   UNL     1       2.848   3.018  18.772  0.00  0.00    +0.000 OA
ATOM      3  H   UNL     1       2.235   3.425  19.414  0.00  0.00    +0.000 HD
ENDBRANCH   1   2
BRANCH   1   4
ATOM      4  C   UNL     1       3.066   5.428  18.351  0.00  0.00    +0.000 C 
BRANCH   4   5
ATOM      5  O   UNL     1       2.795   5.781  19.705  0.00  0.00    +0.000 OA
BRANCH   5   9
ATOM      6  C   UNL     1      -0.015   8.926  22.322  0.00  0.00    +0.000 C 
ATOM      7  C   UNL     1       0.771   8.587  21.085  0.00  0.00    +0.000 A 
ATOM      8  C   UNL     1       1.392   7.331  21.004  0.00  0.00    +0.000 A 
ATOM      9  C   UNL     1       2.141   6.971  19.883  0.00  0.00    +0.000 A 
ATOM     10  C   UNL     1       2.267   7.871  18.826  0.00  0.00    +0.000 A 
ATOM     11  C   UNL     1       1.655   9.131  18.871  0.00  0.00    +0.000 A 
ATOM     12  C   UNL     1       1.818  10.061  17.701  0.00  0.00    +0.000 C 
ATOM     13  C   UNL     1       0.908   9.486  20.011  0.00  0.00    +0.000 A 
ATOM     14 CL   UNL     1       0.148  11.043  20.094  0.00  0.00    +0.000 Cl
ENDBRANCH   5   9
ENDBRANCH   4   5
ENDBRANCH   1   4
BRANCH   1  15
ATOM     15  C   UNL     1       4.069   3.738  16.803  0.00  0.00    +0.000 C 
BRANCH  15  16
ATOM     16  N   UNL     1       5.459   3.284  16.691  0.00  0.00    +0.000 NA
ATOM     17  H   UNL     1       5.466   2.378  16.235  0.00  0.00    +0.000 HD
BRANCH  16  18
ATOM     18  C   UNL     1       6.341   4.205  15.954  0.00  0.00    +0.000 C 
ATOM     19  C   UNL     1       5.564   4.969  14.872  0.00  0.00    +0.000 C 
BRANCH  18  20
ATOM     20  C   UNL     1       6.981   5.198  16.923  0.00  0.00    +0.000 A 
ATOM     21  C   UNL     1       7.489   4.787  18.169  0.00  0.00    +0.000 A 
ATOM     22  C   UNL     1       8.021   5.732  19.070  0.00  0.00    +0.000 A 
ATOM     23  C   UNL     1       8.040   7.081  18.735  0.00  0.00    +0.000 A 
ATOM     24  C   UNL     1       7.572   7.494  17.491  0.00  0.00    +0.000 A 
ATOM     25  C   UNL     1       7.063   6.559  16.595  0.00  0.00    +0.000 A 
ENDBRANCH  18  20
ENDBRANCH  16  18
ENDBRANCH  15  16
ENDBRANCH   1  15
TORSDOF 8
ENDMDL
MODEL 8
REMARK VINA RESULT:      -6.5      1.512      2.747
REMARK  Name = 
REMARK  11 active torsions:
REMARK  status: ('A' for Active; 'I' for Inactive)
REMARK    1  A    between atoms: C_1  and  C_2
REMARK    2  A    between atoms: C_4  and  O_5
REMARK    3  A    between atoms: O_5  and  C_6
REMARK    4  A    between atoms: C_6  and  C_7
REMARK    5  A    between atoms: C_7  and  O_8
REMARK    6  A    between atoms: C_7  and  C_9
REMARK    7  A    between atoms: C_9  and  N_10
REMARK    8  A    between atoms: N_10  and  C_11
REMARK    9  A    between atoms: C_11  and  C_12
REMARK   10  A    between atoms: C_11  and  C_13
REMARK   11  A    between atoms: C_20  and  C_21
REMARK                            x       y       z     vdW  Elec       q    Type
REMARK                         _______ _______ _______ _____ _____    ______ ____
ROOT
ATOM      1  C   UNL     1       3.976   4.116  18.816  0.00  0.00    +0.000 C 
ENDROOT
BRANCH   1   2
ATOM      2  O   UNL     1       2.779   3.337  18.920  0.00  0.00    +0.000 OA
ATOM      3  H   UNL     1       3.011   2.401  18.764  0.00  0.00    +0.000 HD
ENDBRANCH   1   2
BRANCH   1   4
ATOM      4  C   UNL     1       3.874   5.428  19.602  0.00  0.00    +0.000 C 
BRANCH   4   5
ATOM      5  O   UNL     1       2.559   5.601  20.122  0.00  0.00    +0.000 OA
BRANCH   5   9
ATOM      6  C   UNL     1       1.818   9.885  17.728  0.00  0.00    +0.000 C 
ATOM      7  C   UNL     1       1.627   9.006  18.933  0.00  0.00    +0.000 A 
ATOM      8  C   UNL     1       2.205   7.727  18.933  0.00  0.00    +0.000 A 
ATOM      9  C   UNL     1       2.049   6.868  20.022  0.00  0.00    +0.000 A 
ATOM     10  C   UNL     1       1.313   7.291  21.128  0.00  0.00    +0.000 A 
ATOM     11  C   UNL     1       0.726   8.564  21.163  0.00  0.00    +0.000 A 
ATOM     12  C   UNL     1      -0.052   8.972  22.382  0.00  0.00    +0.000 C 
ATOM     13  C   UNL     1       0.885   9.419  20.056  0.00  0.00    +0.000 A 
ATOM     14 CL   UNL     1       0.162  10.996  20.072  0.00  0.00    +0.000 Cl
ENDBRANCH   5   9
ENDBRANCH   4   5
ENDBRANCH   1   4
BRANCH   1  15
ATOM     15  C   UNL     1       4.245   4.442  17.332  0.00  0.00    +0.000 C 
BRANCH  15  16
ATOM     16  N   UNL     1       5.196   3.483  16.759  0.00  0.00    +0.000 NA
ATOM     17  H   UNL     1       4.697   2.883  16.112  0.00  0.00    +0.000 HD
BRANCH  16  18
ATOM     18  C   UNL     1       6.337   4.102  16.064  0.00  0.00    +0.000 C 
ATOM     19  C   UNL     1       5.893   4.769  14.754  0.00  0.00    +0.000 C 
BRANCH  18  20
ATOM     20  C   UNL     1       6.996   5.141  16.970  0.00  0.00    +0.000 A 
ATOM     21  C   UNL     1       7.574   4.782  18.202  0.00  0.00    +0.000 A 
ATOM     22  C   UNL     1       8.123   5.768  19.047  0.00  0.00    +0.000 A 
ATOM     23  C   UNL     1       8.090   7.105  18.671  0.00  0.00    +0.000 A 
ATOM     24  C   UNL     1       7.552   7.467  17.439  0.00  0.00    +0.000 A 
ATOM     25  C   UNL     1       7.025   6.493  16.598  0.00  0.00    +0.000 A 
ENDBRANCH  18  20
ENDBRANCH  16  18
ENDBRANCH  15  16
ENDBRANCH   1  15
TORSDOF 8
ENDMDL
MODEL 9
REMARK VINA RESULT:      -6.5      5.180      7.508
REMARK  Name = 
REMARK  11 active torsions:
REMARK  status: ('A' for Active; 'I' for Inactive)
REMARK    1  A    between atoms: C_1  and  C_2
REMARK    2  A    between atoms: C_4  and  O_5
REMARK    3  A    between atoms: O_5  and  C_6
REMARK    4  A    between atoms: C_6  and  C_7
REMARK    5  A    between atoms: C_7  and  O_8
REMARK    6  A    between atoms: C_7  and  C_9
REMARK    7  A    between atoms: C_9  and  N_10
REMARK    8  A    between atoms: N_10  and  C_11
REMARK    9  A    between atoms: C_11  and  C_12
REMARK   10  A    between atoms: C_11  and  C_13
REMARK   11  A    between atoms: C_20  and  C_21
REMARK                            x       y       z     vdW  Elec       q    Type
REMARK                         _______ _______ _______ _____ _____    ______ ____
ROOT
ATOM      1  C   UNL     1       7.705   7.379  17.598  0.00  0.00    +0.000 C 
ENDROOT
BRANCH   1   2
ATOM      2  O   UNL     1       7.976   6.599  18.767  0.00  0.00    +0.000 OA
ATOM      3  H   UNL     1       7.506   5.747  18.679  0.00  0.00    +0.000 HD
ENDBRANCH   1   2
BRANCH   1   4
ATOM      4  C   UNL     1       7.934   8.874  17.843  0.00  0.00    +0.000 C 
BRANCH   4   5
ATOM      5  O   UNL     1       8.871   9.073  18.898  0.00  0.00    +0.000 OA
BRANCH   5   9
ATOM      6  C   UNL     1      11.072  13.114  17.038  0.00  0.00    +0.000 C 
ATOM      7  C   UNL     1      10.451  12.371  18.189  0.00  0.00    +0.000 A 
ATOM      8  C   UNL     1       9.973  11.070  17.971  0.00  0.00    +0.000 A 
ATOM      9  C   UNL     1       9.379  10.341  19.002  0.00  0.00    +0.000 A 
ATOM     10  C   UNL     1       9.266  10.913  20.268  0.00  0.00    +0.000 A 
ATOM     11  C   UNL     1       9.737  12.209  20.522  0.00  0.00    +0.000 A 
ATOM     12  C   UNL     1       9.596  12.776  21.906  0.00  0.00    +0.000 C 
ATOM     13  C   UNL     1      10.329  12.937  19.472  0.00  0.00    +0.000 A 
ATOM     14 CL   UNL     1      10.913  14.545  19.759  0.00  0.00    +0.000 Cl
ENDBRANCH   5   9
ENDBRANCH   4   5
ENDBRANCH   1   4
BRANCH   1  15
ATOM     15  C   UNL     1       6.240   7.162  17.168  0.00  0.00    +0.000 C 
BRANCH  15  16
ATOM     16  N   UNL     1       5.743   5.874  17.665  0.00  0.00    +0.000 NA
ATOM     17  H   UNL     1       6.456   5.461  18.257  0.00  0.00    +0.000 HD
BRANCH  16  18
ATOM     18  C   UNL     1       4.479   5.961  18.417  0.00  0.00    +0.000 C 
ATOM     19  C   UNL     1       3.529   6.990  17.787  0.00  0.00    +0.000 C 
BRANCH  18  20
ATOM     20  C   UNL     1       3.801   4.592  18.453  0.00  0.00    +0.000 A 
ATOM     21  C   UNL     1       4.402   3.490  19.089  0.00  0.00    +0.000 A 
ATOM     22  C   UNL     1       3.784   2.223  19.057  0.00  0.00    +0.000 A 
ATOM     23  C   UNL     1       2.577   2.053  18.389  0.00  0.00    +0.000 A 
ATOM     24  C   UNL     1       1.957   3.144  17.787  0.00  0.00    +0.000 A 
ATOM     25  C   UNL     1       2.559   4.397  17.832  0.00  0.00    +0.000 A 
ENDBRANCH  18  20
ENDBRANCH  16  18
ENDBRANCH  15  16
ENDBRANCH   1  15
TORSDOF 8
ENDMDL
