MODEL 1
REMARK VINA RESULT:      -7.3      0.000      0.000
REMARK  Name = 
REMARK  7 active torsions:
REMARK  status: ('A' for Active; 'I' for Inactive)
REMARK    1  A    between atoms: C_1  and  C_2
REMARK    2  A    between atoms: C_4  and  O_5
REMARK    3  A    between atoms: C_6  and  N_7
REMARK    4  A    between atoms: N_8  and  C_9
REMARK    5  A    between atoms: C_12  and  C_13
REMARK    6  A    between atoms: C_13  and  O_15
REMARK    7  A    between atoms: C_19  and  C_20
REMARK                            x       y       z     vdW  Elec       q    Type
REMARK                         _______ _______ _______ _____ _____    ______ ____
ROOT
ATOM      1  N   UNL     1       8.986   9.406  19.102  0.00  0.00    +0.000 NA
ATOM      2  N   UNL     1       8.429   9.260  17.994  0.00  0.00    +0.000 NA
ENDROOT
BRANCH   1   7
ATOM      3  C   UNL     1      11.755  14.457  19.530  0.00  0.00    +0.000 C 
ATOM      4  C   UNL     1      10.991  13.163  19.410  0.00  0.00    +0.000 A 
ATOM      5  C   UNL     1      10.463  12.569  20.564  0.00  0.00    +0.000 A 
ATOM      6  C   UNL     1       9.778  11.348  20.496  0.00  0.00    +0.000 A 
ATOM      7  C   UNL     1       9.584  10.685  19.270  0.00  0.00    +0.000 A 
ATOM      8  C   UNL     1      10.110  11.301  18.120  0.00  0.00    +0.000 A 
ATOM      9  C   UNL     1      10.811  12.528  18.171  0.00  0.00    +0.000 A 
ATOM     10  C   UNL     1      11.370  13.119  16.905  0.00  0.00    +0.000 C 
BRANCH   6  11
ATOM     11  O   UNL     1       9.322  10.800  21.669  0.00  0.00    +0.000 OA
ATOM     12  H   UNL     1       8.429  11.133  21.851  0.00  0.00    +0.000 HD
ENDBRANCH   6  11
ENDBRANCH   1   7
BRANCH   2  13
ATOM     13  C   UNL     1       7.719   8.045  17.871  0.00  0.00    +0.000 A 
ATOM     14  C   UNL     1       8.149   6.955  18.635  0.00  0.00    +0.000 A 
ATOM     15  C   UNL     1       7.469   5.729  18.606  0.00  0.00    +0.000 A 
ATOM     16  C   UNL     1       6.335   5.564  17.805  0.00  0.00    +0.000 A 
ATOM     17  C   UNL     1       5.892   6.640  17.028  0.00  0.00    +0.000 A 
ATOM     18  C   UNL     1       6.581   7.867  17.067  0.00  0.00    +0.000 A 
BRANCH  16  19
ATOM     19  C   UNL     1       5.640   4.241  17.883  0.00  0.00    +0.000 C 
ATOM     20  O   UNL     1       4.972   3.807  16.963  0.00  0.00    +0.000 OA
BRANCH  19  21
ATOM     21  O   UNL     1       5.761   3.593  19.059  0.00  0.00    +0.000 OA
ATOM     22  H   UNL     1       4.952   3.220  19.447  0.00  0.00    +0.000 HD
ENDBRANCH  19  21
ENDBRANCH  16  19
ENDBRANCH   2  13
TORSDOF 5
ENDMDL
MODEL 2
REMARK VINA RESULT:      -7.3      0.775      1.366
REMARK  Name = 
REMARK  7 active torsions:
REMARK  status: ('A' for Active; 'I' for Inactive)
REMARK    1  A    between atoms: C_1  and  C_2
REMARK    2  A    between atoms: C_4  and  O_5
REMARK    3  A    between atoms: C_6  and  N_7
REMARK    4  A    between atoms: N_8  and  C_9
REMARK    5  A    between atoms: C_12  and  C_13
REMARK    6  A    between atoms: C_13  and  O_15
REMARK    7  A    between atoms: C_19  and  C_20
REMARK                            x       y       z     vdW  Elec       q    Type
REMARK                         _______ _______ _______ _____ _____    ______ ____
ROOT
ATOM      1  N   UNL     1       8.463   9.629  18.412  0.00  0.00    +0.000 NA
ATOM      2  N   UNL     1       8.807   8.518  18.865  0.00  0.00    +0.000 NA
ENDROOT
BRANCH   1   7
ATOM      3  C   UNL     1      12.331  13.760  19.569  0.00  0.00    +0.000 C 
ATOM      4  C   UNL     1      11.287  12.716  19.268  0.00  0.00    +0.000 A 
ATOM      5  C   UNL     1      10.697  12.011  20.325  0.00  0.00    +0.000 A 
ATOM      6  C   UNL     1       9.748  11.008  20.082  0.00  0.00    +0.000 A 
ATOM      7  C   UNL     1       9.344  10.684  18.773  0.00  0.00    +0.000 A 
ATOM      8  C   UNL     1       9.937  11.410  17.723  0.00  0.00    +0.000 A 
ATOM      9  C   UNL     1      10.902  12.418  17.950  0.00  0.00    +0.000 A 
ATOM     10  C   UNL     1      11.516  13.139  16.779  0.00  0.00    +0.000 C 
BRANCH   6  11
ATOM     11  O   UNL     1       9.240  10.328  21.160  0.00  0.00    +0.000 OA
ATOM     12  H   UNL     1       8.287  10.498  21.225  0.00  0.00    +0.000 HD
ENDBRANCH   6  11
ENDBRANCH   1   7
BRANCH   2  13
ATOM     13  C   UNL     1       8.013   7.445  18.401  0.00  0.00    +0.000 A 
ATOM     14  C   UNL     1       7.203   7.666  17.282  0.00  0.00    +0.000 A 
ATOM     15  C   UNL     1       6.422   6.640  16.732  0.00  0.00    +0.000 A 
ATOM     16  C   UNL     1       6.435   5.358  17.291  0.00  0.00    +0.000 A 
ATOM     17  C   UNL     1       7.234   5.117  18.414  0.00  0.00    +0.000 A 
ATOM     18  C   UNL     1       8.016   6.155  18.957  0.00  0.00    +0.000 A 
BRANCH  16  19
ATOM     19  C   UNL     1       5.617   4.312  16.601  0.00  0.00    +0.000 C 
ATOM     20  O   UNL     1       5.392   4.352  15.406  0.00  0.00    +0.000 OA
BRANCH  19  21
ATOM     21  O   UNL     1       5.103   3.357  17.403  0.00  0.00    +0.000 OA
ATOM     22  H   UNL     1       4.957   3.589  18.334  0.00  0.00    +0.000 HD
ENDBRANCH  19  21
ENDBRANCH  16  19
ENDBRANCH   2  13
TORSDOF 5
ENDMDL
MODEL 3
REMARK VINA RESULT:      -7.2      1.508      1.866
REMARK  Name = 
REMARK  7 active torsions:
REMARK  status: ('A' for Active; 'I' for Inactive)
REMARK    1  A    between atoms: C_1  and  C_2
REMARK    2  A    between atoms: C_4  and  O_5
REMARK    3  A    between atoms: C_6  and  N_7
REMARK    4  A    between atoms: N_8  and  C_9
REMARK    5  A    between atoms: C_12  and  C_13
REMARK    6  A    between atoms: C_13  and  O_15
REMARK    7  A    between atoms: C_19  and  C_20
REMARK                            x       y       z     vdW  Elec       q    Type
REMARK                         _______ _______ _______ _____ _____    ______ ____
ROOT
ATOM      1  N   UNL     1       8.164  10.045  17.897  0.00  0.00    +0.000 NA
ATOM      2  N   UNL     1       8.662   9.003  18.372  0.00  0.00    +0.000 NA
ENDROOT
BRANCH   1   7
ATOM      3  C   UNL     1      11.603  14.577  18.903  0.00  0.00    +0.000 C 
ATOM      4  C   UNL     1      10.731  13.384  18.600  0.00  0.00    +0.000 A 
ATOM      5  C   UNL     1       9.562  13.562  17.850  0.00  0.00    +0.000 A 
ATOM      6  C   UNL     1       8.708  12.483  17.579  0.00  0.00    +0.000 A 
ATOM      7  C   UNL     1       9.001  11.185  18.037  0.00  0.00    +0.000 A 
ATOM      8  C   UNL     1      10.186  11.022  18.779  0.00  0.00    +0.000 A 
ATOM      9  C   UNL     1      11.054  12.100  19.068  0.00  0.00    +0.000 A 
ATOM     10  C   UNL     1      12.292  11.859  19.889  0.00  0.00    +0.000 C 
BRANCH   6  11
ATOM     11  O   UNL     1       7.558  12.734  16.874  0.00  0.00    +0.000 OA
ATOM     12  H   UNL     1       6.805  12.750  17.486  0.00  0.00    +0.000 HD
ENDBRANCH   6  11
ENDBRANCH   1   7
BRANCH   2  13
ATOM     13  C   UNL     1       7.897   7.842  18.118  0.00  0.00    +0.000 A 
ATOM     14  C   UNL     1       8.192   6.690  18.854  0.00  0.00    +0.000 A 
ATOM     15  C   UNL     1       7.448   5.511  18.695  0.00  0.00    +0.000 A 
ATOM     16  C   UNL     1       6.384   5.459  17.789  0.00  0.00    +0.000 A 
ATOM     17  C   UNL     1       6.077   6.599  17.038  0.00  0.00    +0.000 A 
ATOM     18  C   UNL     1       6.829   7.777  17.208  0.00  0.00    +0.000 A 
BRANCH  16  19
ATOM     19  C   UNL     1       5.610   4.180  17.730  0.00  0.00    +0.000 C 
ATOM     20  O   UNL     1       5.060   3.804  16.712  0.00  0.00    +0.000 OA
BRANCH  19  21
ATOM     21  O   UNL     1       5.520   3.504  18.894  0.00  0.00    +0.000 OA
ATOM     22  H   UNL     1       5.073   2.642  18.875  0.00  0.00    +0.000 HD
ENDBRANCH  19  21
ENDBRANCH  16  19
ENDBRANCH   2  13
TORSDOF 5
ENDMDL
MODEL 4
REMARK VINA RESULT:      -7.2      6.420      7.783
REMARK  Name = 
REMARK  7 active torsions:
REMARK  status: ('A' for Active; 'I' for Inactive)
REMARK    1  A    between atoms: C_1  and  C_2
REMARK    2  A    between atoms: C_4  and  O_5
REMARK    3  A    between atoms: C_6  and  N_7
REMARK    4  A    between atoms: N_8  and  C_9
REMARK    5  A    between atoms: C_12  and  C_13
REMARK    6  A    between atoms: C_13  and  O_15
REMARK    7  A    between atoms: C_19  and  C_20
REMARK                            x       y       z     vdW  Elec       q    Type
REMARK                         _______ _______ _______ _____ _____    ______ ____
ROOT
ATOM      1  N   UNL     1       2.358   7.979  18.554  0.00  0.00    +0.000 NA
ATOM      2  N   UNL     1       2.504   6.747  18.699  0.00  0.00    +0.000 NA
ENDROOT
BRANCH   1   7
ATOM      3  C   UNL     1      -0.727  10.785  22.551  0.00  0.00    +0.000 C 
ATOM      4  C   UNL     1       0.037  10.032  21.492  0.00  0.00    +0.000 A 
ATOM      5  C   UNL     1       0.602   8.789  21.807  0.00  0.00    +0.000 A 
ATOM      6  C   UNL     1       1.349   8.076  20.859  0.00  0.00    +0.000 A 
ATOM      7  C   UNL     1       1.546   8.574  19.557  0.00  0.00    +0.000 A 
ATOM      8  C   UNL     1       0.962   9.818  19.254  0.00  0.00    +0.000 A 
ATOM      9  C   UNL     1       0.213  10.554  20.200  0.00  0.00    +0.000 A 
ATOM     10  C   UNL     1      -0.363  11.891  19.817  0.00  0.00    +0.000 C 
BRANCH   6  11
ATOM     11  O   UNL     1       1.909   6.885  21.245  0.00  0.00    +0.000 OA
ATOM     12  H   UNL     1       2.808   7.046  21.575  0.00  0.00    +0.000 HD
ENDBRANCH   6  11
ENDBRANCH   1   7
BRANCH   2  13
ATOM     13  C   UNL     1       3.416   6.172  17.786  0.00  0.00    +0.000 A 
ATOM     14  C   UNL     1       4.305   7.025  17.124  0.00  0.00    +0.000 A 
ATOM     15  C   UNL     1       5.272   6.526  16.239  0.00  0.00    +0.000 A 
ATOM     16  C   UNL     1       5.372   5.153  15.994  0.00  0.00    +0.000 A 
ATOM     17  C   UNL     1       4.487   4.284  16.642  0.00  0.00    +0.000 A 
ATOM     18  C   UNL     1       3.522   4.795  17.531  0.00  0.00    +0.000 A 
BRANCH  16  19
ATOM     19  C   UNL     1       6.471   4.708  15.082  0.00  0.00    +0.000 C 
ATOM     20  O   UNL     1       6.382   3.701  14.406  0.00  0.00    +0.000 OA
BRANCH  19  21
ATOM     21  O   UNL     1       7.585   5.469  15.104  0.00  0.00    +0.000 OA
ATOM     22  H   UNL     1       7.720   6.081  14.364  0.00  0.00    +0.000 HD
ENDBRANCH  19  21
ENDBRANCH  16  19
ENDBRANCH   2  13
TORSDOF 5
ENDMDL
MODEL 5
REMARK VINA RESULT:      -7.0      6.215      7.790
REMARK  Name = 
REMARK  7 active torsions:
REMARK  status: ('A' for Active; 'I' for Inactive)
REMARK    1  A    between atoms: C_1  and  C_2
REMARK    2  A    between atoms: C_4  and  O_5
REMARK    3  A    between atoms: C_6  and  N_7
REMARK    4  A    between atoms: N_8  and  C_9
REMARK    5  A    between atoms: C_12  and  C_13
REMARK    6  A    between atoms: C_13  and  O_15
REMARK    7  A    between atoms: C_19  and  C_20
REMARK                            x       y       z     vdW  Elec       q    Type
REMARK                         _______ _______ _______ _____ _____    ______ ____
ROOT
ATOM      1  N   UNL     1       2.411   8.209  18.581  0.00  0.00    +0.000 NA
ATOM      2  N   UNL     1       2.563   7.064  19.057  0.00  0.00    +0.000 NA
ENDROOT
BRANCH   1   7
ATOM      3  C   UNL     1      -1.628  11.594  20.946  0.00  0.00    +0.000 C 
ATOM      4  C   UNL     1      -0.608  10.677  20.320  0.00  0.00    +0.000 A 
ATOM      5  C   UNL     1       0.118   9.801  21.136  0.00  0.00    +0.000 A 
ATOM      6  C   UNL     1       1.100   8.959  20.596  0.00  0.00    +0.000 A 
ATOM      7  C   UNL     1       1.380   8.952  19.216  0.00  0.00    +0.000 A 
ATOM      8  C   UNL     1       0.633   9.830  18.409  0.00  0.00    +0.000 A 
ATOM      9  C   UNL     1      -0.354  10.692  18.939  0.00  0.00    +0.000 A 
ATOM     10  C   UNL     1      -1.099  11.624  18.021  0.00  0.00    +0.000 C 
BRANCH   6  11
ATOM     11  O   UNL     1       1.804   8.154  21.457  0.00  0.00    +0.000 OA
ATOM     12  H   UNL     1       2.390   7.574  20.946  0.00  0.00    +0.000 HD
ENDBRANCH   6  11
ENDBRANCH   1   7
BRANCH   2  13
ATOM     13  C   UNL     1       3.672   6.370  18.523  0.00  0.00    +0.000 A 
ATOM     14  C   UNL     1       4.274   6.886  17.371  0.00  0.00    +0.000 A 
ATOM     15  C   UNL     1       5.407   6.282  16.806  0.00  0.00    +0.000 A 
ATOM     16  C   UNL     1       5.968   5.140  17.387  0.00  0.00    +0.000 A 
ATOM     17  C   UNL     1       5.377   4.604  18.537  0.00  0.00    +0.000 A 
ATOM     18  C   UNL     1       4.241   5.220  19.096  0.00  0.00    +0.000 A 
BRANCH  16  19
ATOM     19  C   UNL     1       7.210   4.600  16.751  0.00  0.00    +0.000 C 
ATOM     20  O   UNL     1       7.363   4.584  15.544  0.00  0.00    +0.000 OA
BRANCH  19  21
ATOM     21  O   UNL     1       8.120   4.084  17.603  0.00  0.00    +0.000 OA
ATOM     22  H   UNL     1       8.980   4.530  17.658  0.00  0.00    +0.000 HD
ENDBRANCH  19  21
ENDBRANCH  16  19
ENDBRANCH   2  13
TORSDOF 5
ENDMDL
MODEL 6
REMARK VINA RESULT:      -7.0      1.546      2.173
REMARK  Name = 
REMARK  7 active torsions:
REMARK  status: ('A' for Active; 'I' for Inactive)
REMARK    1  A    between atoms: C_1  and  C_2
REMARK    2  A    between atoms: C_4  and  O_5
REMARK    3  A    between atoms: C_6  and  N_7
REMARK    4  A    between atoms: N_8  and  C_9
REMARK    5  A    between atoms: C_12  and  C_13
REMARK    6  A    between atoms: C_13  and  O_15
REMARK    7  A    between atoms: C_19  and  C_20
REMARK                            x       y       z     vdW  Elec       q    Type
REMARK                         _______ _______ _______ _____ _____    ______ ____
ROOT
ATOM      1  N   UNL     1       8.157   9.946  17.997  0.00  0.00    +0.000 NA
ATOM      2  N   UNL     1       8.692   8.896  18.411  0.00  0.00    +0.000 NA
ENDROOT
BRANCH   1   7
ATOM      3  C   UNL     1      11.639  14.486  18.791  0.00  0.00    +0.000 C 
ATOM      4  C   UNL     1      10.756  13.290  18.544  0.00  0.00    +0.000 A 
ATOM      5  C   UNL     1       9.582  13.447  17.797  0.00  0.00    +0.000 A 
ATOM      6  C   UNL     1       8.717  12.365  17.577  0.00  0.00    +0.000 A 
ATOM      7  C   UNL     1       9.005  11.084  18.084  0.00  0.00    +0.000 A 
ATOM      8  C   UNL     1      10.194  10.941  18.822  0.00  0.00    +0.000 A 
ATOM      9  C   UNL     1      11.072  12.023  19.061  0.00  0.00    +0.000 A 
ATOM     10  C   UNL     1      12.316  11.806  19.882  0.00  0.00    +0.000 C 
BRANCH   6  11
ATOM     11  O   UNL     1       7.564  12.597  16.871  0.00  0.00    +0.000 OA
ATOM     12  H   UNL     1       7.673  13.397  16.334  0.00  0.00    +0.000 HD
ENDBRANCH   6  11
ENDBRANCH   1   7
BRANCH   2  13
ATOM     13  C   UNL     1       7.908   7.740  18.204  0.00  0.00    +0.000 A 
ATOM     14  C   UNL     1       6.896   7.799  17.240  0.00  0.00    +0.000 A 
ATOM     15  C   UNL     1       6.105   6.680  16.942  0.00  0.00    +0.000 A 
ATOM     16  C   UNL     1       6.311   5.466  17.606  0.00  0.00    +0.000 A 
ATOM     17  C   UNL     1       7.314   5.388  18.578  0.00  0.00    +0.000 A 
ATOM     18  C   UNL     1       8.104   6.517  18.867  0.00  0.00    +0.000 A 
BRANCH  16  19
ATOM     19  C   UNL     1       5.460   4.311  17.180  0.00  0.00    +0.000 C 
ATOM     20  O   UNL     1       4.958   4.252  16.073  0.00  0.00    +0.000 OA
BRANCH  19  21
ATOM     21  O   UNL     1       5.245   3.372  18.123  0.00  0.00    +0.000 OA
ATOM     22  H   UNL     1       4.334   3.260  18.440  0.00  0.00    +0.000 HD
ENDBRANCH  19  21
ENDBRANCH  16  19
ENDBRANCH   2  13
TORSDOF 5
ENDMDL
MODEL 7
REMARK VINA RESULT:      -6.9      7.378      8.454
REMARK  Name = 
REMARK  7 active torsions:
REMARK  status: ('A' for Active; 'I' for Inactive)
REMARK    1  A    between atoms: C_1  and  C_2
REMARK    2  A    between atoms: C_4  and  O_5
REMARK    3  A    between atoms: C_6  and  N_7
REMARK    4  A    between atoms: N_8  and  C_9
REMARK    5  A    between atoms: C_12  and  C_13
REMARK    6  A    between atoms: C_13  and  O_15
REMARK    7  A    between atoms: C_19  and  C_20
REMARK                            x       y       z     vdW  Elec       q    Type
REMARK                         _______ _______ _______ _____ _____    ______ ____
ROOT
ATOM      1  N   UNL     1       1.853   7.904  19.780  0.00  0.00    +0.000 NA
ATOM      2  N   UNL     1       1.489   6.925  20.465  0.00  0.00    +0.000 NA
ENDROOT
BRANCH   1   7
ATOM      3  C   UNL     1      -1.414  12.476  21.119  0.00  0.00    +0.000 C 
ATOM      4  C   UNL     1      -0.523  11.306  20.786  0.00  0.00    +0.000 A 
ATOM      5  C   UNL     1       0.037  11.213  19.506  0.00  0.00    +0.000 A 
ATOM      6  C   UNL     1       0.842  10.122  19.149  0.00  0.00    +0.000 A 
ATOM      7  C   UNL     1       1.127   9.093  20.065  0.00  0.00    +0.000 A 
ATOM      8  C   UNL     1       0.567   9.208  21.351  0.00  0.00    +0.000 A 
ATOM      9  C   UNL     1      -0.254  10.296  21.724  0.00  0.00    +0.000 A 
ATOM     10  C   UNL     1      -0.842  10.344  23.109  0.00  0.00    +0.000 C 
BRANCH   6  11
ATOM     11  O   UNL     1       1.326  10.072  17.865  0.00  0.00    +0.000 OA
ATOM     12  H   UNL     1       2.239  10.398  17.855  0.00  0.00    +0.000 HD
ENDBRANCH   6  11
ENDBRANCH   1   7
BRANCH   2  13
ATOM     13  C   UNL     1       2.293   5.776  20.285  0.00  0.00    +0.000 A 
ATOM     14  C   UNL     1       1.888   4.590  20.907  0.00  0.00    +0.000 A 
ATOM     15  C   UNL     1       2.604   3.397  20.738  0.00  0.00    +0.000 A 
ATOM     16  C   UNL     1       3.751   3.362  19.937  0.00  0.00    +0.000 A 
ATOM     17  C   UNL     1       4.176   4.539  19.312  0.00  0.00    +0.000 A 
ATOM     18  C   UNL     1       3.447   5.731  19.486  0.00  0.00    +0.000 A 
BRANCH  16  19
ATOM     19  C   UNL     1       4.416   2.032  19.768  0.00  0.00    +0.000 C 
ATOM     20  O   UNL     1       5.217   1.603  20.576  0.00  0.00    +0.000 OA
BRANCH  19  21
ATOM     21  O   UNL     1       4.107   1.372  18.633  0.00  0.00    +0.000 OA
ATOM     22  H   UNL     1       4.036   0.405  18.686  0.00  0.00    +0.000 HD
ENDBRANCH  19  21
ENDBRANCH  16  19
ENDBRANCH   2  13
TORSDOF 5
ENDMDL
MODEL 8
REMARK VINA RESULT:      -6.8      7.207      8.609
REMARK  Name = 
REMARK  7 active torsions:
REMARK  status: ('A' for Active; 'I' for Inactive)
REMARK    1  A    between atoms: C_1  and  C_2
REMARK    2  A    between atoms: C_4  and  O_5
REMARK    3  A    between atoms: C_6  and  N_7
REMARK    4  A    between atoms: N_8  and  C_9
REMARK    5  A    between atoms: C_12  and  C_13
REMARK    6  A    between atoms: C_13  and  O_15
REMARK    7  A    between atoms: C_19  and  C_20
REMARK                            x       y       z     vdW  Elec       q    Type
REMARK                         _______ _______ _______ _____ _____    ______ ____
ROOT
ATOM      1  N   UNL     1       0.947   8.184  21.168  0.00  0.00    +0.000 NA
ATOM      2  N   UNL     1       1.560   8.108  20.082  0.00  0.00    +0.000 NA
ENDROOT
BRANCH   1   7
ATOM      3  C   UNL     1      -1.908  13.201  21.380  0.00  0.00    +0.000 C 
ATOM      4  C   UNL     1      -1.206  11.868  21.329  0.00  0.00    +0.000 A 
ATOM      5  C   UNL     1      -0.719  11.304  22.515  0.00  0.00    +0.000 A 
ATOM      6  C   UNL     1      -0.029  10.083  22.502  0.00  0.00    +0.000 A 
ATOM      7  C   UNL     1       0.186   9.377  21.304  0.00  0.00    +0.000 A 
ATOM      8  C   UNL     1      -0.321   9.952  20.124  0.00  0.00    +0.000 A 
ATOM      9  C   UNL     1      -1.010  11.185  20.117  0.00  0.00    +0.000 A 
ATOM     10  C   UNL     1      -1.504  11.756  18.814  0.00  0.00    +0.000 C 
BRANCH   6  11
ATOM     11  O   UNL     1       0.458   9.607  23.694  0.00  0.00    +0.000 OA
ATOM     12  H   UNL     1      -0.222   9.062  24.121  0.00  0.00    +0.000 HD
ENDBRANCH   6  11
ENDBRANCH   1   7
BRANCH   2  13
ATOM     13  C   UNL     1       2.208   6.869  19.882  0.00  0.00    +0.000 A 
ATOM     14  C   UNL     1       1.842   5.798  20.704  0.00  0.00    +0.000 A 
ATOM     15  C   UNL     1       2.404   4.524  20.537  0.00  0.00    +0.000 A 
ATOM     16  C   UNL     1       3.353   4.290  19.537  0.00  0.00    +0.000 A 
ATOM     17  C   UNL     1       3.738   5.350  18.708  0.00  0.00    +0.000 A 
ATOM     18  C   UNL     1       3.165   6.624  18.883  0.00  0.00    +0.000 A 
BRANCH  16  19
ATOM     19  C   UNL     1       3.853   2.888  19.395  0.00  0.00    +0.000 C 
ATOM     20  O   UNL     1       3.109   1.958  19.147  0.00  0.00    +0.000 OA
BRANCH  19  21
ATOM     21  O   UNL     1       5.173   2.719  19.617  0.00  0.00    +0.000 OA
ATOM     22  H   UNL     1       5.722   3.518  19.668  0.00  0.00    +0.000 HD
ENDBRANCH  19  21
ENDBRANCH  16  19
ENDBRANCH   2  13
TORSDOF 5
ENDMDL
MODEL 9
REMARK VINA RESULT:      -6.8      6.471      8.210
REMARK  Name = 
REMARK  7 active torsions:
REMARK  status: ('A' for Active; 'I' for Inactive)
REMARK    1  A    between atoms: C_1  and  C_2
REMARK    2  A    between atoms: C_4  and  O_5
REMARK    3  A    between atoms: C_6  and  N_7
REMARK    4  A    between atoms: N_8  and  C_9
REMARK    5  A    between atoms: C_12  and  C_13
REMARK    6  A    between atoms: C_13  and  O_15
REMARK    7  A    between atoms: C_19  and  C_20
REMARK                            x       y       z     vdW  Elec       q    Type
REMARK                         _______ _______ _______ _____ _____    ______ ____
ROOT
ATOM      1  N   UNL     1       1.745   8.668  18.760  0.00  0.00    +0.000 NA
ATOM      2  N   UNL     1       2.105   7.602  19.303  0.00  0.00    +0.000 NA
ENDROOT
BRANCH   1   7
ATOM      3  C   UNL     1      -1.514  11.723  22.422  0.00  0.00    +0.000 C 
ATOM      4  C   UNL     1      -0.625  10.954  21.478  0.00  0.00    +0.000 A 
ATOM      5  C   UNL     1      -0.570  11.330  20.130  0.00  0.00    +0.000 A 
ATOM      6  C   UNL     1       0.217  10.617  19.214  0.00  0.00    +0.000 A 
ATOM      7  C   UNL     1       0.988   9.511  19.618  0.00  0.00    +0.000 A 
ATOM      8  C   UNL     1       0.931   9.154  20.978  0.00  0.00    +0.000 A 
ATOM      9  C   UNL     1       0.136   9.857  21.913  0.00  0.00    +0.000 A 
ATOM     10  C   UNL     1       0.101   9.406  23.348  0.00  0.00    +0.000 C 
BRANCH   6  11
ATOM     11  O   UNL     1       0.194  11.013  17.900  0.00  0.00    +0.000 OA
ATOM     12  H   UNL     1      -0.067  10.261  17.345  0.00  0.00    +0.000 HD
ENDBRANCH   6  11
ENDBRANCH   1   7
BRANCH   2  13
ATOM     13  C   UNL     1       2.970   6.821  18.504  0.00  0.00    +0.000 A 
ATOM     14  C   UNL     1       3.727   7.476  17.526  0.00  0.00    +0.000 A 
ATOM     15  C   UNL     1       4.643   6.779  16.725  0.00  0.00    +0.000 A 
ATOM     16  C   UNL     1       4.823   5.401  16.883  0.00  0.00    +0.000 A 
ATOM     17  C   UNL     1       4.071   4.727  17.851  0.00  0.00    +0.000 A 
ATOM     18  C   UNL     1       3.156   5.437  18.653  0.00  0.00    +0.000 A 
BRANCH  16  19
ATOM     19  C   UNL     1       5.864   4.753  16.025  0.00  0.00    +0.000 C 
ATOM     20  O   UNL     1       6.613   5.401  15.319  0.00  0.00    +0.000 OA
BRANCH  19  21
ATOM     21  O   UNL     1       5.875   3.405  16.047  0.00  0.00    +0.000 OA
ATOM     22  H   UNL     1       5.074   2.948  15.743  0.00  0.00    +0.000 HD
ENDBRANCH  19  21
ENDBRANCH  16  19
ENDBRANCH   2  13
TORSDOF 5
ENDMDL
