MODEL 1
REMARK VINA RESULT:      -7.0      0.000      0.000
REMARK  Name = 
REMARK  6 active torsions:
REMARK  status: ('A' for Active; 'I' for Inactive)
REMARK    1  A    between atoms: C_1  and  C_2
REMARK    2  A    between atoms: C_5  and  C_6
REMARK    3  A    between atoms: N_8  and  N_9
REMARK    4  A    between atoms: C_10  and  C_11
REMARK    5  A    between atoms: C_18  and  O_19
REMARK    6  A    between atoms: C_20  and  O_21
REMARK                            x       y       z     vdW  Elec       q    Type
REMARK                         _______ _______ _______ _____ _____    ______ ____
ROOT
ATOM      1  C   UNL     1       0.686   8.749  20.832  0.00  0.00    +0.000 C 
ATOM      2  O   UNL     1       0.520   7.798  21.598  0.00  0.00    +0.000 OA
ATOM      3  N   UNL     1       1.541   8.716  19.738  0.00  0.00    +0.000 N 
ATOM      4  H   UNL     1       1.678   9.503  19.120  0.00  0.00    +0.000 HD
ENDROOT
BRANCH   1   9
ATOM      5  C   UNL     1      -2.346  13.576  22.075  0.00  0.00    +0.000 C 
ATOM      6  C   UNL     1      -1.556  12.349  21.724  0.00  0.00    +0.000 A 
ATOM      7  C   UNL     1      -1.406  11.932  20.397  0.00  0.00    +0.000 A 
ATOM      8  C   UNL     1      -0.678  10.773  20.085  0.00  0.00    +0.000 A 
ATOM      9  C   UNL     1      -0.086  10.006  21.099  0.00  0.00    +0.000 A 
ATOM     10  C   UNL     1      -0.235  10.444  22.429  0.00  0.00    +0.000 A 
ATOM     11  C   UNL     1      -0.959  11.595  22.738  0.00  0.00    +0.000 A 
BRANCH  10  12
ATOM     12  O   UNL     1       0.303   9.788  23.508  0.00  0.00    +0.000 OA
ATOM     13  H   UNL     1      -0.433   9.574  24.127  0.00  0.00    +0.000 HD
ENDBRANCH  10  12
ENDBRANCH   1   9
BRANCH   3  14
ATOM     14  N   UNL     1       2.239   7.566  19.492  0.00  0.00    +0.000 NA
ATOM     15  C   UNL     1       2.515   7.309  18.253  0.00  0.00    +0.000 C 
BRANCH  15  16
ATOM     16  C   UNL     1       3.284   6.101  17.881  0.00  0.00    +0.000 A 
ATOM     17  C   UNL     1       4.441   6.225  17.100  0.00  0.00    +0.000 A 
ATOM     18  C   UNL     1       5.151   5.085  16.727  0.00  0.00    +0.000 A 
ATOM     19 BR   UNL     1       6.709   5.253  15.668  0.00  0.00    +0.000 Br
ATOM     20  C   UNL     1       4.721   3.818  17.119  0.00  0.00    +0.000 A 
ATOM     21  C   UNL     1       3.573   3.698  17.902  0.00  0.00    +0.000 A 
ATOM     22 BR   UNL     1       3.000   1.965  18.419  0.00  0.00    +0.000 Br
ATOM     23  C   UNL     1       2.852   4.834  18.289  0.00  0.00    +0.000 A 
BRANCH  23  24
ATOM     24  O   UNL     1       1.725   4.721  19.059  0.00  0.00    +0.000 OA
ATOM     25  H   UNL     1       1.921   5.116  19.931  0.00  0.00    +0.000 HD
ENDBRANCH  23  24
ENDBRANCH  15  16
ENDBRANCH   3  14
TORSDOF 5
ENDMDL
MODEL 2
REMARK VINA RESULT:      -7.0      6.914      8.483
REMARK  Name = 
REMARK  6 active torsions:
REMARK  status: ('A' for Active; 'I' for Inactive)
REMARK    1  A    between atoms: C_1  and  C_2
REMARK    2  A    between atoms: C_5  and  C_6
REMARK    3  A    between atoms: N_8  and  N_9
REMARK    4  A    between atoms: C_10  and  C_11
REMARK    5  A    between atoms: C_18  and  O_19
REMARK    6  A    between atoms: C_20  and  O_21
REMARK                            x       y       z     vdW  Elec       q    Type
REMARK                         _______ _______ _______ _____ _____    ______ ____
ROOT
ATOM      1  C   UNL     1       8.467  10.413  18.023  0.00  0.00    +0.000 C 
ATOM      2  O   UNL     1       7.470  10.841  17.438  0.00  0.00    +0.000 OA
ATOM      3  N   UNL     1       8.729   9.061  18.208  0.00  0.00    +0.000 N 
ATOM      4  H   UNL     1       9.544   8.719  18.696  0.00  0.00    +0.000 HD
ENDROOT
BRANCH   1   9
ATOM      5  C   UNL     1      12.270  14.414  19.910  0.00  0.00    +0.000 C 
ATOM      6  C   UNL     1      11.291  13.370  19.457  0.00  0.00    +0.000 A 
ATOM      7  C   UNL     1      11.281  12.088  20.015  0.00  0.00    +0.000 A 
ATOM      8  C   UNL     1      10.370  11.117  19.571  0.00  0.00    +0.000 A 
ATOM      9  C   UNL     1       9.450  11.412  18.554  0.00  0.00    +0.000 A 
ATOM     10  C   UNL     1       9.464  12.710  18.009  0.00  0.00    +0.000 A 
ATOM     11  C   UNL     1      10.370  13.674  18.452  0.00  0.00    +0.000 A 
BRANCH  10  12
ATOM     12  O   UNL     1       8.610  13.125  17.017  0.00  0.00    +0.000 OA
ATOM     13  H   UNL     1       7.693  13.083  17.374  0.00  0.00    +0.000 HD
ENDBRANCH  10  12
ENDBRANCH   1   9
BRANCH   3  14
ATOM     14  N   UNL     1       7.834   8.152  17.717  0.00  0.00    +0.000 NA
ATOM     15  C   UNL     1       7.786   7.004  18.315  0.00  0.00    +0.000 C 
BRANCH  15  16
ATOM     16  C   UNL     1       6.837   5.957  17.875  0.00  0.00    +0.000 A 
ATOM     17  C   UNL     1       5.938   5.401  18.795  0.00  0.00    +0.000 A 
ATOM     18  C   UNL     1       5.063   4.396  18.387  0.00  0.00    +0.000 A 
ATOM     19 BR   UNL     1       3.853   3.643  19.631  0.00  0.00    +0.000 Br
ATOM     20  C   UNL     1       5.072   3.933  17.072  0.00  0.00    +0.000 A 
ATOM     21  C   UNL     1       5.964   4.493  16.157  0.00  0.00    +0.000 A 
ATOM     22 BR   UNL     1       5.967   3.844  14.375  0.00  0.00    +0.000 Br
ATOM     23  C   UNL     1       6.846   5.506  16.551  0.00  0.00    +0.000 A 
BRANCH  23  24
ATOM     24  O   UNL     1       7.722   6.061  15.655  0.00  0.00    +0.000 OA
ATOM     25  H   UNL     1       7.196   6.480  14.946  0.00  0.00    +0.000 HD
ENDBRANCH  23  24
ENDBRANCH  15  16
ENDBRANCH   3  14
TORSDOF 5
ENDMDL
MODEL 3
REMARK VINA RESULT:      -6.8      4.121      8.791
REMARK  Name = 
REMARK  6 active torsions:
REMARK  status: ('A' for Active; 'I' for Inactive)
REMARK    1  A    between atoms: C_1  and  C_2
REMARK    2  A    between atoms: C_5  and  C_6
REMARK    3  A    between atoms: N_8  and  N_9
REMARK    4  A    between atoms: C_10  and  C_11
REMARK    5  A    between atoms: C_18  and  O_19
REMARK    6  A    between atoms: C_20  and  O_21
REMARK                            x       y       z     vdW  Elec       q    Type
REMARK                         _______ _______ _______ _____ _____    ______ ____
ROOT
ATOM      1  C   UNL     1       2.600   7.126  18.503  0.00  0.00    +0.000 C 
ATOM      2  O   UNL     1       2.284   6.710  19.619  0.00  0.00    +0.000 OA
ATOM      3  N   UNL     1       2.142   8.324  17.970  0.00  0.00    +0.000 N 
ATOM      4  H   UNL     1       2.399   8.653  17.051  0.00  0.00    +0.000 HD
ENDROOT
BRANCH   1   9
ATOM      5  C   UNL     1       6.188   3.700  15.432  0.00  0.00    +0.000 C 
ATOM      6  C   UNL     1       5.269   4.608  16.198  0.00  0.00    +0.000 A 
ATOM      7  C   UNL     1       5.452   5.994  16.205  0.00  0.00    +0.000 A 
ATOM      8  C   UNL     1       4.595   6.829  16.939  0.00  0.00    +0.000 A 
ATOM      9  C   UNL     1       3.536   6.289  17.684  0.00  0.00    +0.000 A 
ATOM     10  C   UNL     1       3.356   4.893  17.658  0.00  0.00    +0.000 A 
ATOM     11  C   UNL     1       4.209   4.065  16.928  0.00  0.00    +0.000 A 
BRANCH  10  12
ATOM     12  O   UNL     1       2.354   4.245  18.336  0.00  0.00    +0.000 OA
ATOM     13  H   UNL     1       2.141   4.777  19.138  0.00  0.00    +0.000 HD
ENDBRANCH  10  12
ENDBRANCH   1   9
BRANCH   3  14
ATOM     14  N   UNL     1       1.294   9.089  18.722  0.00  0.00    +0.000 NA
ATOM     15  C   UNL     1       0.494   9.876  18.074  0.00  0.00    +0.000 C 
BRANCH  15  16
ATOM     16  C   UNL     1      -0.478  10.729  18.792  0.00  0.00    +0.000 A 
ATOM     17  C   UNL     1      -1.805  10.800  18.348  0.00  0.00    +0.000 A 
ATOM     18  C   UNL     1      -2.714  11.624  19.008  0.00  0.00    +0.000 A 
ATOM     19 BR   UNL     1      -4.503  11.722  18.403  0.00  0.00    +0.000 Br
ATOM     20  C   UNL     1      -2.318  12.385  20.106  0.00  0.00    +0.000 A 
ATOM     21  C   UNL     1      -0.998  12.309  20.551  0.00  0.00    +0.000 A 
ATOM     22 BR   UNL     1      -0.477  13.358  22.042  0.00  0.00    +0.000 Br
ATOM     23  C   UNL     1      -0.075  11.481  19.901  0.00  0.00    +0.000 A 
BRANCH  23  24
ATOM     24  O   UNL     1       1.223  11.401  20.336  0.00  0.00    +0.000 OA
ATOM     25  H   UNL     1       1.262  10.710  21.026  0.00  0.00    +0.000 HD
ENDBRANCH  23  24
ENDBRANCH  15  16
ENDBRANCH   3  14
TORSDOF 5
ENDMDL
MODEL 4
REMARK VINA RESULT:      -6.8      2.512      2.890
REMARK  Name = 
REMARK  6 active torsions:
REMARK  status: ('A' for Active; 'I' for Inactive)
REMARK    1  A    between atoms: C_1  and  C_2
REMARK    2  A    between atoms: C_5  and  C_6
REMARK    3  A    between atoms: N_8  and  N_9
REMARK    4  A    between atoms: C_10  and  C_11
REMARK    5  A    between atoms: C_18  and  O_19
REMARK    6  A    between atoms: C_20  and  O_21
REMARK                            x       y       z     vdW  Elec       q    Type
REMARK                         _______ _______ _______ _____ _____    ______ ____
ROOT
ATOM      1  C   UNL     1       1.043  10.206  18.929  0.00  0.00    +0.000 C 
ATOM      2  O   UNL     1       0.866   9.566  19.968  0.00  0.00    +0.000 OA
ATOM      3  N   UNL     1       1.549   9.649  17.761  0.00  0.00    +0.000 N 
ATOM      4  H   UNL     1       1.699  10.183  16.917  0.00  0.00    +0.000 HD
ENDROOT
BRANCH   1   9
ATOM      5  C   UNL     1      -0.142  15.918  18.912  0.00  0.00    +0.000 C 
ATOM      6  C   UNL     1       0.128  14.441  18.915  0.00  0.00    +0.000 A 
ATOM      7  C   UNL     1      -0.759  13.539  19.511  0.00  0.00    +0.000 A 
ATOM      8  C   UNL     1      -0.486  12.162  19.520  0.00  0.00    +0.000 A 
ATOM      9  C   UNL     1       0.686  11.661  18.934  0.00  0.00    +0.000 A 
ATOM     10  C   UNL     1       1.564  12.579  18.328  0.00  0.00    +0.000 A 
ATOM     11  C   UNL     1       1.291  13.948  18.319  0.00  0.00    +0.000 A 
BRANCH  10  12
ATOM     12  O   UNL     1       2.736  12.216  17.713  0.00  0.00    +0.000 OA
ATOM     13  H   UNL     1       3.339  11.857  18.405  0.00  0.00    +0.000 HD
ENDBRANCH  10  12
ENDBRANCH   1   9
BRANCH   3  14
ATOM     14  N   UNL     1       1.867   8.320  17.758  0.00  0.00    +0.000 NA
ATOM     15  C   UNL     1       3.128   8.026  17.812  0.00  0.00    +0.000 C 
BRANCH  15  16
ATOM     16  C   UNL     1       3.579   6.617  17.835  0.00  0.00    +0.000 A 
ATOM     17  C   UNL     1       4.463   6.153  16.852  0.00  0.00    +0.000 A 
ATOM     18  C   UNL     1       4.867   4.819  16.858  0.00  0.00    +0.000 A 
ATOM     19 BR   UNL     1       6.056   4.192  15.528  0.00  0.00    +0.000 Br
ATOM     20  C   UNL     1       4.398   3.937  17.830  0.00  0.00    +0.000 A 
ATOM     21  C   UNL     1       3.522   4.403  18.810  0.00  0.00    +0.000 A 
ATOM     22 BR   UNL     1       2.889   3.186  20.120  0.00  0.00    +0.000 Br
ATOM     23  C   UNL     1       3.112   5.741  18.821  0.00  0.00    +0.000 A 
BRANCH  23  24
ATOM     24  O   UNL     1       2.254   6.205  19.784  0.00  0.00    +0.000 OA
ATOM     25  H   UNL     1       1.380   5.798  19.622  0.00  0.00    +0.000 HD
ENDBRANCH  23  24
ENDBRANCH  15  16
ENDBRANCH   3  14
TORSDOF 5
ENDMDL
MODEL 5
REMARK VINA RESULT:      -6.8      6.896      8.363
REMARK  Name = 
REMARK  6 active torsions:
REMARK  status: ('A' for Active; 'I' for Inactive)
REMARK    1  A    between atoms: C_1  and  C_2
REMARK    2  A    between atoms: C_5  and  C_6
REMARK    3  A    between atoms: N_8  and  N_9
REMARK    4  A    between atoms: C_10  and  C_11
REMARK    5  A    between atoms: C_18  and  O_19
REMARK    6  A    between atoms: C_20  and  O_21
REMARK                            x       y       z     vdW  Elec       q    Type
REMARK                         _______ _______ _______ _____ _____    ______ ____
ROOT
ATOM      1  C   UNL     1       8.417  10.426  17.839  0.00  0.00    +0.000 C 
ATOM      2  O   UNL     1       7.409  10.881  17.294  0.00  0.00    +0.000 OA
ATOM      3  N   UNL     1       8.654   9.067  18.005  0.00  0.00    +0.000 N 
ATOM      4  H   UNL     1       9.479   8.703  18.461  0.00  0.00    +0.000 HD
ENDROOT
BRANCH   1   9
ATOM      5  C   UNL     1      12.333  14.176  19.993  0.00  0.00    +0.000 C 
ATOM      6  C   UNL     1      11.342  13.213  19.407  0.00  0.00    +0.000 A 
ATOM      7  C   UNL     1      10.976  13.272  18.058  0.00  0.00    +0.000 A 
ATOM      8  C   UNL     1      10.036  12.375  17.528  0.00  0.00    +0.000 A 
ATOM      9  C   UNL     1       9.441  11.399  18.341  0.00  0.00    +0.000 A 
ATOM     10  C   UNL     1       9.828  11.343  19.693  0.00  0.00    +0.000 A 
ATOM     11  C   UNL     1      10.762  12.235  20.219  0.00  0.00    +0.000 A 
BRANCH  10  12
ATOM     12  O   UNL     1       9.327  10.430  20.588  0.00  0.00    +0.000 OA
ATOM     13  H   UNL     1       9.919   9.642  20.577  0.00  0.00    +0.000 HD
ENDBRANCH  10  12
ENDBRANCH   1   9
BRANCH   3  14
ATOM     14  N   UNL     1       7.722   8.182  17.540  0.00  0.00    +0.000 NA
ATOM     15  C   UNL     1       7.759   6.987  18.038  0.00  0.00    +0.000 C 
BRANCH  15  16
ATOM     16  C   UNL     1       6.781   5.959  17.618  0.00  0.00    +0.000 A 
ATOM     17  C   UNL     1       5.845   5.470  18.540  0.00  0.00    +0.000 A 
ATOM     18  C   UNL     1       4.941   4.483  18.152  0.00  0.00    +0.000 A 
ATOM     19 BR   UNL     1       3.683   3.820  19.398  0.00  0.00    +0.000 Br
ATOM     20  C   UNL     1       4.957   3.971  16.855  0.00  0.00    +0.000 A 
ATOM     21  C   UNL     1       5.886   4.464  15.938  0.00  0.00    +0.000 A 
ATOM     22 BR   UNL     1       5.898   3.750  14.181  0.00  0.00    +0.000 Br
ATOM     23  C   UNL     1       6.797   5.459  16.311  0.00  0.00    +0.000 A 
BRANCH  23  24
ATOM     24  O   UNL     1       7.709   5.948  15.413  0.00  0.00    +0.000 OA
ATOM     25  H   UNL     1       8.207   6.663  15.856  0.00  0.00    +0.000 HD
ENDBRANCH  23  24
ENDBRANCH  15  16
ENDBRANCH   3  14
TORSDOF 5
ENDMDL
MODEL 6
REMARK VINA RESULT:      -6.7      4.181      8.713
REMARK  Name = 
REMARK  6 active torsions:
REMARK  status: ('A' for Active; 'I' for Inactive)
REMARK    1  A    between atoms: C_1  and  C_2
REMARK    2  A    between atoms: C_5  and  C_6
REMARK    3  A    between atoms: N_8  and  N_9
REMARK    4  A    between atoms: C_10  and  C_11
REMARK    5  A    between atoms: C_18  and  O_19
REMARK    6  A    between atoms: C_20  and  O_21
REMARK                            x       y       z     vdW  Elec       q    Type
REMARK                         _______ _______ _______ _____ _____    ______ ____
ROOT
ATOM      1  C   UNL     1       2.590   7.392  18.514  0.00  0.00    +0.000 C 
ATOM      2  O   UNL     1       2.338   7.082  19.680  0.00  0.00    +0.000 OA
ATOM      3  N   UNL     1       2.087   8.530  17.894  0.00  0.00    +0.000 N 
ATOM      4  H   UNL     1       2.292   8.772  16.936  0.00  0.00    +0.000 HD
ENDROOT
BRANCH   1   9
ATOM      5  C   UNL     1       6.043   3.717  15.580  0.00  0.00    +0.000 C 
ATOM      6  C   UNL     1       5.161   4.689  16.310  0.00  0.00    +0.000 A 
ATOM      7  C   UNL     1       5.426   6.061  16.304  0.00  0.00    +0.000 A 
ATOM      8  C   UNL     1       4.602   6.956  17.005  0.00  0.00    +0.000 A 
ATOM      9  C   UNL     1       3.495   6.491  17.729  0.00  0.00    +0.000 A 
ATOM     10  C   UNL     1       3.233   5.108  17.717  0.00  0.00    +0.000 A 
ATOM     11  C   UNL     1       4.053   4.220  17.020  0.00  0.00    +0.000 A 
BRANCH  10  12
ATOM     12  O   UNL     1       2.177   4.529  18.377  0.00  0.00    +0.000 OA
ATOM     13  H   UNL     1       1.789   3.846  17.782  0.00  0.00    +0.000 HD
ENDBRANCH  10  12
ENDBRANCH   1   9
BRANCH   3  14
ATOM     14  N   UNL     1       1.268   9.354  18.614  0.00  0.00    +0.000 NA
ATOM     15  C   UNL     1       0.220   9.809  18.002  0.00  0.00    +0.000 C 
BRANCH  15  16
ATOM     16  C   UNL     1      -0.742  10.692  18.697  0.00  0.00    +0.000 A 
ATOM     17  C   UNL     1      -0.357  11.353  19.872  0.00  0.00    +0.000 A 
ATOM     18  C   UNL     1      -1.272  12.164  20.541  0.00  0.00    +0.000 A 
ATOM     19 BR   UNL     1      -0.753  13.052  22.128  0.00  0.00    +0.000 Br
ATOM     20  C   UNL     1      -2.570  12.323  20.059  0.00  0.00    +0.000 A 
ATOM     21  C   UNL     1      -2.949  11.668  18.887  0.00  0.00    +0.000 A 
ATOM     22 BR   UNL     1      -4.722  11.890  18.251  0.00  0.00    +0.000 Br
ATOM     23  C   UNL     1      -2.040  10.854  18.200  0.00  0.00    +0.000 A 
BRANCH  23  24
ATOM     24  O   UNL     1      -2.406  10.211  17.047  0.00  0.00    +0.000 OA
ATOM     25  H   UNL     1      -1.719  10.390  16.376  0.00  0.00    +0.000 HD
ENDBRANCH  23  24
ENDBRANCH  15  16
ENDBRANCH   3  14
TORSDOF 5
ENDMDL
MODEL 7
REMARK VINA RESULT:      -6.7      2.639      3.558
REMARK  Name = 
REMARK  6 active torsions:
REMARK  status: ('A' for Active; 'I' for Inactive)
REMARK    1  A    between atoms: C_1  and  C_2
REMARK    2  A    between atoms: C_5  and  C_6
REMARK    3  A    between atoms: N_8  and  N_9
REMARK    4  A    between atoms: C_10  and  C_11
REMARK    5  A    between atoms: C_18  and  O_19
REMARK    6  A    between atoms: C_20  and  O_21
REMARK                            x       y       z     vdW  Elec       q    Type
REMARK                         _______ _______ _______ _____ _____    ______ ____
ROOT
ATOM      1  C   UNL     1       0.748  10.179  18.223  0.00  0.00    +0.000 C 
ATOM      2  O   UNL     1      -0.221   9.567  17.770  0.00  0.00    +0.000 OA
ATOM      3  N   UNL     1       2.039   9.665  18.248  0.00  0.00    +0.000 N 
ATOM      4  H   UNL     1       2.826  10.169  18.629  0.00  0.00    +0.000 HD
ENDROOT
BRANCH   1   9
ATOM      5  C   UNL     1       0.044  15.580  20.314  0.00  0.00    +0.000 C 
ATOM      6  C   UNL     1       0.190  14.185  19.776  0.00  0.00    +0.000 A 
ATOM      7  C   UNL     1      -0.706  13.171  20.127  0.00  0.00    +0.000 A 
ATOM      8  C   UNL     1      -0.549  11.868  19.630  0.00  0.00    +0.000 A 
ATOM      9  C   UNL     1       0.515  11.554  18.771  0.00  0.00    +0.000 A 
ATOM     10  C   UNL     1       1.403  12.588  18.416  0.00  0.00    +0.000 A 
ATOM     11  C   UNL     1       1.244  13.883  18.912  0.00  0.00    +0.000 A 
BRANCH  10  12
ATOM     12  O   UNL     1       2.475  12.412  17.578  0.00  0.00    +0.000 OA
ATOM     13  H   UNL     1       2.141  12.012  16.742  0.00  0.00    +0.000 HD
ENDBRANCH  10  12
ENDBRANCH   1   9
BRANCH   3  14
ATOM     14  N   UNL     1       2.251   8.413  17.742  0.00  0.00    +0.000 NA
ATOM     15  C   UNL     1       2.665   7.512  18.576  0.00  0.00    +0.000 C 
BRANCH  15  16
ATOM     16  C   UNL     1       2.904   6.121  18.135  0.00  0.00    +0.000 A 
ATOM     17  C   UNL     1       2.048   5.097  18.563  0.00  0.00    +0.000 A 
ATOM     18  C   UNL     1       2.289   3.783  18.169  0.00  0.00    +0.000 A 
ATOM     19 BR   UNL     1       1.135   2.402  18.752  0.00  0.00    +0.000 Br
ATOM     20  C   UNL     1       3.376   3.470  17.355  0.00  0.00    +0.000 A 
ATOM     21  C   UNL     1       4.224   4.491  16.926  0.00  0.00    +0.000 A 
ATOM     22 BR   UNL     1       5.703   4.046  15.825  0.00  0.00    +0.000 Br
ATOM     23  C   UNL     1       3.992   5.818  17.308  0.00  0.00    +0.000 A 
BRANCH  23  24
ATOM     24  O   UNL     1       4.820   6.825  16.887  0.00  0.00    +0.000 OA
ATOM     25  H   UNL     1       4.312   7.389  16.272  0.00  0.00    +0.000 HD
ENDBRANCH  23  24
ENDBRANCH  15  16
ENDBRANCH   3  14
TORSDOF 5
ENDMDL
MODEL 8
REMARK VINA RESULT:      -6.7      2.387      2.710
REMARK  Name = 
REMARK  6 active torsions:
REMARK  status: ('A' for Active; 'I' for Inactive)
REMARK    1  A    between atoms: C_1  and  C_2
REMARK    2  A    between atoms: C_5  and  C_6
REMARK    3  A    between atoms: N_8  and  N_9
REMARK    4  A    between atoms: C_10  and  C_11
REMARK    5  A    between atoms: C_18  and  O_19
REMARK    6  A    between atoms: C_20  and  O_21
REMARK                            x       y       z     vdW  Elec       q    Type
REMARK                         _______ _______ _______ _____ _____    ______ ____
ROOT
ATOM      1  C   UNL     1       1.126  10.216  18.867  0.00  0.00    +0.000 C 
ATOM      2  O   UNL     1       0.823   9.572  19.873  0.00  0.00    +0.000 OA
ATOM      3  N   UNL     1       1.713   9.652  17.740  0.00  0.00    +0.000 N 
ATOM      4  H   UNL     1       1.966  10.189  16.923  0.00  0.00    +0.000 HD
ENDROOT
BRANCH   1   9
ATOM      5  C   UNL     1      -0.204  15.896  18.822  0.00  0.00    +0.000 C 
ATOM      6  C   UNL     1       0.171  14.443  18.846  0.00  0.00    +0.000 A 
ATOM      7  C   UNL     1       1.484  14.024  18.608  0.00  0.00    +0.000 A 
ATOM      8  C   UNL     1       1.817  12.660  18.617  0.00  0.00    +0.000 A 
ATOM      9  C   UNL     1       0.838  11.687  18.864  0.00  0.00    +0.000 A 
ATOM     10  C   UNL     1      -0.477  12.123  19.113  0.00  0.00    +0.000 A 
ATOM     11  C   UNL     1      -0.807  13.479  19.104  0.00  0.00    +0.000 A 
BRANCH  10  12
ATOM     12  O   UNL     1      -1.522  11.272  19.377  0.00  0.00    +0.000 OA
ATOM     13  H   UNL     1      -2.317  11.823  19.565  0.00  0.00    +0.000 HD
ENDBRANCH  10  12
ENDBRANCH   1   9
BRANCH   3  14
ATOM     14  N   UNL     1       1.968   8.309  17.743  0.00  0.00    +0.000 NA
ATOM     15  C   UNL     1       3.213   7.956  17.808  0.00  0.00    +0.000 C 
BRANCH  15  16
ATOM     16  C   UNL     1       3.597   6.528  17.838  0.00  0.00    +0.000 A 
ATOM     17  C   UNL     1       4.455   6.016  16.855  0.00  0.00    +0.000 A 
ATOM     18  C   UNL     1       4.794   4.664  16.868  0.00  0.00    +0.000 A 
ATOM     19 BR   UNL     1       5.948   3.974  15.538  0.00  0.00    +0.000 Br
ATOM     20  C   UNL     1       4.288   3.811  17.847  0.00  0.00    +0.000 A 
ATOM     21  C   UNL     1       3.439   4.324  18.828  0.00  0.00    +0.000 A 
ATOM     22 BR   UNL     1       2.754   3.147  20.147  0.00  0.00    +0.000 Br
ATOM     23  C   UNL     1       3.092   5.681  18.832  0.00  0.00    +0.000 A 
BRANCH  23  24
ATOM     24  O   UNL     1       2.261   6.190  19.795  0.00  0.00    +0.000 OA
ATOM     25  H   UNL     1       1.343   6.096  19.473  0.00  0.00    +0.000 HD
ENDBRANCH  23  24
ENDBRANCH  15  16
ENDBRANCH   3  14
TORSDOF 5
ENDMDL
MODEL 9
REMARK VINA RESULT:      -6.7      1.129      2.284
REMARK  Name = 
REMARK  6 active torsions:
REMARK  status: ('A' for Active; 'I' for Inactive)
REMARK    1  A    between atoms: C_1  and  C_2
REMARK    2  A    between atoms: C_5  and  C_6
REMARK    3  A    between atoms: N_8  and  N_9
REMARK    4  A    between atoms: C_10  and  C_11
REMARK    5  A    between atoms: C_18  and  O_19
REMARK    6  A    between atoms: C_20  and  O_21
REMARK                            x       y       z     vdW  Elec       q    Type
REMARK                         _______ _______ _______ _____ _____    ______ ____
ROOT
ATOM      1  C   UNL     1       0.249   8.931  21.004  0.00  0.00    +0.000 C 
ATOM      2  O   UNL     1      -0.317   7.945  21.482  0.00  0.00    +0.000 OA
ATOM      3  N   UNL     1       1.374   8.853  20.191  0.00  0.00    +0.000 N 
ATOM      4  H   UNL     1       1.836   9.666  19.811  0.00  0.00    +0.000 HD
ENDROOT
BRANCH   1   9
ATOM      5  C   UNL     1      -2.029  14.116  22.402  0.00  0.00    +0.000 C 
ATOM      6  C   UNL     1      -1.425  12.797  22.015  0.00  0.00    +0.000 A 
ATOM      7  C   UNL     1      -1.121  12.497  20.684  0.00  0.00    +0.000 A 
ATOM      8  C   UNL     1      -0.571  11.253  20.334  0.00  0.00    +0.000 A 
ATOM      9  C   UNL     1      -0.317  10.283  21.315  0.00  0.00    +0.000 A 
ATOM     10  C   UNL     1      -0.617  10.603  22.653  0.00  0.00    +0.000 A 
ATOM     11  C   UNL     1      -1.164  11.840  22.998  0.00  0.00    +0.000 A 
BRANCH  10  12
ATOM     12  O   UNL     1      -0.407   9.746  23.704  0.00  0.00    +0.000 OA
ATOM     13  H   UNL     1      -0.780  10.167  24.513  0.00  0.00    +0.000 HD
ENDBRANCH  10  12
ENDBRANCH   1   9
BRANCH   3  14
ATOM     14  N   UNL     1       1.884   7.618  19.903  0.00  0.00    +0.000 NA
ATOM     15  C   UNL     1       2.274   7.422  18.683  0.00  0.00    +0.000 C 
BRANCH  15  16
ATOM     16  C   UNL     1       2.860   6.127  18.272  0.00  0.00    +0.000 A 
ATOM     17  C   UNL     1       2.207   4.931  18.600  0.00  0.00    +0.000 A 
ATOM     18  C   UNL     1       2.773   3.711  18.236  0.00  0.00    +0.000 A 
ATOM     19 BR   UNL     1       1.894   2.098  18.684  0.00  0.00    +0.000 Br
ATOM     20  C   UNL     1       3.986   3.664  17.551  0.00  0.00    +0.000 A 
ATOM     21  C   UNL     1       4.631   4.856  17.221  0.00  0.00    +0.000 A 
ATOM     22 BR   UNL     1       6.285   4.771  16.296  0.00  0.00    +0.000 Br
ATOM     23  C   UNL     1       4.073   6.090  17.575  0.00  0.00    +0.000 A 
BRANCH  23  24
ATOM     24  O   UNL     1       4.701   7.263  17.250  0.00  0.00    +0.000 OA
ATOM     25  H   UNL     1       5.626   7.199  17.559  0.00  0.00    +0.000 HD
ENDBRANCH  23  24
ENDBRANCH  15  16
ENDBRANCH   3  14
TORSDOF 5
ENDMDL
