MODEL 1
REMARK VINA RESULT:      -8.9      0.000      0.000
REMARK  Name = 
REMARK  8 active torsions:
REMARK  status: ('A' for Active; 'I' for Inactive)
REMARK    1  A    between atoms: C_2  and  C_12
REMARK    2  A    between atoms: N_3  and  C_4
REMARK    3  A    between atoms: C_4  and  C_5
REMARK    4  A    between atoms: C_5  and  C_6
REMARK    5  A    between atoms: C_14  and  C_15
REMARK    6  A    between atoms: C_20  and  C_21
REMARK    7  A    between atoms: C_21  and  O_22
REMARK    8  A    between atoms: O_22  and  C_23
REMARK                            x       y       z     vdW  Elec       q    Type
REMARK                         _______ _______ _______ _____ _____    ______ ____
ROOT
ATOM      1  C   UNL     1       1.402   8.850  20.225  0.00  0.00    +0.000 A 
ATOM      2  C   UNL     1       1.950   7.575  19.979  0.00  0.00    +0.000 A 
ATOM      3  C   UNL     1       2.359   7.183  18.682  0.00  0.00    +0.000 A 
ATOM      4  C   UNL     1       2.120   8.080  17.630  0.00  0.00    +0.000 A 
ATOM      5  C   UNL     1       1.569   9.340  17.865  0.00  0.00    +0.000 A 
ATOM      6  C   UNL     1       1.227   9.723  19.155  0.00  0.00    +0.000 A 
ATOM      7  F   UNL     1       0.718  10.951  19.336  0.00  0.00    +0.000 F 
ENDROOT
BRANCH   3   8
ATOM      8  C   UNL     1       3.015   5.813  18.479  0.00  0.00    +0.000 C 
ATOM      9  C   UNL     1       1.991   4.762  17.985  0.00  0.00    +0.000 C 
ATOM     10  C   UNL     1       1.174   4.130  19.114  0.00  0.00    +0.000 C 
ATOM     11  N   UNL     1       1.997   3.580  20.185  0.00  0.00    +0.000 NA
ATOM     12  C   UNL     1       2.910   4.584  20.730  0.00  0.00    +0.000 C 
ATOM     13  C   UNL     1       3.834   5.232  19.675  0.00  0.00    +0.000 C 
ATOM     14  H   UNL     1       2.534   2.783  19.843  0.00  0.00    +0.000 HD
BRANCH  13  15
ATOM     15  C   UNL     1       4.884   4.223  19.151  0.00  0.00    +0.000 C 
BRANCH  15  16
ATOM     16  O   UNL     1       5.937   4.897  18.455  0.00  0.00    +0.000 OA
BRANCH  16  17
ATOM     17  C   UNL     1       6.039   4.611  17.116  0.00  0.00    +0.000 A 
ATOM     18  C   UNL     1       5.212   3.709  16.418  0.00  0.00    +0.000 A 
ATOM     19  C   UNL     1       5.363   3.501  15.045  0.00  0.00    +0.000 A 
ATOM     20  C   UNL     1       6.354   4.200  14.402  0.00  0.00    +0.000 A 
ATOM     21  C   UNL     1       7.181   5.072  15.077  0.00  0.00    +0.000 A 
ATOM     22  C   UNL     1       7.049   5.295  16.430  0.00  0.00    +0.000 A 
ATOM     23  O   UNL     1       8.091   5.653  14.250  0.00  0.00    +0.000 OA
ATOM     24  C   UNL     1       7.757   5.031  12.990  0.00  0.00    +0.000 C 
ATOM     25  O   UNL     1       6.633   4.132  13.075  0.00  0.00    +0.000 OA
ENDBRANCH  16  17
ENDBRANCH  15  16
ENDBRANCH  13  15
ENDBRANCH   3   8
BRANCH   1  27
ATOM     26  O   UNL     1       1.872   9.230  22.502  0.00  0.00    +0.000 OA
ATOM     27  C   UNL     1       1.026   9.238  21.614  0.00  0.00    +0.000 C 
ATOM     28  N   UNL     1      -0.286   9.621  21.816  0.00  0.00    +0.000 N 
ATOM     29  H   UNL     1      -0.952   9.470  21.065  0.00  0.00    +0.000 HD
BRANCH  28  30
ATOM     30  C   UNL     1      -0.802   9.928  23.141  0.00  0.00    +0.000 C 
BRANCH  30  31
ATOM     31  C   UNL     1      -1.688  11.174  23.140  0.00  0.00    +0.000 C 
BRANCH  31  32
ATOM     32  C   UNL     1      -1.216  12.187  22.131  0.00  0.00    +0.000 A 
ATOM     33  C   UNL     1      -2.051  12.599  21.095  0.00  0.00    +0.000 A 
ATOM     34  C   UNL     1      -1.566  13.511  20.161  0.00  0.00    +0.000 A 
ATOM     35  C   UNL     1      -0.267  13.987  20.285  0.00  0.00    +0.000 A 
ATOM     36  C   UNL     1       0.495  13.532  21.347  0.00  0.00    +0.000 A 
ATOM     37  N   UNL     1       0.052  12.647  22.268  0.00  0.00    +0.000 NA
ENDBRANCH  31  32
ENDBRANCH  30  31
ENDBRANCH  28  30
ENDBRANCH   1  27
TORSDOF 8
ENDMDL
MODEL 2
REMARK VINA RESULT:      -8.6      1.390      2.103
REMARK  Name = 
REMARK  8 active torsions:
REMARK  status: ('A' for Active; 'I' for Inactive)
REMARK    1  A    between atoms: C_2  and  C_12
REMARK    2  A    between atoms: N_3  and  C_4
REMARK    3  A    between atoms: C_4  and  C_5
REMARK    4  A    between atoms: C_5  and  C_6
REMARK    5  A    between atoms: C_14  and  C_15
REMARK    6  A    between atoms: C_20  and  C_21
REMARK    7  A    between atoms: C_21  and  O_22
REMARK    8  A    between atoms: O_22  and  C_23
REMARK                            x       y       z     vdW  Elec       q    Type
REMARK                         _______ _______ _______ _____ _____    ______ ____
ROOT
ATOM      1  C   UNL     1       1.364   8.798  20.160  0.00  0.00    +0.000 A 
ATOM      2  C   UNL     1       1.801   7.463  20.041  0.00  0.00    +0.000 A 
ATOM      3  C   UNL     1       2.251   6.938  18.806  0.00  0.00    +0.000 A 
ATOM      4  C   UNL     1       2.167   7.771  17.681  0.00  0.00    +0.000 A 
ATOM      5  C   UNL     1       1.727   9.091  17.789  0.00  0.00    +0.000 A 
ATOM      6  C   UNL     1       1.343   9.599  19.022  0.00  0.00    +0.000 A 
ATOM      7  F   UNL     1       0.945  10.880  19.082  0.00  0.00    +0.000 F 
ENDROOT
BRANCH   3   8
ATOM      8  C   UNL     1       2.782   5.502  18.746  0.00  0.00    +0.000 C 
ATOM      9  C   UNL     1       1.703   4.519  18.229  0.00  0.00    +0.000 C 
ATOM     10  C   UNL     1       0.739   4.046  19.318  0.00  0.00    +0.000 C 
ATOM     11  N   UNL     1       1.414   3.496  20.488  0.00  0.00    +0.000 NA
ATOM     12  C   UNL     1       2.375   4.446  21.049  0.00  0.00    +0.000 C 
ATOM     13  C   UNL     1       3.441   4.931  20.041  0.00  0.00    +0.000 C 
ATOM     14  H   UNL     1       1.896   2.632  20.244  0.00  0.00    +0.000 HD
BRANCH  13  15
ATOM     15  C   UNL     1       4.425   3.795  19.673  0.00  0.00    +0.000 C 
BRANCH  15  16
ATOM     16  O   UNL     1       5.772   4.278  19.638  0.00  0.00    +0.000 OA
BRANCH  16  17
ATOM     17  C   UNL     1       6.210   4.723  18.415  0.00  0.00    +0.000 A 
ATOM     18  C   UNL     1       6.923   5.919  18.200  0.00  0.00    +0.000 A 
ATOM     19  C   UNL     1       7.362   6.281  16.924  0.00  0.00    +0.000 A 
ATOM     20  C   UNL     1       7.065   5.434  15.886  0.00  0.00    +0.000 A 
ATOM     21  C   UNL     1       6.352   4.270  16.081  0.00  0.00    +0.000 A 
ATOM     22  C   UNL     1       5.911   3.891  17.330  0.00  0.00    +0.000 A 
ATOM     23  O   UNL     1       6.167   3.587  14.920  0.00  0.00    +0.000 OA
ATOM     24  C   UNL     1       6.822   4.462  13.976  0.00  0.00    +0.000 C 
ATOM     25  O   UNL     1       7.422   5.621  14.590  0.00  0.00    +0.000 OA
ENDBRANCH  16  17
ENDBRANCH  15  16
ENDBRANCH  13  15
ENDBRANCH   3   8
BRANCH   1  27
ATOM     26  O   UNL     1       1.665   9.170  22.466  0.00  0.00    +0.000 OA
ATOM     27  C   UNL     1       0.940   9.323  21.489  0.00  0.00    +0.000 C 
ATOM     28  N   UNL     1      -0.267   9.993  21.533  0.00  0.00    +0.000 N 
ATOM     29  H   UNL     1      -0.867   9.958  20.715  0.00  0.00    +0.000 HD
BRANCH  28  30
ATOM     30  C   UNL     1      -0.837  10.467  22.784  0.00  0.00    +0.000 C 
BRANCH  30  31
ATOM     31  C   UNL     1      -1.060  11.980  22.780  0.00  0.00    +0.000 C 
BRANCH  31  32
ATOM     32  C   UNL     1      -2.526  12.322  22.807  0.00  0.00    +0.000 A 
ATOM     33  C   UNL     1      -3.181  12.734  21.648  0.00  0.00    +0.000 A 
ATOM     34  C   UNL     1      -4.528  13.076  21.721  0.00  0.00    +0.000 A 
ATOM     35  C   UNL     1      -5.186  12.997  22.942  0.00  0.00    +0.000 A 
ATOM     36  C   UNL     1      -4.464  12.572  24.044  0.00  0.00    +0.000 A 
ATOM     37  N   UNL     1      -3.156  12.235  24.004  0.00  0.00    +0.000 NA
ENDBRANCH  31  32
ENDBRANCH  30  31
ENDBRANCH  28  30
ENDBRANCH   1  27
TORSDOF 8
ENDMDL
MODEL 3
REMARK VINA RESULT:      -8.4      1.103      1.651
REMARK  Name = 
REMARK  8 active torsions:
REMARK  status: ('A' for Active; 'I' for Inactive)
REMARK    1  A    between atoms: C_2  and  C_12
REMARK    2  A    between atoms: N_3  and  C_4
REMARK    3  A    between atoms: C_4  and  C_5
REMARK    4  A    between atoms: C_5  and  C_6
REMARK    5  A    between atoms: C_14  and  C_15
REMARK    6  A    between atoms: C_20  and  C_21
REMARK    7  A    between atoms: C_21  and  O_22
REMARK    8  A    between atoms: O_22  and  C_23
REMARK                            x       y       z     vdW  Elec       q    Type
REMARK                         _______ _______ _______ _____ _____    ______ ____
ROOT
ATOM      1  C   UNL     1       1.385   8.793  20.282  0.00  0.00    +0.000 A 
ATOM      2  C   UNL     1       1.844   7.468  20.139  0.00  0.00    +0.000 A 
ATOM      3  C   UNL     1       2.223   6.947  18.879  0.00  0.00    +0.000 A 
ATOM      4  C   UNL     1       2.045   7.772  17.758  0.00  0.00    +0.000 A 
ATOM      5  C   UNL     1       1.583   9.082  17.890  0.00  0.00    +0.000 A 
ATOM      6  C   UNL     1       1.270   9.588  19.145  0.00  0.00    +0.000 A 
ATOM      7  F   UNL     1       0.846  10.859  19.226  0.00  0.00    +0.000 F 
ENDROOT
BRANCH   3   8
ATOM      8  C   UNL     1       2.783   5.523  18.789  0.00  0.00    +0.000 C 
ATOM      9  C   UNL     1       1.726   4.532  18.243  0.00  0.00    +0.000 C 
ATOM     10  C   UNL     1       0.765   4.015  19.314  0.00  0.00    +0.000 C 
ATOM     11  N   UNL     1       1.444   3.452  20.476  0.00  0.00    +0.000 NA
ATOM     12  C   UNL     1       2.382   4.407  21.065  0.00  0.00    +0.000 C 
ATOM     13  C   UNL     1       3.444   4.935  20.075  0.00  0.00    +0.000 C 
ATOM     14  H   UNL     1       1.943   2.602  20.215  0.00  0.00    +0.000 HD
BRANCH  13  15
ATOM     15  C   UNL     1       4.452   3.828  19.688  0.00  0.00    +0.000 C 
BRANCH  15  16
ATOM     16  O   UNL     1       5.785   4.346  19.635  0.00  0.00    +0.000 OA
BRANCH  16  17
ATOM     17  C   UNL     1       6.206   4.773  18.399  0.00  0.00    +0.000 A 
ATOM     18  C   UNL     1       6.920   5.964  18.157  0.00  0.00    +0.000 A 
ATOM     19  C   UNL     1       7.340   6.307  16.870  0.00  0.00    +0.000 A 
ATOM     20  C   UNL     1       7.024   5.448  15.848  0.00  0.00    +0.000 A 
ATOM     21  C   UNL     1       6.311   4.289  16.070  0.00  0.00    +0.000 A 
ATOM     22  C   UNL     1       5.888   3.928  17.330  0.00  0.00    +0.000 A 
ATOM     23  O   UNL     1       6.106   3.590  14.921  0.00  0.00    +0.000 OA
ATOM     24  C   UNL     1       6.749   4.451  13.956  0.00  0.00    +0.000 C 
ATOM     25  O   UNL     1       7.362   5.616  14.544  0.00  0.00    +0.000 OA
ENDBRANCH  16  17
ENDBRANCH  15  16
ENDBRANCH  13  15
ENDBRANCH   3   8
BRANCH   1  27
ATOM     26  O   UNL     1       1.859   9.253  22.542  0.00  0.00    +0.000 OA
ATOM     27  C   UNL     1       1.039   9.316  21.634  0.00  0.00    +0.000 C 
ATOM     28  N   UNL     1      -0.215   9.879  21.777  0.00  0.00    +0.000 N 
ATOM     29  H   UNL     1      -0.880   9.770  21.019  0.00  0.00    +0.000 HD
BRANCH  28  30
ATOM     30  C   UNL     1      -0.709  10.336  23.066  0.00  0.00    +0.000 C 
BRANCH  30  31
ATOM     31  C   UNL     1      -1.781  11.417  22.923  0.00  0.00    +0.000 C 
BRANCH  31  32
ATOM     32  C   UNL     1      -1.172  12.791  22.833  0.00  0.00    +0.000 A 
ATOM     33  C   UNL     1      -0.186  13.070  21.889  0.00  0.00    +0.000 A 
ATOM     34  C   UNL     1       0.378  14.342  21.860  0.00  0.00    +0.000 A 
ATOM     35  C   UNL     1      -0.054  15.300  22.768  0.00  0.00    +0.000 A 
ATOM     36  C   UNL     1      -1.042  14.943  23.670  0.00  0.00    +0.000 A 
ATOM     37  N   UNL     1      -1.607  13.717  23.722  0.00  0.00    +0.000 NA
ENDBRANCH  31  32
ENDBRANCH  30  31
ENDBRANCH  28  30
ENDBRANCH   1  27
TORSDOF 8
ENDMDL
MODEL 4
REMARK VINA RESULT:      -8.4      4.442      5.788
REMARK  Name = 
REMARK  8 active torsions:
REMARK  status: ('A' for Active; 'I' for Inactive)
REMARK    1  A    between atoms: C_2  and  C_12
REMARK    2  A    between atoms: N_3  and  C_4
REMARK    3  A    between atoms: C_4  and  C_5
REMARK    4  A    between atoms: C_5  and  C_6
REMARK    5  A    between atoms: C_14  and  C_15
REMARK    6  A    between atoms: C_20  and  C_21
REMARK    7  A    between atoms: C_21  and  O_22
REMARK    8  A    between atoms: O_22  and  C_23
REMARK                            x       y       z     vdW  Elec       q    Type
REMARK                         _______ _______ _______ _____ _____    ______ ____
ROOT
ATOM      1  C   UNL     1       2.494   5.582  19.201  0.00  0.00    +0.000 A 
ATOM      2  C   UNL     1       3.678   6.142  18.680  0.00  0.00    +0.000 A 
ATOM      3  C   UNL     1       4.316   5.596  17.541  0.00  0.00    +0.000 A 
ATOM      4  C   UNL     1       3.774   4.422  16.996  0.00  0.00    +0.000 A 
ATOM      5  C   UNL     1       2.607   3.857  17.513  0.00  0.00    +0.000 A 
ATOM      6  C   UNL     1       1.969   4.444  18.597  0.00  0.00    +0.000 A 
ATOM      7  F   UNL     1       0.839   3.877  19.048  0.00  0.00    +0.000 F 
ENDROOT
BRANCH   3   8
ATOM      8  C   UNL     1       5.562   6.284  16.971  0.00  0.00    +0.000 C 
ATOM      9  C   UNL     1       5.927   5.727  15.573  0.00  0.00    +0.000 C 
ATOM     10  C   UNL     1       6.745   4.436  15.626  0.00  0.00    +0.000 C 
ATOM     11  N   UNL     1       7.935   4.541  16.462  0.00  0.00    +0.000 NA
ATOM     12  C   UNL     1       7.602   4.977  17.818  0.00  0.00    +0.000 C 
ATOM     13  C   UNL     1       6.834   6.317  17.875  0.00  0.00    +0.000 C 
ATOM     14  H   UNL     1       8.600   5.194  16.049  0.00  0.00    +0.000 HD
BRANCH  13  15
ATOM     15  C   UNL     1       7.739   7.502  17.465  0.00  0.00    +0.000 C 
BRANCH  15  16
ATOM     16  O   UNL     1       8.404   8.056  18.605  0.00  0.00    +0.000 OA
BRANCH  16  17
ATOM     17  C   UNL     1       8.666   9.402  18.542  0.00  0.00    +0.000 A 
ATOM     18  C   UNL     1       8.095  10.293  17.611  0.00  0.00    +0.000 A 
ATOM     19  C   UNL     1       8.392  11.657  17.638  0.00  0.00    +0.000 A 
ATOM     20  C   UNL     1       9.267  12.098  18.599  0.00  0.00    +0.000 A 
ATOM     21  C   UNL     1       9.844  11.234  19.505  0.00  0.00    +0.000 A 
ATOM     22  C   UNL     1       9.566   9.885  19.498  0.00  0.00    +0.000 A 
ATOM     23  O   UNL     1      10.680  11.880  20.362  0.00  0.00    +0.000 OA
ATOM     24  C   UNL     1      10.577  13.237  19.879  0.00  0.00    +0.000 C 
ATOM     25  O   UNL     1       9.655  13.386  18.780  0.00  0.00    +0.000 OA
ENDBRANCH  16  17
ENDBRANCH  15  16
ENDBRANCH  13  15
ENDBRANCH   3   8
BRANCH   1  27
ATOM     26  O   UNL     1       1.278   5.516  21.217  0.00  0.00    +0.000 OA
ATOM     27  C   UNL     1       1.831   6.216  20.376  0.00  0.00    +0.000 C 
ATOM     28  N   UNL     1       1.905   7.593  20.460  0.00  0.00    +0.000 N 
ATOM     29  H   UNL     1       2.259   8.105  19.659  0.00  0.00    +0.000 HD
BRANCH  28  30
ATOM     30  C   UNL     1       1.217   8.337  21.504  0.00  0.00    +0.000 C 
BRANCH  30  31
ATOM     31  C   UNL     1      -0.164   8.815  21.056  0.00  0.00    +0.000 C 
BRANCH  31  32
ATOM     32  C   UNL     1      -0.076  10.097  20.271  0.00  0.00    +0.000 A 
ATOM     33  C   UNL     1       0.847  11.081  20.619  0.00  0.00    +0.000 A 
ATOM     34  C   UNL     1       0.873  12.266  19.890  0.00  0.00    +0.000 A 
ATOM     35  C   UNL     1      -0.017  12.440  18.838  0.00  0.00    +0.000 A 
ATOM     36  C   UNL     1      -0.898  11.411  18.554  0.00  0.00    +0.000 A 
ATOM     37  N   UNL     1      -0.947  10.250  19.244  0.00  0.00    +0.000 NA
ENDBRANCH  31  32
ENDBRANCH  30  31
ENDBRANCH  28  30
ENDBRANCH   1  27
TORSDOF 8
ENDMDL
MODEL 5
REMARK VINA RESULT:      -8.3      4.255      5.694
REMARK  Name = 
REMARK  8 active torsions:
REMARK  status: ('A' for Active; 'I' for Inactive)
REMARK    1  A    between atoms: C_2  and  C_12
REMARK    2  A    between atoms: N_3  and  C_4
REMARK    3  A    between atoms: C_4  and  C_5
REMARK    4  A    between atoms: C_5  and  C_6
REMARK    5  A    between atoms: C_14  and  C_15
REMARK    6  A    between atoms: C_20  and  C_21
REMARK    7  A    between atoms: C_21  and  O_22
REMARK    8  A    between atoms: O_22  and  C_23
REMARK                            x       y       z     vdW  Elec       q    Type
REMARK                         _______ _______ _______ _____ _____    ______ ____
ROOT
ATOM      1  C   UNL     1       2.437   5.226  19.104  0.00  0.00    +0.000 A 
ATOM      2  C   UNL     1       3.584   5.868  18.595  0.00  0.00    +0.000 A 
ATOM      3  C   UNL     1       4.234   5.406  17.426  0.00  0.00    +0.000 A 
ATOM      4  C   UNL     1       3.745   4.230  16.837  0.00  0.00    +0.000 A 
ATOM      5  C   UNL     1       2.616   3.584  17.340  0.00  0.00    +0.000 A 
ATOM      6  C   UNL     1       1.963   4.089  18.457  0.00  0.00    +0.000 A 
ATOM      7  F   UNL     1       0.870   3.445  18.894  0.00  0.00    +0.000 F 
ENDROOT
BRANCH   3   8
ATOM      8  C   UNL     1       5.435   6.182  16.874  0.00  0.00    +0.000 C 
ATOM      9  C   UNL     1       5.869   5.643  15.489  0.00  0.00    +0.000 C 
ATOM     10  C   UNL     1       6.782   4.418  15.570  0.00  0.00    +0.000 C 
ATOM     11  N   UNL     1       7.944   4.621  16.429  0.00  0.00    +0.000 NA
ATOM     12  C   UNL     1       7.551   5.041  17.773  0.00  0.00    +0.000 C 
ATOM     13  C   UNL     1       6.682   6.319  17.802  0.00  0.00    +0.000 C 
ATOM     14  H   UNL     1       8.565   5.319  16.022  0.00  0.00    +0.000 HD
BRANCH  13  15
ATOM     15  C   UNL     1       7.502   7.567  17.398  0.00  0.00    +0.000 C 
BRANCH  15  16
ATOM     16  O   UNL     1       8.398   7.951  18.446  0.00  0.00    +0.000 OA
BRANCH  16  17
ATOM     17  C   UNL     1       8.639   9.298  18.555  0.00  0.00    +0.000 A 
ATOM     18  C   UNL     1       9.548   9.885  19.459  0.00  0.00    +0.000 A 
ATOM     19  C   UNL     1       9.757  11.266  19.481  0.00  0.00    +0.000 A 
ATOM     20  C   UNL     1       9.040  12.032  18.597  0.00  0.00    +0.000 A 
ATOM     21  C   UNL     1       8.135  11.471  17.720  0.00  0.00    +0.000 A 
ATOM     22  C   UNL     1       7.913  10.112  17.679  0.00  0.00    +0.000 A 
ATOM     23  O   UNL     1       7.534  12.410  16.941  0.00  0.00    +0.000 OA
ATOM     24  C   UNL     1       8.145  13.618  17.442  0.00  0.00    +0.000 C 
ATOM     25  O   UNL     1       9.126  13.380  18.472  0.00  0.00    +0.000 OA
ENDBRANCH  16  17
ENDBRANCH  15  16
ENDBRANCH  13  15
ENDBRANCH   3   8
BRANCH   1  27
ATOM     26  O   UNL     1       1.245   5.009  21.124  0.00  0.00    +0.000 OA
ATOM     27  C   UNL     1       1.758   5.772  20.313  0.00  0.00    +0.000 C 
ATOM     28  N   UNL     1       1.771   7.145  20.463  0.00  0.00    +0.000 N 
ATOM     29  H   UNL     1       2.093   7.711  19.684  0.00  0.00    +0.000 HD
BRANCH  28  30
ATOM     30  C   UNL     1       1.061   7.807  21.546  0.00  0.00    +0.000 C 
BRANCH  30  31
ATOM     31  C   UNL     1       1.385   9.299  21.622  0.00  0.00    +0.000 C 
BRANCH  31  32
ATOM     32  C   UNL     1       0.448  10.112  20.768  0.00  0.00    +0.000 A 
ATOM     33  C   UNL     1      -0.242  11.196  21.306  0.00  0.00    +0.000 A 
ATOM     34  C   UNL     1      -1.126  11.902  20.494  0.00  0.00    +0.000 A 
ATOM     35  C   UNL     1      -1.298  11.510  19.173  0.00  0.00    +0.000 A 
ATOM     36  C   UNL     1      -0.570  10.426  18.715  0.00  0.00    +0.000 A 
ATOM     37  N   UNL     1       0.294   9.722  19.479  0.00  0.00    +0.000 NA
ENDBRANCH  31  32
ENDBRANCH  30  31
ENDBRANCH  28  30
ENDBRANCH   1  27
TORSDOF 8
ENDMDL
MODEL 6
REMARK VINA RESULT:      -8.3      1.615      2.602
REMARK  Name = 
REMARK  8 active torsions:
REMARK  status: ('A' for Active; 'I' for Inactive)
REMARK    1  A    between atoms: C_2  and  C_12
REMARK    2  A    between atoms: N_3  and  C_4
REMARK    3  A    between atoms: C_4  and  C_5
REMARK    4  A    between atoms: C_5  and  C_6
REMARK    5  A    between atoms: C_14  and  C_15
REMARK    6  A    between atoms: C_20  and  C_21
REMARK    7  A    between atoms: C_21  and  O_22
REMARK    8  A    between atoms: O_22  and  C_23
REMARK                            x       y       z     vdW  Elec       q    Type
REMARK                         _______ _______ _______ _____ _____    ______ ____
ROOT
ATOM      1  C   UNL     1       1.570   8.966  19.353  0.00  0.00    +0.000 A 
ATOM      2  C   UNL     1       2.270   7.830  18.898  0.00  0.00    +0.000 A 
ATOM      3  C   UNL     1       2.272   6.619  19.629  0.00  0.00    +0.000 A 
ATOM      4  C   UNL     1       1.620   6.613  20.871  0.00  0.00    +0.000 A 
ATOM      5  C   UNL     1       0.933   7.736  21.333  0.00  0.00    +0.000 A 
ATOM      6  C   UNL     1       0.900   8.896  20.570  0.00  0.00    +0.000 A 
ATOM      7  F   UNL     1       0.211   9.945  21.045  0.00  0.00    +0.000 F 
ENDROOT
BRANCH   3   8
ATOM      8  C   UNL     1       2.989   5.392  19.056  0.00  0.00    +0.000 C 
ATOM      9  C   UNL     1       2.296   4.879  17.770  0.00  0.00    +0.000 C 
ATOM     10  C   UNL     1       1.099   3.969  18.044  0.00  0.00    +0.000 C 
ATOM     11  N   UNL     1       1.411   2.857  18.936  0.00  0.00    +0.000 NA
ATOM     12  C   UNL     1       1.982   3.325  20.198  0.00  0.00    +0.000 C 
ATOM     13  C   UNL     1       3.247   4.198  20.029  0.00  0.00    +0.000 C 
ATOM     14  H   UNL     1       2.063   2.216  18.485  0.00  0.00    +0.000 HD
BRANCH  13  15
ATOM     15  C   UNL     1       4.446   3.360  19.527  0.00  0.00    +0.000 C 
BRANCH  15  16
ATOM     16  O   UNL     1       5.660   4.115  19.595  0.00  0.00    +0.000 OA
BRANCH  16  17
ATOM     17  C   UNL     1       6.124   4.601  18.397  0.00  0.00    +0.000 A 
ATOM     18  C   UNL     1       6.862   5.791  18.241  0.00  0.00    +0.000 A 
ATOM     19  C   UNL     1       7.326   6.196  16.987  0.00  0.00    +0.000 A 
ATOM     20  C   UNL     1       7.028   5.398  15.911  0.00  0.00    +0.000 A 
ATOM     21  C   UNL     1       6.292   4.240  16.049  0.00  0.00    +0.000 A 
ATOM     22  C   UNL     1       5.826   3.820  17.275  0.00  0.00    +0.000 A 
ATOM     23  O   UNL     1       6.111   3.608  14.858  0.00  0.00    +0.000 OA
ATOM     24  C   UNL     1       6.795   4.508  13.960  0.00  0.00    +0.000 C 
ATOM     25  O   UNL     1       7.407   5.630  14.629  0.00  0.00    +0.000 OA
ENDBRANCH  16  17
ENDBRANCH  15  16
ENDBRANCH  13  15
ENDBRANCH   3   8
BRANCH   1  27
ATOM     26  O   UNL     1       1.978  10.181  17.377  0.00  0.00    +0.000 OA
ATOM     27  C   UNL     1       1.558  10.208  18.529  0.00  0.00    +0.000 C 
ATOM     28  N   UNL     1       1.035  11.340  19.123  0.00  0.00    +0.000 N 
ATOM     29  H   UNL     1       0.837  11.312  20.118  0.00  0.00    +0.000 HD
BRANCH  28  30
ATOM     30  C   UNL     1       1.056  12.634  18.461  0.00  0.00    +0.000 C 
BRANCH  30  31
ATOM     31  C   UNL     1      -0.253  13.401  18.653  0.00  0.00    +0.000 C 
BRANCH  31  32
ATOM     32  C   UNL     1      -0.861  13.127  20.003  0.00  0.00    +0.000 A 
ATOM     33  C   UNL     1      -2.210  12.801  20.120  0.00  0.00    +0.000 A 
ATOM     34  C   UNL     1      -2.744  12.589  21.388  0.00  0.00    +0.000 A 
ATOM     35  C   UNL     1      -1.922  12.705  22.502  0.00  0.00    +0.000 A 
ATOM     36  C   UNL     1      -0.591  13.026  22.297  0.00  0.00    +0.000 A 
ATOM     37  N   UNL     1      -0.045  13.239  21.080  0.00  0.00    +0.000 NA
ENDBRANCH  31  32
ENDBRANCH  30  31
ENDBRANCH  28  30
ENDBRANCH   1  27
TORSDOF 8
ENDMDL
MODEL 7
REMARK VINA RESULT:      -8.2      2.334      4.466
REMARK  Name = 
REMARK  8 active torsions:
REMARK  status: ('A' for Active; 'I' for Inactive)
REMARK    1  A    between atoms: C_2  and  C_12
REMARK    2  A    between atoms: N_3  and  C_4
REMARK    3  A    between atoms: C_4  and  C_5
REMARK    4  A    between atoms: C_5  and  C_6
REMARK    5  A    between atoms: C_14  and  C_15
REMARK    6  A    between atoms: C_20  and  C_21
REMARK    7  A    between atoms: C_21  and  O_22
REMARK    8  A    between atoms: O_22  and  C_23
REMARK                            x       y       z     vdW  Elec       q    Type
REMARK                         _______ _______ _______ _____ _____    ______ ____
ROOT
ATOM      1  C   UNL     1       1.912   7.911  19.692  0.00  0.00    +0.000 A 
ATOM      2  C   UNL     1       2.852   6.892  19.439  0.00  0.00    +0.000 A 
ATOM      3  C   UNL     1       3.575   6.836  18.224  0.00  0.00    +0.000 A 
ATOM      4  C   UNL     1       3.262   7.786  17.241  0.00  0.00    +0.000 A 
ATOM      5  C   UNL     1       2.326   8.793  17.481  0.00  0.00    +0.000 A 
ATOM      6  C   UNL     1       1.669   8.859  18.702  0.00  0.00    +0.000 A 
ATOM      7  F   UNL     1       0.791   9.855  18.895  0.00  0.00    +0.000 F 
ENDROOT
BRANCH   3   8
ATOM      8  C   UNL     1       4.638   5.749  18.027  0.00  0.00    +0.000 C 
ATOM      9  C   UNL     1       6.045   6.252  18.430  0.00  0.00    +0.000 C 
ATOM     10  C   UNL     1       6.748   7.045  17.327  0.00  0.00    +0.000 C 
ATOM     11  N   UNL     1       6.802   6.338  16.052  0.00  0.00    +0.000 NA
ATOM     12  C   UNL     1       5.469   5.934  15.606  0.00  0.00    +0.000 C 
ATOM     13  C   UNL     1       4.703   5.062  16.626  0.00  0.00    +0.000 C 
ATOM     14  H   UNL     1       7.398   5.515  16.131  0.00  0.00    +0.000 HD
BRANCH  13  15
ATOM     15  C   UNL     1       5.339   3.659  16.758  0.00  0.00    +0.000 C 
BRANCH  15  16
ATOM     16  O   UNL     1       4.332   2.645  16.826  0.00  0.00    +0.000 OA
BRANCH  16  17
ATOM     17  C   UNL     1       3.394   2.807  17.816  0.00  0.00    +0.000 A 
ATOM     18  C   UNL     1       2.057   3.200  17.604  0.00  0.00    +0.000 A 
ATOM     19  C   UNL     1       1.157   3.309  18.667  0.00  0.00    +0.000 A 
ATOM     20  C   UNL     1       1.625   3.029  19.927  0.00  0.00    +0.000 A 
ATOM     21  C   UNL     1       2.934   2.660  20.148  0.00  0.00    +0.000 A 
ATOM     22  C   UNL     1       3.839   2.544  19.116  0.00  0.00    +0.000 A 
ATOM     23  O   UNL     1       3.183   2.434  21.466  0.00  0.00    +0.000 OA
ATOM     24  C   UNL     1       1.891   2.723  22.045  0.00  0.00    +0.000 C 
ATOM     25  O   UNL     1       0.890   3.069  21.067  0.00  0.00    +0.000 OA
ENDBRANCH  16  17
ENDBRANCH  15  16
ENDBRANCH  13  15
ENDBRANCH   3   8
BRANCH   1  27
ATOM     26  O   UNL     1       0.791   6.921  21.512  0.00  0.00    +0.000 OA
ATOM     27  C   UNL     1       1.205   7.957  21.003  0.00  0.00    +0.000 C 
ATOM     28  N   UNL     1       1.078   9.199  21.595  0.00  0.00    +0.000 N 
ATOM     29  H   UNL     1       1.324  10.019  21.049  0.00  0.00    +0.000 HD
BRANCH  28  30
ATOM     30  C   UNL     1       0.326   9.392  22.824  0.00  0.00    +0.000 C 
BRANCH  30  31
ATOM     31  C   UNL     1      -0.595  10.610  22.753  0.00  0.00    +0.000 C 
BRANCH  31  32
ATOM     32  C   UNL     1      -0.245  11.499  21.589  0.00  0.00    +0.000 A 
ATOM     33  C   UNL     1      -1.176  11.753  20.585  0.00  0.00    +0.000 A 
ATOM     34  C   UNL     1      -0.804  12.551  19.507  0.00  0.00    +0.000 A 
ATOM     35  C   UNL     1       0.482  13.074  19.458  0.00  0.00    +0.000 A 
ATOM     36  C   UNL     1       1.345  12.778  20.500  0.00  0.00    +0.000 A 
ATOM     37  N   UNL     1       1.012  12.006  21.558  0.00  0.00    +0.000 NA
ENDBRANCH  31  32
ENDBRANCH  30  31
ENDBRANCH  28  30
ENDBRANCH   1  27
TORSDOF 8
ENDMDL
MODEL 8
REMARK VINA RESULT:      -8.2      4.547      8.122
REMARK  Name = 
REMARK  8 active torsions:
REMARK  status: ('A' for Active; 'I' for Inactive)
REMARK    1  A    between atoms: C_2  and  C_12
REMARK    2  A    between atoms: N_3  and  C_4
REMARK    3  A    between atoms: C_4  and  C_5
REMARK    4  A    between atoms: C_5  and  C_6
REMARK    5  A    between atoms: C_14  and  C_15
REMARK    6  A    between atoms: C_20  and  C_21
REMARK    7  A    between atoms: C_21  and  O_22
REMARK    8  A    between atoms: O_22  and  C_23
REMARK                            x       y       z     vdW  Elec       q    Type
REMARK                         _______ _______ _______ _____ _____    ______ ____
ROOT
ATOM      1  C   UNL     1       6.495   5.785  17.578  0.00  0.00    +0.000 A 
ATOM      2  C   UNL     1       5.487   5.525  18.528  0.00  0.00    +0.000 A 
ATOM      3  C   UNL     1       4.468   4.573  18.285  0.00  0.00    +0.000 A 
ATOM      4  C   UNL     1       4.448   3.955  17.026  0.00  0.00    +0.000 A 
ATOM      5  C   UNL     1       5.438   4.214  16.077  0.00  0.00    +0.000 A 
ATOM      6  C   UNL     1       6.458   5.112  16.360  0.00  0.00    +0.000 A 
ATOM      7  F   UNL     1       7.398   5.316  15.425  0.00  0.00    +0.000 F 
ENDROOT
BRANCH   3   8
ATOM      8  C   UNL     1       3.437   4.275  19.379  0.00  0.00    +0.000 C 
ATOM      9  C   UNL     1       3.618   2.850  19.957  0.00  0.00    +0.000 C 
ATOM     10  C   UNL     1       2.946   1.762  19.119  0.00  0.00    +0.000 C 
ATOM     11  N   UNL     1       1.537   2.030  18.848  0.00  0.00    +0.000 NA
ATOM     12  C   UNL     1       1.351   3.335  18.215  0.00  0.00    +0.000 C 
ATOM     13  C   UNL     1       1.935   4.515  19.025  0.00  0.00    +0.000 C 
ATOM     14  H   UNL     1       0.999   1.992  19.713  0.00  0.00    +0.000 HD
BRANCH  13  15
ATOM     15  C   UNL     1       1.125   4.765  20.319  0.00  0.00    +0.000 C 
BRANCH  15  16
ATOM     16  O   UNL     1       1.727   5.797  21.107  0.00  0.00    +0.000 OA
BRANCH  16  17
ATOM     17  C   UNL     1       1.350   7.079  20.791  0.00  0.00    +0.000 A 
ATOM     18  C   UNL     1       0.419   7.849  21.517  0.00  0.00    +0.000 A 
ATOM     19  C   UNL     1       0.117   9.161  21.145  0.00  0.00    +0.000 A 
ATOM     20  C   UNL     1       0.754   9.671  20.041  0.00  0.00    +0.000 A 
ATOM     21  C   UNL     1       1.654   8.922  19.313  0.00  0.00    +0.000 A 
ATOM     22  C   UNL     1       1.968   7.627  19.662  0.00  0.00    +0.000 A 
ATOM     23  O   UNL     1       2.161   9.619  18.261  0.00  0.00    +0.000 OA
ATOM     24  C   UNL     1       1.463  10.875  18.399  0.00  0.00    +0.000 C 
ATOM     25  O   UNL     1       0.593  10.925  19.547  0.00  0.00    +0.000 OA
ENDBRANCH  16  17
ENDBRANCH  15  16
ENDBRANCH  13  15
ENDBRANCH   3   8
BRANCH   1  27
ATOM     26  O   UNL     1       8.333   6.556  18.833  0.00  0.00    +0.000 OA
ATOM     27  C   UNL     1       7.574   6.764  17.893  0.00  0.00    +0.000 C 
ATOM     28  N   UNL     1       7.671   7.865  17.064  0.00  0.00    +0.000 N 
ATOM     29  H   UNL     1       6.925   8.033  16.397  0.00  0.00    +0.000 HD
BRANCH  28  30
ATOM     30  C   UNL     1       8.617   8.940  17.322  0.00  0.00    +0.000 C 
BRANCH  30  31
ATOM     31  C   UNL     1       8.134   9.880  18.427  0.00  0.00    +0.000 C 
BRANCH  31  32
ATOM     32  C   UNL     1       9.259  10.725  18.963  0.00  0.00    +0.000 A 
ATOM     33  C   UNL     1       9.388  10.950  20.332  0.00  0.00    +0.000 A 
ATOM     34  C   UNL     1      10.420  11.766  20.786  0.00  0.00    +0.000 A 
ATOM     35  C   UNL     1      11.294  12.334  19.868  0.00  0.00    +0.000 A 
ATOM     36  C   UNL     1      11.100  12.055  18.526  0.00  0.00    +0.000 A 
ATOM     37  N   UNL     1      10.107  11.269  18.056  0.00  0.00    +0.000 NA
ENDBRANCH  31  32
ENDBRANCH  30  31
ENDBRANCH  28  30
ENDBRANCH   1  27
TORSDOF 8
ENDMDL
MODEL 9
REMARK VINA RESULT:      -8.2      4.352      8.221
REMARK  Name = 
REMARK  8 active torsions:
REMARK  status: ('A' for Active; 'I' for Inactive)
REMARK    1  A    between atoms: C_2  and  C_12
REMARK    2  A    between atoms: N_3  and  C_4
REMARK    3  A    between atoms: C_4  and  C_5
REMARK    4  A    between atoms: C_5  and  C_6
REMARK    5  A    between atoms: C_14  and  C_15
REMARK    6  A    between atoms: C_20  and  C_21
REMARK    7  A    between atoms: C_21  and  O_22
REMARK    8  A    between atoms: O_22  and  C_23
REMARK                            x       y       z     vdW  Elec       q    Type
REMARK                         _______ _______ _______ _____ _____    ______ ____
ROOT
ATOM      1  C   UNL     1       6.371   5.460  17.075  0.00  0.00    +0.000 A 
ATOM      2  C   UNL     1       5.401   5.358  18.092  0.00  0.00    +0.000 A 
ATOM      3  C   UNL     1       4.447   4.314  18.104  0.00  0.00    +0.000 A 
ATOM      4  C   UNL     1       4.446   3.427  17.017  0.00  0.00    +0.000 A 
ATOM      5  C   UNL     1       5.397   3.527  16.001  0.00  0.00    +0.000 A 
ATOM      6  C   UNL     1       6.358   4.528  16.041  0.00  0.00    +0.000 A 
ATOM      7  F   UNL     1       7.265   4.574  15.053  0.00  0.00    +0.000 F 
ENDROOT
BRANCH   3   8
ATOM      8  C   UNL     1       3.459   4.207  19.270  0.00  0.00    +0.000 C 
ATOM      9  C   UNL     1       3.430   2.775  19.860  0.00  0.00    +0.000 C 
ATOM     10  C   UNL     1       2.521   1.817  19.088  0.00  0.00    +0.000 C 
ATOM     11  N   UNL     1       1.165   2.325  18.910  0.00  0.00    +0.000 NA
ATOM     12  C   UNL     1       1.165   3.640  18.269  0.00  0.00    +0.000 C 
ATOM     13  C   UNL     1       2.000   4.703  19.016  0.00  0.00    +0.000 C 
ATOM     14  H   UNL     1       0.690   2.386  19.810  0.00  0.00    +0.000 HD
BRANCH  13  15
ATOM     15  C   UNL     1       1.339   5.098  20.358  0.00  0.00    +0.000 C 
BRANCH  15  16
ATOM     16  O   UNL     1       1.978   6.247  20.923  0.00  0.00    +0.000 OA
BRANCH  16  17
ATOM     17  C   UNL     1       1.707   7.442  20.302  0.00  0.00    +0.000 A 
ATOM     18  C   UNL     1       2.172   7.810  19.024  0.00  0.00    +0.000 A 
ATOM     19  C   UNL     1       1.821   9.034  18.450  0.00  0.00    +0.000 A 
ATOM     20  C   UNL     1       1.014   9.870  19.181  0.00  0.00    +0.000 A 
ATOM     21  C   UNL     1       0.567   9.528  20.440  0.00  0.00    +0.000 A 
ATOM     22  C   UNL     1       0.899   8.326  21.025  0.00  0.00    +0.000 A 
ATOM     23  O   UNL     1      -0.213  10.500  20.984  0.00  0.00    +0.000 OA
ATOM     24  C   UNL     1      -0.186  11.495  19.936  0.00  0.00    +0.000 C 
ATOM     25  O   UNL     1       0.565  11.085  18.776  0.00  0.00    +0.000 OA
ENDBRANCH  16  17
ENDBRANCH  15  16
ENDBRANCH  13  15
ENDBRANCH   3   8
BRANCH   1  27
ATOM     26  O   UNL     1       7.994   6.868  16.109  0.00  0.00    +0.000 OA
ATOM     27  C   UNL     1       7.386   6.551  17.125  0.00  0.00    +0.000 C 
ATOM     28  N   UNL     1       7.564   7.174  18.345  0.00  0.00    +0.000 N 
ATOM     29  H   UNL     1       7.125   6.765  19.163  0.00  0.00    +0.000 HD
BRANCH  28  30
ATOM     30  C   UNL     1       8.590   8.185  18.549  0.00  0.00    +0.000 C 
BRANCH  30  31
ATOM     31  C   UNL     1       8.202   9.532  17.938  0.00  0.00    +0.000 C 
BRANCH  31  32
ATOM     32  C   UNL     1       8.993  10.661  18.542  0.00  0.00    +0.000 A 
ATOM     33  C   UNL     1       9.609  10.511  19.783  0.00  0.00    +0.000 A 
ATOM     34  C   UNL     1      10.303  11.590  20.325  0.00  0.00    +0.000 A 
ATOM     35  C   UNL     1      10.365  12.784  19.618  0.00  0.00    +0.000 A 
ATOM     36  C   UNL     1       9.731  12.847  18.390  0.00  0.00    +0.000 A 
ATOM     37  N   UNL     1       9.050  11.818  17.839  0.00  0.00    +0.000 NA
ENDBRANCH  31  32
ENDBRANCH  30  31
ENDBRANCH  28  30
ENDBRANCH   1  27
TORSDOF 8
ENDMDL
