MODEL 1
REMARK VINA RESULT:      -7.3      0.000      0.000
REMARK  Name = 
REMARK  4 active torsions:
REMARK  status: ('A' for Active; 'I' for Inactive)
REMARK    1  A    between atoms: C_1  and  C_2
REMARK    2  A    between atoms: C_2  and  C_3
REMARK    3  A    between atoms: C_3  and  N_4
REMARK    4  A    between atoms: C_8  and  C_9
REMARK                            x       y       z     vdW  Elec       q    Type
REMARK                         _______ _______ _______ _____ _____    ______ ____
ROOT
ATOM      1  C   UNL     1       4.940   4.197  16.891  0.00  0.00    +0.000 A 
ATOM      2  C   UNL     1       3.575   4.128  16.676  0.00  0.00    +0.000 A 
ATOM      3  C   UNL     1       2.744   3.777  17.738  0.00  0.00    +0.000 A 
ATOM      4  C   UNL     1       3.319   3.507  18.972  0.00  0.00    +0.000 A 
ATOM      5  N   UNL     1       2.530   3.134  20.085  0.00  0.00    +0.000 N 
ATOM      6  C   UNL     1       1.170   2.932  20.144  0.00  0.00    +0.000 A 
ATOM      7  C   UNL     1       0.900   2.577  21.443  0.00  0.00    +0.000 A 
ATOM      8  N   UNL     1       2.045   2.555  22.190  0.00  0.00    +0.000 NA
ATOM      9  C   UNL     1       3.006   2.889  21.354  0.00  0.00    +0.000 A 
ATOM     10  N   UNL     1       4.655   3.587  19.151  0.00  0.00    +0.000 NA
ATOM     11  N   UNL     1       5.464   3.924  18.102  0.00  0.00    +0.000 NA
ENDROOT
BRANCH   1  16
ATOM     12  N   UNL     1       6.988   5.369  15.990  0.00  0.00    +0.000 N 
ATOM     13  N   UNL     1       7.672   5.561  14.840  0.00  0.00    +0.000 NA
ATOM     14  C   UNL     1       7.022   4.819  13.948  0.00  0.00    +0.000 A 
ATOM     15  C   UNL     1       5.910   4.172  14.506  0.00  0.00    +0.000 A 
ATOM     16  C   UNL     1       5.883   4.551  15.839  0.00  0.00    +0.000 A 
BRANCH  12  17
ATOM     17  C   UNL     1       7.473   6.036  17.189  0.00  0.00    +0.000 C 
BRANCH  17  19
ATOM     18  C   UNL     1       8.053   8.406  17.808  0.00  0.00    +0.000 C 
ATOM     19  C   UNL     1       6.976   7.477  17.274  0.00  0.00    +0.000 C 
ENDBRANCH  17  19
ENDBRANCH  12  17
ENDBRANCH   1  16
TORSDOF 3
ENDMDL
MODEL 2
REMARK VINA RESULT:      -7.2      5.026      6.250
REMARK  Name = 
REMARK  4 active torsions:
REMARK  status: ('A' for Active; 'I' for Inactive)
REMARK    1  A    between atoms: C_1  and  C_2
REMARK    2  A    between atoms: C_2  and  C_3
REMARK    3  A    between atoms: C_3  and  N_4
REMARK    4  A    between atoms: C_8  and  C_9
REMARK                            x       y       z     vdW  Elec       q    Type
REMARK                         _______ _______ _______ _____ _____    ______ ____
ROOT
ATOM      1  C   UNL     1       2.522   7.076  18.818  0.00  0.00    +0.000 A 
ATOM      2  C   UNL     1       2.081   8.255  18.244  0.00  0.00    +0.000 A 
ATOM      3  C   UNL     1       1.398   9.175  19.037  0.00  0.00    +0.000 A 
ATOM      4  C   UNL     1       1.185   8.871  20.375  0.00  0.00    +0.000 A 
ATOM      5  N   UNL     1       0.489   9.758  21.228  0.00  0.00    +0.000 N 
ATOM      6  C   UNL     1      -0.105  10.960  20.916  0.00  0.00    +0.000 A 
ATOM      7  C   UNL     1      -0.652  11.422  22.088  0.00  0.00    +0.000 A 
ATOM      8  N   UNL     1      -0.414  10.550  23.115  0.00  0.00    +0.000 NA
ATOM      9  C   UNL     1       0.267   9.562  22.573  0.00  0.00    +0.000 A 
ATOM     10  N   UNL     1       1.632   7.713  20.907  0.00  0.00    +0.000 NA
ATOM     11  N   UNL     1       2.293   6.812  20.119  0.00  0.00    +0.000 NA
ENDROOT
BRANCH   1  16
ATOM     12  N   UNL     1       2.719   4.843  17.654  0.00  0.00    +0.000 N 
ATOM     13  N   UNL     1       3.615   4.070  17.001  0.00  0.00    +0.000 NA
ATOM     14  C   UNL     1       4.715   4.817  16.954  0.00  0.00    +0.000 A 
ATOM     15  C   UNL     1       4.543   6.054  17.592  0.00  0.00    +0.000 A 
ATOM     16  C   UNL     1       3.239   6.056  18.064  0.00  0.00    +0.000 A 
BRANCH  12  17
ATOM     17  C   UNL     1       1.378   4.313  17.848  0.00  0.00    +0.000 C 
BRANCH  17  19
ATOM     18  C   UNL     1       0.980   3.464  20.184  0.00  0.00    +0.000 C 
ATOM     19  C   UNL     1       1.380   3.094  18.767  0.00  0.00    +0.000 C 
ENDBRANCH  17  19
ENDBRANCH  12  17
ENDBRANCH   1  16
TORSDOF 3
ENDMDL
MODEL 3
REMARK VINA RESULT:      -7.1      3.702      3.962
REMARK  Name = 
REMARK  4 active torsions:
REMARK  status: ('A' for Active; 'I' for Inactive)
REMARK    1  A    between atoms: C_1  and  C_2
REMARK    2  A    between atoms: C_2  and  C_3
REMARK    3  A    between atoms: C_3  and  N_4
REMARK    4  A    between atoms: C_8  and  C_9
REMARK                            x       y       z     vdW  Elec       q    Type
REMARK                         _______ _______ _______ _____ _____    ______ ____
ROOT
ATOM      1  C   UNL     1       4.375   6.081  17.700  0.00  0.00    +0.000 A 
ATOM      2  C   UNL     1       3.917   5.561  18.898  0.00  0.00    +0.000 A 
ATOM      3  C   UNL     1       2.970   6.278  19.625  0.00  0.00    +0.000 A 
ATOM      4  C   UNL     1       2.522   7.491  19.119  0.00  0.00    +0.000 A 
ATOM      5  N   UNL     1       1.570   8.271  19.816  0.00  0.00    +0.000 N 
ATOM      6  C   UNL     1       0.996   8.030  21.043  0.00  0.00    +0.000 A 
ATOM      7  C   UNL     1       0.149   9.087  21.274  0.00  0.00    +0.000 A 
ATOM      8  N   UNL     1       0.178   9.972  20.231  0.00  0.00    +0.000 NA
ATOM      9  C   UNL     1       1.038   9.462  19.374  0.00  0.00    +0.000 A 
ATOM     10  N   UNL     1       2.985   7.970  17.945  0.00  0.00    +0.000 NA
ATOM     11  N   UNL     1       3.921   7.264  17.242  0.00  0.00    +0.000 NA
ENDROOT
BRANCH   1  16
ATOM     12  N   UNL     1       6.735   5.580  16.955  0.00  0.00    +0.000 N 
ATOM     13  N   UNL     1       7.421   4.851  16.047  0.00  0.00    +0.000 NA
ATOM     14  C   UNL     1       6.482   4.161  15.407  0.00  0.00    +0.000 A 
ATOM     15  C   UNL     1       5.194   4.459  15.877  0.00  0.00    +0.000 A 
ATOM     16  C   UNL     1       5.367   5.402  16.878  0.00  0.00    +0.000 A 
BRANCH  12  17
ATOM     17  C   UNL     1       7.494   6.439  17.852  0.00  0.00    +0.000 C 
BRANCH  17  19
ATOM     18  C   UNL     1       8.394   8.757  18.246  0.00  0.00    +0.000 C 
ATOM     19  C   UNL     1       7.521   7.884  17.361  0.00  0.00    +0.000 C 
ENDBRANCH  17  19
ENDBRANCH  12  17
ENDBRANCH   1  16
TORSDOF 3
ENDMDL
MODEL 4
REMARK VINA RESULT:      -7.0      5.124      6.602
REMARK  Name = 
REMARK  4 active torsions:
REMARK  status: ('A' for Active; 'I' for Inactive)
REMARK    1  A    between atoms: C_1  and  C_2
REMARK    2  A    between atoms: C_2  and  C_3
REMARK    3  A    between atoms: C_3  and  N_4
REMARK    4  A    between atoms: C_8  and  C_9
REMARK                            x       y       z     vdW  Elec       q    Type
REMARK                         _______ _______ _______ _____ _____    ______ ____
ROOT
ATOM      1  C   UNL     1       2.789   6.882  18.883  0.00  0.00    +0.000 A 
ATOM      2  C   UNL     1       2.662   7.809  17.863  0.00  0.00    +0.000 A 
ATOM      3  C   UNL     1       1.899   8.954  18.086  0.00  0.00    +0.000 A 
ATOM      4  C   UNL     1       1.293   9.118  19.324  0.00  0.00    +0.000 A 
ATOM      5  N   UNL     1       0.497  10.253  19.607  0.00  0.00    +0.000 N 
ATOM      6  C   UNL     1       0.156  11.292  18.771  0.00  0.00    +0.000 A 
ATOM      7  C   UNL     1      -0.635  12.129  19.519  0.00  0.00    +0.000 A 
ATOM      8  N   UNL     1      -0.791  11.646  20.790  0.00  0.00    +0.000 NA
ATOM      9  C   UNL     1      -0.107  10.522  20.815  0.00  0.00    +0.000 A 
ATOM     10  N   UNL     1       1.439   8.197  20.300  0.00  0.00    +0.000 NA
ATOM     11  N   UNL     1       2.182   7.073  20.070  0.00  0.00    +0.000 NA
ENDROOT
BRANCH   1  16
ATOM     12  N   UNL     1       3.068   4.439  18.308  0.00  0.00    +0.000 N 
ATOM     13  N   UNL     1       3.997   3.457  18.302  0.00  0.00    +0.000 NA
ATOM     14  C   UNL     1       5.114   4.064  18.690  0.00  0.00    +0.000 A 
ATOM     15  C   UNL     1       4.908   5.422  18.973  0.00  0.00    +0.000 A 
ATOM     16  C   UNL     1       3.562   5.656  18.737  0.00  0.00    +0.000 A 
BRANCH  12  17
ATOM     17  C   UNL     1       1.715   4.097  17.895  0.00  0.00    +0.000 C 
BRANCH  17  19
ATOM     18  C   UNL     1       0.914   3.596  20.228  0.00  0.00    +0.000 C 
ATOM     19  C   UNL     1       1.087   3.057  18.819  0.00  0.00    +0.000 C 
ENDBRANCH  17  19
ENDBRANCH  12  17
ENDBRANCH   1  16
TORSDOF 3
ENDMDL
MODEL 5
REMARK VINA RESULT:      -7.0      3.840      4.069
REMARK  Name = 
REMARK  4 active torsions:
REMARK  status: ('A' for Active; 'I' for Inactive)
REMARK    1  A    between atoms: C_1  and  C_2
REMARK    2  A    between atoms: C_2  and  C_3
REMARK    3  A    between atoms: C_3  and  N_4
REMARK    4  A    between atoms: C_8  and  C_9
REMARK                            x       y       z     vdW  Elec       q    Type
REMARK                         _______ _______ _______ _____ _____    ______ ____
ROOT
ATOM      1  C   UNL     1       3.987   6.230  17.904  0.00  0.00    +0.000 A 
ATOM      2  C   UNL     1       3.574   7.433  17.358  0.00  0.00    +0.000 A 
ATOM      3  C   UNL     1       2.670   8.220  18.069  0.00  0.00    +0.000 A 
ATOM      4  C   UNL     1       2.216   7.765  19.300  0.00  0.00    +0.000 A 
ATOM      5  N   UNL     1       1.290   8.512  20.063  0.00  0.00    +0.000 N 
ATOM      6  C   UNL     1       0.673   9.699  19.742  0.00  0.00    +0.000 A 
ATOM      7  C   UNL     1      -0.137  10.001  20.810  0.00  0.00    +0.000 A 
ATOM      8  N   UNL     1      -0.040   9.043  21.781  0.00  0.00    +0.000 NA
ATOM      9  C   UNL     1       0.817   8.163  21.309  0.00  0.00    +0.000 A 
ATOM     10  N   UNL     1       2.641   6.588  19.808  0.00  0.00    +0.000 NA
ATOM     11  N   UNL     1       3.522   5.818  19.100  0.00  0.00    +0.000 NA
ENDROOT
BRANCH   1  16
ATOM     12  N   UNL     1       6.302   5.416  17.311  0.00  0.00    +0.000 N 
ATOM     13  N   UNL     1       6.933   4.491  16.554  0.00  0.00    +0.000 NA
ATOM     14  C   UNL     1       5.944   3.784  16.015  0.00  0.00    +0.000 A 
ATOM     15  C   UNL     1       4.682   4.263  16.396  0.00  0.00    +0.000 A 
ATOM     16  C   UNL     1       4.925   5.343  17.230  0.00  0.00    +0.000 A 
BRANCH  12  17
ATOM     17  C   UNL     1       7.124   6.347  18.071  0.00  0.00    +0.000 C 
BRANCH  17  19
ATOM     18  C   UNL     1       8.175   8.635  18.058  0.00  0.00    +0.000 C 
ATOM     19  C   UNL     1       7.600   7.514  17.209  0.00  0.00    +0.000 C 
ENDBRANCH  17  19
ENDBRANCH  12  17
ENDBRANCH   1  16
TORSDOF 3
ENDMDL
MODEL 6
REMARK VINA RESULT:      -6.8      4.891      5.357
REMARK  Name = 
REMARK  4 active torsions:
REMARK  status: ('A' for Active; 'I' for Inactive)
REMARK    1  A    between atoms: C_1  and  C_2
REMARK    2  A    between atoms: C_2  and  C_3
REMARK    3  A    between atoms: C_3  and  N_4
REMARK    4  A    between atoms: C_8  and  C_9
REMARK                            x       y       z     vdW  Elec       q    Type
REMARK                         _______ _______ _______ _____ _____    ______ ____
ROOT
ATOM      1  C   UNL     1       2.553   6.834  18.613  0.00  0.00    +0.000 A 
ATOM      2  C   UNL     1       2.190   8.017  17.992  0.00  0.00    +0.000 A 
ATOM      3  C   UNL     1       1.580   9.015  18.749  0.00  0.00    +0.000 A 
ATOM      4  C   UNL     1       1.356   8.782  20.099  0.00  0.00    +0.000 A 
ATOM      5  N   UNL     1       0.731   9.751  20.917  0.00  0.00    +0.000 N 
ATOM      6  C   UNL     1       0.219  10.977  20.558  0.00  0.00    +0.000 A 
ATOM      7  C   UNL     1      -0.285  11.525  21.712  0.00  0.00    +0.000 A 
ATOM      8  N   UNL     1      -0.101  10.682  22.773  0.00  0.00    +0.000 NA
ATOM      9  C   UNL     1       0.506   9.627  22.270  0.00  0.00    +0.000 A 
ATOM     10  N   UNL     1       1.725   7.619  20.677  0.00  0.00    +0.000 NA
ATOM     11  N   UNL     1       2.316   6.642  19.925  0.00  0.00    +0.000 NA
ENDROOT
BRANCH   1  16
ATOM     12  N   UNL     1       4.413   5.797  17.256  0.00  0.00    +0.000 N 
ATOM     13  N   UNL     1       4.751   4.642  16.641  0.00  0.00    +0.000 NA
ATOM     14  C   UNL     1       3.752   3.814  16.932  0.00  0.00    +0.000 A 
ATOM     15  C   UNL     1       2.760   4.433  17.707  0.00  0.00    +0.000 A 
ATOM     16  C   UNL     1       3.191   5.737  17.899  0.00  0.00    +0.000 A 
BRANCH  12  17
ATOM     17  C   UNL     1       5.334   6.918  17.150  0.00  0.00    +0.000 C 
BRANCH  17  19
ATOM     18  C   UNL     1       7.690   7.677  17.609  0.00  0.00    +0.000 C 
ATOM     19  C   UNL     1       6.781   6.484  17.374  0.00  0.00    +0.000 C 
ENDBRANCH  17  19
ENDBRANCH  12  17
ENDBRANCH   1  16
TORSDOF 3
ENDMDL
MODEL 7
REMARK VINA RESULT:      -6.8      3.932      4.192
REMARK  Name = 
REMARK  4 active torsions:
REMARK  status: ('A' for Active; 'I' for Inactive)
REMARK    1  A    between atoms: C_1  and  C_2
REMARK    2  A    between atoms: C_2  and  C_3
REMARK    3  A    between atoms: C_3  and  N_4
REMARK    4  A    between atoms: C_8  and  C_9
REMARK                            x       y       z     vdW  Elec       q    Type
REMARK                         _______ _______ _______ _____ _____    ______ ____
ROOT
ATOM      1  C   UNL     1       4.138   6.465  17.739  0.00  0.00    +0.000 A 
ATOM      2  C   UNL     1       3.715   5.848  18.903  0.00  0.00    +0.000 A 
ATOM      3  C   UNL     1       2.757   6.483  19.691  0.00  0.00    +0.000 A 
ATOM      4  C   UNL     1       2.265   7.713  19.277  0.00  0.00    +0.000 A 
ATOM      5  N   UNL     1       1.300   8.412  20.039  0.00  0.00    +0.000 N 
ATOM      6  C   UNL     1       0.752   8.069  21.254  0.00  0.00    +0.000 A 
ATOM      7  C   UNL     1      -0.123   9.079  21.570  0.00  0.00    +0.000 A 
ATOM      8  N   UNL     1      -0.137  10.035  20.590  0.00  0.00    +0.000 NA
ATOM      9  C   UNL     1       0.725   9.614  19.689  0.00  0.00    +0.000 A 
ATOM     10  N   UNL     1       2.694   8.288  18.133  0.00  0.00    +0.000 NA
ATOM     11  N   UNL     1       3.641   7.661  17.370  0.00  0.00    +0.000 NA
ENDROOT
BRANCH   1  16
ATOM     12  N   UNL     1       6.456   6.277  16.756  0.00  0.00    +0.000 N 
ATOM     13  N   UNL     1       7.156   5.583  15.831  0.00  0.00    +0.000 NA
ATOM     14  C   UNL     1       6.285   4.694  15.364  0.00  0.00    +0.000 A 
ATOM     15  C   UNL     1       5.022   4.826  15.961  0.00  0.00    +0.000 A 
ATOM     16  C   UNL     1       5.138   5.877  16.857  0.00  0.00    +0.000 A 
BRANCH  12  17
ATOM     17  C   UNL     1       7.150   7.328  17.485  0.00  0.00    +0.000 C 
BRANCH  17  19
ATOM     18  C   UNL     1       7.422   5.723  19.405  0.00  0.00    +0.000 C 
ATOM     19  C   UNL     1       8.107   6.756  18.527  0.00  0.00    +0.000 C 
ENDBRANCH  17  19
ENDBRANCH  12  17
ENDBRANCH   1  16
TORSDOF 3
ENDMDL
MODEL 8
REMARK VINA RESULT:      -6.8      5.318      6.580
REMARK  Name = 
REMARK  4 active torsions:
REMARK  status: ('A' for Active; 'I' for Inactive)
REMARK    1  A    between atoms: C_1  and  C_2
REMARK    2  A    between atoms: C_2  and  C_3
REMARK    3  A    between atoms: C_3  and  N_4
REMARK    4  A    between atoms: C_8  and  C_9
REMARK                            x       y       z     vdW  Elec       q    Type
REMARK                         _______ _______ _______ _____ _____    ______ ____
ROOT
ATOM      1  C   UNL     1       2.600   7.027  18.707  0.00  0.00    +0.000 A 
ATOM      2  C   UNL     1       2.231   7.012  20.041  0.00  0.00    +0.000 A 
ATOM      3  C   UNL     1       1.516   8.093  20.554  0.00  0.00    +0.000 A 
ATOM      4  C   UNL     1       1.204   9.146  19.705  0.00  0.00    +0.000 A 
ATOM      5  N   UNL     1       0.491  10.276  20.169  0.00  0.00    +0.000 N 
ATOM      6  C   UNL     1       0.055  10.552  21.445  0.00  0.00    +0.000 A 
ATOM      7  C   UNL     1      -0.573  11.771  21.371  0.00  0.00    +0.000 A 
ATOM      8  N   UNL     1      -0.544  12.257  20.092  0.00  0.00    +0.000 NA
ATOM      9  C   UNL     1       0.101  11.346  19.395  0.00  0.00    +0.000 A 
ATOM     10  N   UNL     1       1.575   9.130  18.407  0.00  0.00    +0.000 NA
ATOM     11  N   UNL     1       2.284   8.069  17.914  0.00  0.00    +0.000 NA
ENDROOT
BRANCH   1  16
ATOM     12  N   UNL     1       2.827   4.734  17.675  0.00  0.00    +0.000 N 
ATOM     13  N   UNL     1       3.756   3.894  17.166  0.00  0.00    +0.000 NA
ATOM     14  C   UNL     1       4.886   4.593  17.213  0.00  0.00    +0.000 A 
ATOM     15  C   UNL     1       4.699   5.866  17.772  0.00  0.00    +0.000 A 
ATOM     16  C   UNL     1       3.352   5.944  18.088  0.00  0.00    +0.000 A 
BRANCH  12  17
ATOM     17  C   UNL     1       1.450   4.268  17.736  0.00  0.00    +0.000 C 
BRANCH  17  19
ATOM     18  C   UNL     1       1.016   3.541  20.107  0.00  0.00    +0.000 C 
ATOM     19  C   UNL     1       1.296   3.083  18.686  0.00  0.00    +0.000 C 
ENDBRANCH  17  19
ENDBRANCH  12  17
ENDBRANCH   1  16
TORSDOF 3
ENDMDL
MODEL 9
REMARK VINA RESULT:      -6.6      4.574      5.592
REMARK  Name = 
REMARK  4 active torsions:
REMARK  status: ('A' for Active; 'I' for Inactive)
REMARK    1  A    between atoms: C_1  and  C_2
REMARK    2  A    between atoms: C_2  and  C_3
REMARK    3  A    between atoms: C_3  and  N_4
REMARK    4  A    between atoms: C_8  and  C_9
REMARK                            x       y       z     vdW  Elec       q    Type
REMARK                         _______ _______ _______ _____ _____    ______ ____
ROOT
ATOM      1  C   UNL     1       2.357   5.863  19.125  0.00  0.00    +0.000 A 
ATOM      2  C   UNL     1       2.431   6.977  18.308  0.00  0.00    +0.000 A 
ATOM      3  C   UNL     1       2.008   8.208  18.807  0.00  0.00    +0.000 A 
ATOM      4  C   UNL     1       1.525   8.267  20.107  0.00  0.00    +0.000 A 
ATOM      5  N   UNL     1       1.071   9.483  20.667  0.00  0.00    +0.000 N 
ATOM      6  C   UNL     1       0.975  10.720  20.071  0.00  0.00    +0.000 A 
ATOM      7  C   UNL     1       0.469  11.561  21.032  0.00  0.00    +0.000 A 
ATOM      8  N   UNL     1       0.252  10.888  22.203  0.00  0.00    +0.000 NA
ATOM      9  C   UNL     1       0.616   9.647  21.957  0.00  0.00    +0.000 A 
ATOM     10  N   UNL     1       1.470   7.163  20.882  0.00  0.00    +0.000 NA
ATOM     11  N   UNL     1       1.879   5.958  20.381  0.00  0.00    +0.000 NA
ENDROOT
BRANCH   1  16
ATOM     12  N   UNL     1       4.072   4.068  18.663  0.00  0.00    +0.000 N 
ATOM     13  N   UNL     1       4.178   2.813  18.173  0.00  0.00    +0.000 NA
ATOM     14  C   UNL     1       2.923   2.456  17.919  0.00  0.00    +0.000 A 
ATOM     15  C   UNL     1       2.011   3.480  18.216  0.00  0.00    +0.000 A 
ATOM     16  C   UNL     1       2.773   4.538  18.686  0.00  0.00    +0.000 A 
BRANCH  12  17
ATOM     17  C   UNL     1       5.294   4.744  19.072  0.00  0.00    +0.000 C 
BRANCH  17  19
ATOM     18  C   UNL     1       7.521   4.906  17.909  0.00  0.00    +0.000 C 
ATOM     19  C   UNL     1       6.056   5.307  17.876  0.00  0.00    +0.000 C 
ENDBRANCH  17  19
ENDBRANCH  12  17
ENDBRANCH   1  16
TORSDOF 3
ENDMDL
