MODEL 1
REMARK VINA RESULT:      -9.2      0.000      0.000
REMARK  Name = 
REMARK  12 active torsions:
REMARK  status: ('A' for Active; 'I' for Inactive)
REMARK    1  A    between atoms: C_1  and  C_2
REMARK    2  A    between atoms: C_2  and  C_3
REMARK    3  A    between atoms: C_2  and  C_4
REMARK    4  A    between atoms: C_4  and  C_5
REMARK    5  A    between atoms: C_5  and  C_6
REMARK    6  A    between atoms: C_5  and  N_20
REMARK    7  A    between atoms: C_9  and  C_10
REMARK    8  A    between atoms: N_12  and  C_13
REMARK    9  A    between atoms: C_13  and  C_14
REMARK   10  A    between atoms: C_14  and  C_15
REMARK   11  A    between atoms: C_15  and  O_17
REMARK   12  A    between atoms: C_25  and  C_26
REMARK                            x       y       z     vdW  Elec       q    Type
REMARK                         _______ _______ _______ _____ _____    ______ ____
ROOT
ATOM      1  C   UNL     1       4.289   3.978  19.700  0.00  0.00    +0.000 C 
ENDROOT
BRANCH   1   2
ATOM      2  N   UNL     1       3.368   5.184  19.799  0.00  0.00    +0.000 N 
ATOM      3  N   UNL     1       2.578   5.120  20.913  0.00  0.00    +0.000 NA
ATOM      4  C   UNL     1       1.840   6.210  20.895  0.00  0.00    +0.000 A 
ATOM      5  C   UNL     1       2.141   7.057  19.837  0.00  0.00    +0.000 A 
ATOM      6  C   UNL     1       1.614   8.324  19.500  0.00  0.00    +0.000 A 
ATOM      7  C   UNL     1       1.924   9.072  18.362  0.00  0.00    +0.000 A 
ATOM      8  C   UNL     1       2.774   8.378  17.482  0.00  0.00    +0.000 A 
ATOM      9  C   UNL     1       3.373   7.047  17.797  0.00  0.00    +0.000 A 
ATOM     10  C   UNL     1       3.077   6.378  19.040  0.00  0.00    +0.000 A 
BRANCH   7  11
ATOM     11  C   UNL     1       1.259  10.447  18.298  0.00  0.00    +0.000 A 
ATOM     12  C   UNL     1       2.103  11.590  18.183  0.00  0.00    +0.000 A 
ATOM     13  C   UNL     1       1.693  12.905  18.486  0.00  0.00    +0.000 A 
ATOM     14  C   UNL     1       0.379  13.145  18.845  0.00  0.00    +0.000 A 
ATOM     15  C   UNL     1      -0.517  12.072  18.845  0.00  0.00    +0.000 A 
ATOM     16  C   UNL     1      -0.087  10.738  18.571  0.00  0.00    +0.000 A 
ENDBRANCH   7  11
ENDBRANCH   1   2
BRANCH   1  17
ATOM     17  C   UNL     1       5.054   4.000  18.380  0.00  0.00    +0.000 A 
ATOM     18  C   UNL     1       6.327   4.605  18.265  0.00  0.00    +0.000 A 
ATOM     19  C   UNL     1       6.919   4.829  17.015  0.00  0.00    +0.000 A 
ATOM     20  C   UNL     1       6.255   4.418  15.861  0.00  0.00    +0.000 A 
ATOM     21  C   UNL     1       5.023   3.755  15.972  0.00  0.00    +0.000 A 
ATOM     22  C   UNL     1       4.427   3.549  17.216  0.00  0.00    +0.000 A 
BRANCH  20  23
ATOM     23  C   UNL     1       6.797   4.601  14.496  0.00  0.00    +0.000 C 
ATOM     24  O   UNL     1       7.646   5.447  14.264  0.00  0.00    +0.000 OA
ATOM     25  N   UNL     1       6.372   3.738  13.494  0.00  0.00    +0.000 N 
ATOM     26  H   UNL     1       5.858   2.897  13.728  0.00  0.00    +0.000 HD
BRANCH  25  27
ATOM     27  C   UNL     1       6.868   3.865  12.129  0.00  0.00    +0.000 C 
BRANCH  27  28
ATOM     28  C   UNL     1       7.216   2.528  11.478  0.00  0.00    +0.000 C 
BRANCH  28  29
ATOM     29  C   UNL     1       5.995   1.665  11.306  0.00  0.00    +0.000 C 
ATOM     30  O   UNL     1       6.005   0.453  11.147  0.00  0.00    +0.000 OA
BRANCH  29  31
ATOM     31  O   UNL     1       4.841   2.371  11.351  0.00  0.00    +0.000 OA
ATOM     32  H   UNL     1       4.151   2.042  10.743  0.00  0.00    +0.000 HD
ENDBRANCH  29  31
ENDBRANCH  28  29
ENDBRANCH  27  28
ENDBRANCH  25  27
ENDBRANCH  20  23
ENDBRANCH   1  17
BRANCH   1  33
ATOM     33  C   UNL     1       3.499   2.535  19.755  0.00  0.00    +0.000 C 
BRANCH  33  35
ATOM     34  C   UNL     1       1.132   2.574  21.077  0.00  0.00    +0.000 C 
ATOM     35  C   UNL     1       1.923   2.277  19.793  0.00  0.00    +0.000 C 
ATOM     36  C   UNL     1       1.122   2.784  18.592  0.00  0.00    +0.000 C 
ENDBRANCH  33  35
ENDBRANCH   1  33
TORSDOF 10
ENDMDL
MODEL 2
REMARK VINA RESULT:      -8.9      0.729      1.620
REMARK  Name = 
REMARK  12 active torsions:
REMARK  status: ('A' for Active; 'I' for Inactive)
REMARK    1  A    between atoms: C_1  and  C_2
REMARK    2  A    between atoms: C_2  and  C_3
REMARK    3  A    between atoms: C_2  and  C_4
REMARK    4  A    between atoms: C_4  and  C_5
REMARK    5  A    between atoms: C_5  and  C_6
REMARK    6  A    between atoms: C_5  and  N_20
REMARK    7  A    between atoms: C_9  and  C_10
REMARK    8  A    between atoms: N_12  and  C_13
REMARK    9  A    between atoms: C_13  and  C_14
REMARK   10  A    between atoms: C_14  and  C_15
REMARK   11  A    between atoms: C_15  and  O_17
REMARK   12  A    between atoms: C_25  and  C_26
REMARK                            x       y       z     vdW  Elec       q    Type
REMARK                         _______ _______ _______ _____ _____    ______ ____
ROOT
ATOM      1  C   UNL     1       3.948   4.736  19.481  0.00  0.00    +0.000 C 
ENDROOT
BRANCH   1   2
ATOM      2  N   UNL     1       3.018   5.908  19.759  0.00  0.00    +0.000 N 
ATOM      3  N   UNL     1       2.331   5.734  20.929  0.00  0.00    +0.000 NA
ATOM      4  C   UNL     1       1.575   6.803  21.065  0.00  0.00    +0.000 A 
ATOM      5  C   UNL     1       1.765   7.740  20.059  0.00  0.00    +0.000 A 
ATOM      6  C   UNL     1       1.189   9.017  19.876  0.00  0.00    +0.000 A 
ATOM      7  C   UNL     1       1.384   9.862  18.781  0.00  0.00    +0.000 A 
ATOM      8  C   UNL     1       2.164   9.264  17.776  0.00  0.00    +0.000 A 
ATOM      9  C   UNL     1       2.813   7.926  17.926  0.00  0.00    +0.000 A 
ATOM     10  C   UNL     1       2.640   7.152  19.130  0.00  0.00    +0.000 A 
BRANCH   7  11
ATOM     11  C   UNL     1       0.691  11.220  18.890  0.00  0.00    +0.000 A 
ATOM     12  C   UNL     1      -0.688  11.295  18.529  0.00  0.00    +0.000 A 
ATOM     13  C   UNL     1      -1.355  12.497  18.217  0.00  0.00    +0.000 A 
ATOM     14  C   UNL     1      -0.683  13.701  18.331  0.00  0.00    +0.000 A 
ATOM     15  C   UNL     1       0.631  13.686  18.807  0.00  0.00    +0.000 A 
ATOM     16  C   UNL     1       1.312  12.463  19.088  0.00  0.00    +0.000 A 
ENDBRANCH   7  11
ENDBRANCH   1   2
BRANCH   1  17
ATOM     17  C   UNL     1       4.572   4.872  18.095  0.00  0.00    +0.000 A 
ATOM     18  C   UNL     1       4.020   4.228  16.963  0.00  0.00    +0.000 A 
ATOM     19  C   UNL     1       4.717   4.163  15.749  0.00  0.00    +0.000 A 
ATOM     20  C   UNL     1       5.965   4.772  15.644  0.00  0.00    +0.000 A 
ATOM     21  C   UNL     1       6.487   5.471  16.743  0.00  0.00    +0.000 A 
ATOM     22  C   UNL     1       5.800   5.520  17.956  0.00  0.00    +0.000 A 
BRANCH  20  23
ATOM     23  C   UNL     1       6.777   4.766  14.406  0.00  0.00    +0.000 C 
ATOM     24  O   UNL     1       7.833   5.373  14.342  0.00  0.00    +0.000 OA
ATOM     25  N   UNL     1       6.345   3.990  13.337  0.00  0.00    +0.000 N 
ATOM     26  H   UNL     1       5.608   3.308  13.465  0.00  0.00    +0.000 HD
BRANCH  25  27
ATOM     27  C   UNL     1       7.099   3.940  12.090  0.00  0.00    +0.000 C 
BRANCH  27  28
ATOM     28  C   UNL     1       7.221   2.534  11.505  0.00  0.00    +0.000 C 
BRANCH  28  29
ATOM     29  C   UNL     1       5.881   1.853  11.424  0.00  0.00    +0.000 C 
ATOM     30  O   UNL     1       4.803   2.424  11.348  0.00  0.00    +0.000 OA
BRANCH  29  31
ATOM     31  O   UNL     1       5.977   0.503  11.436  0.00  0.00    +0.000 OA
ATOM     32  H   UNL     1       5.158   0.051  11.718  0.00  0.00    +0.000 HD
ENDBRANCH  29  31
ENDBRANCH  28  29
ENDBRANCH  27  28
ENDBRANCH  25  27
ENDBRANCH  20  23
ENDBRANCH   1  17
BRANCH   1  33
ATOM     33  C   UNL     1       3.197   3.272  19.512  0.00  0.00    +0.000 C 
BRANCH  33  35
ATOM     34  C   UNL     1       0.820   2.156  18.836  0.00  0.00    +0.000 C 
ATOM     35  C   UNL     1       1.665   2.959  19.839  0.00  0.00    +0.000 C 
ATOM     36  C   UNL     1       1.359   2.459  21.252  0.00  0.00    +0.000 C 
ENDBRANCH  33  35
ENDBRANCH   1  33
TORSDOF 10
ENDMDL
MODEL 3
REMARK VINA RESULT:      -8.9      1.515      2.449
REMARK  Name = 
REMARK  12 active torsions:
REMARK  status: ('A' for Active; 'I' for Inactive)
REMARK    1  A    between atoms: C_1  and  C_2
REMARK    2  A    between atoms: C_2  and  C_3
REMARK    3  A    between atoms: C_2  and  C_4
REMARK    4  A    between atoms: C_4  and  C_5
REMARK    5  A    between atoms: C_5  and  C_6
REMARK    6  A    between atoms: C_5  and  N_20
REMARK    7  A    between atoms: C_9  and  C_10
REMARK    8  A    between atoms: N_12  and  C_13
REMARK    9  A    between atoms: C_13  and  C_14
REMARK   10  A    between atoms: C_14  and  C_15
REMARK   11  A    between atoms: C_15  and  O_17
REMARK   12  A    between atoms: C_25  and  C_26
REMARK                            x       y       z     vdW  Elec       q    Type
REMARK                         _______ _______ _______ _____ _____    ______ ____
ROOT
ATOM      1  C   UNL     1       2.260   5.753  20.393  0.00  0.00    +0.000 C 
ENDROOT
BRANCH   1   2
ATOM      2  N   UNL     1       1.706   7.170  20.407  0.00  0.00    +0.000 N 
ATOM      3  N   UNL     1       0.959   7.404  21.529  0.00  0.00    +0.000 NA
ATOM      4  C   UNL     1       0.547   8.650  21.434  0.00  0.00    +0.000 A 
ATOM      5  C   UNL     1       1.037   9.305  20.312  0.00  0.00    +0.000 A 
ATOM      6  C   UNL     1       0.866  10.641  19.884  0.00  0.00    +0.000 A 
ATOM      7  C   UNL     1       1.336  11.192  18.689  0.00  0.00    +0.000 A 
ATOM      8  C   UNL     1       1.939  10.232  17.858  0.00  0.00    +0.000 A 
ATOM      9  C   UNL     1       2.162   8.812  18.269  0.00  0.00    +0.000 A 
ATOM     10  C   UNL     1       1.730   8.341  19.561  0.00  0.00    +0.000 A 
BRANCH   7  11
ATOM     11  C   UNL     1       1.069  12.688  18.527  0.00  0.00    +0.000 A 
ATOM     12  C   UNL     1       2.194  13.555  18.397  0.00  0.00    +0.000 A 
ATOM     13  C   UNL     1       2.145  14.947  18.616  0.00  0.00    +0.000 A 
ATOM     14  C   UNL     1       0.932  15.551  18.898  0.00  0.00    +0.000 A 
ATOM     15  C   UNL     1      -0.219  14.759  18.906  0.00  0.00    +0.000 A 
ATOM     16  C   UNL     1      -0.157  13.345  18.719  0.00  0.00    +0.000 A 
ENDBRANCH   7  11
ENDBRANCH   1   2
BRANCH   1  17
ATOM     17  C   UNL     1       3.163   5.548  19.180  0.00  0.00    +0.000 A 
ATOM     18  C   UNL     1       2.657   5.081  17.944  0.00  0.00    +0.000 A 
ATOM     19  C   UNL     1       3.513   4.676  16.912  0.00  0.00    +0.000 A 
ATOM     20  C   UNL     1       4.892   4.764  17.094  0.00  0.00    +0.000 A 
ATOM     21  C   UNL     1       5.399   5.290  18.291  0.00  0.00    +0.000 A 
ATOM     22  C   UNL     1       4.545   5.677  19.325  0.00  0.00    +0.000 A 
BRANCH  20  23
ATOM     23  C   UNL     1       5.880   4.368  16.064  0.00  0.00    +0.000 C 
ATOM     24  O   UNL     1       7.043   4.146  16.360  0.00  0.00    +0.000 OA
ATOM     25  N   UNL     1       5.436   4.181  14.761  0.00  0.00    +0.000 N 
ATOM     26  H   UNL     1       4.445   4.132  14.560  0.00  0.00    +0.000 HD
BRANCH  25  27
ATOM     27  C   UNL     1       6.358   3.791  13.701  0.00  0.00    +0.000 C 
BRANCH  27  28
ATOM     28  C   UNL     1       5.675   3.542  12.357  0.00  0.00    +0.000 C 
BRANCH  28  29
ATOM     29  C   UNL     1       6.203   2.299  11.693  0.00  0.00    +0.000 C 
ATOM     30  O   UNL     1       5.522   1.353  11.323  0.00  0.00    +0.000 OA
BRANCH  29  31
ATOM     31  O   UNL     1       7.546   2.322  11.526  0.00  0.00    +0.000 OA
ATOM     32  H   UNL     1       8.028   2.759  12.254  0.00  0.00    +0.000 HD
ENDBRANCH  29  31
ENDBRANCH  28  29
ENDBRANCH  27  28
ENDBRANCH  25  27
ENDBRANCH  20  23
ENDBRANCH   1  17
BRANCH   1  33
ATOM     33  C   UNL     1       1.099   4.589  20.311  0.00  0.00    +0.000 C 
BRANCH  33  35
ATOM     34  C   UNL     1       1.397   2.054  19.396  0.00  0.00    +0.000 C 
ATOM     35  C   UNL     1       1.255   3.022  20.582  0.00  0.00    +0.000 C 
ATOM     36  C   UNL     1       2.250   2.617  21.671  0.00  0.00    +0.000 C 
ENDBRANCH  33  35
ENDBRANCH   1  33
TORSDOF 10
ENDMDL
MODEL 4
REMARK VINA RESULT:      -8.8      1.444      2.175
REMARK  Name = 
REMARK  12 active torsions:
REMARK  status: ('A' for Active; 'I' for Inactive)
REMARK    1  A    between atoms: C_1  and  C_2
REMARK    2  A    between atoms: C_2  and  C_3
REMARK    3  A    between atoms: C_2  and  C_4
REMARK    4  A    between atoms: C_4  and  C_5
REMARK    5  A    between atoms: C_5  and  C_6
REMARK    6  A    between atoms: C_5  and  N_20
REMARK    7  A    between atoms: C_9  and  C_10
REMARK    8  A    between atoms: N_12  and  C_13
REMARK    9  A    between atoms: C_13  and  C_14
REMARK   10  A    between atoms: C_14  and  C_15
REMARK   11  A    between atoms: C_15  and  O_17
REMARK   12  A    between atoms: C_25  and  C_26
REMARK                            x       y       z     vdW  Elec       q    Type
REMARK                         _______ _______ _______ _____ _____    ______ ____
ROOT
ATOM      1  C   UNL     1       2.338   5.484  20.276  0.00  0.00    +0.000 C 
ENDROOT
BRANCH   1   2
ATOM      2  N   UNL     1       1.825   6.916  20.297  0.00  0.00    +0.000 N 
ATOM      3  N   UNL     1       1.098   7.171  21.427  0.00  0.00    +0.000 NA
ATOM      4  C   UNL     1       0.721   8.428  21.336  0.00  0.00    +0.000 A 
ATOM      5  C   UNL     1       1.216   9.069  20.209  0.00  0.00    +0.000 A 
ATOM      6  C   UNL     1       1.080  10.410  19.783  0.00  0.00    +0.000 A 
ATOM      7  C   UNL     1       1.552  10.947  18.584  0.00  0.00    +0.000 A 
ATOM      8  C   UNL     1       2.118   9.971  17.746  0.00  0.00    +0.000 A 
ATOM      9  C   UNL     1       2.304   8.546  18.155  0.00  0.00    +0.000 A 
ATOM     10  C   UNL     1       1.873   8.086  19.451  0.00  0.00    +0.000 A 
BRANCH   7  11
ATOM     11  C   UNL     1       1.326  12.451  18.425  0.00  0.00    +0.000 A 
ATOM     12  C   UNL     1       2.468  13.275  18.197  0.00  0.00    +0.000 A 
ATOM     13  C   UNL     1       2.485  14.670  18.401  0.00  0.00    +0.000 A 
ATOM     14  C   UNL     1       1.320  15.320  18.771  0.00  0.00    +0.000 A 
ATOM     15  C   UNL     1       0.145  14.571  18.878  0.00  0.00    +0.000 A 
ATOM     16  C   UNL     1       0.143  13.154  18.704  0.00  0.00    +0.000 A 
ENDBRANCH   7  11
ENDBRANCH   1   2
BRANCH   1  17
ATOM     17  C   UNL     1       3.398   5.315  19.192  0.00  0.00    +0.000 A 
ATOM     18  C   UNL     1       4.756   5.642  19.419  0.00  0.00    +0.000 A 
ATOM     19  C   UNL     1       5.676   5.707  18.365  0.00  0.00    +0.000 A 
ATOM     20  C   UNL     1       5.254   5.412  17.070  0.00  0.00    +0.000 A 
ATOM     21  C   UNL     1       3.926   5.021  16.848  0.00  0.00    +0.000 A 
ATOM     22  C   UNL     1       3.006   4.973  17.896  0.00  0.00    +0.000 A 
BRANCH  20  23
ATOM     23  C   UNL     1       6.149   5.446  15.891  0.00  0.00    +0.000 C 
ATOM     24  O   UNL     1       7.271   5.919  15.965  0.00  0.00    +0.000 OA
ATOM     25  N   UNL     1       5.709   4.858  14.711  0.00  0.00    +0.000 N 
ATOM     26  H   UNL     1       4.890   4.263  14.711  0.00  0.00    +0.000 HD
BRANCH  25  27
ATOM     27  C   UNL     1       6.542   4.857  13.514  0.00  0.00    +0.000 C 
BRANCH  27  28
ATOM     28  C   UNL     1       6.781   3.463  12.937  0.00  0.00    +0.000 C 
BRANCH  28  29
ATOM     29  C   UNL     1       5.598   2.989  12.136  0.00  0.00    +0.000 C 
ATOM     30  O   UNL     1       4.566   3.620  11.960  0.00  0.00    +0.000 OA
BRANCH  29  31
ATOM     31  O   UNL     1       5.784   1.760  11.599  0.00  0.00    +0.000 OA
ATOM     32  H   UNL     1       5.998   1.070  12.256  0.00  0.00    +0.000 HD
ENDBRANCH  29  31
ENDBRANCH  28  29
ENDBRANCH  27  28
ENDBRANCH  25  27
ENDBRANCH  20  23
ENDBRANCH   1  17
BRANCH   1  33
ATOM     33  C   UNL     1       1.170   4.366  19.963  0.00  0.00    +0.000 C 
BRANCH  33  35
ATOM     34  C   UNL     1       1.726   1.808  19.258  0.00  0.00    +0.000 C 
ATOM     35  C   UNL     1       1.188   2.804  20.298  0.00  0.00    +0.000 C 
ATOM     36  C   UNL     1       1.717   2.411  21.679  0.00  0.00    +0.000 C 
ENDBRANCH  33  35
ENDBRANCH   1  33
TORSDOF 10
ENDMDL
MODEL 5
REMARK VINA RESULT:      -8.7      2.134      3.136
REMARK  Name = 
REMARK  12 active torsions:
REMARK  status: ('A' for Active; 'I' for Inactive)
REMARK    1  A    between atoms: C_1  and  C_2
REMARK    2  A    between atoms: C_2  and  C_3
REMARK    3  A    between atoms: C_2  and  C_4
REMARK    4  A    between atoms: C_4  and  C_5
REMARK    5  A    between atoms: C_5  and  C_6
REMARK    6  A    between atoms: C_5  and  N_20
REMARK    7  A    between atoms: C_9  and  C_10
REMARK    8  A    between atoms: N_12  and  C_13
REMARK    9  A    between atoms: C_13  and  C_14
REMARK   10  A    between atoms: C_14  and  C_15
REMARK   11  A    between atoms: C_15  and  O_17
REMARK   12  A    between atoms: C_25  and  C_26
REMARK                            x       y       z     vdW  Elec       q    Type
REMARK                         _______ _______ _______ _____ _____    ______ ____
ROOT
ATOM      1  C   UNL     1       2.904   6.019  19.444  0.00  0.00    +0.000 C 
ENDROOT
BRANCH   1   2
ATOM      2  N   UNL     1       2.196   7.365  19.403  0.00  0.00    +0.000 N 
ATOM      3  N   UNL     1       2.191   7.889  18.139  0.00  0.00    +0.000 NA
ATOM      4  C   UNL     1       1.550   9.035  18.227  0.00  0.00    +0.000 A 
ATOM      5  C   UNL     1       1.057   9.291  19.499  0.00  0.00    +0.000 A 
ATOM      6  C   UNL     1       0.287  10.372  19.983  0.00  0.00    +0.000 A 
ATOM      7  C   UNL     1      -0.098  10.585  21.309  0.00  0.00    +0.000 A 
ATOM      8  C   UNL     1       0.457   9.636  22.185  0.00  0.00    +0.000 A 
ATOM      9  C   UNL     1       1.260   8.463  21.725  0.00  0.00    +0.000 A 
ATOM     10  C   UNL     1       1.538   8.261  20.325  0.00  0.00    +0.000 A 
BRANCH   7  11
ATOM     11  C   UNL     1      -0.996  11.802  21.527  0.00  0.00    +0.000 A 
ATOM     12  C   UNL     1      -1.317  12.161  22.870  0.00  0.00    +0.000 A 
ATOM     13  C   UNL     1      -2.400  12.991  23.225  0.00  0.00    +0.000 A 
ATOM     14  C   UNL     1      -3.170  13.571  22.233  0.00  0.00    +0.000 A 
ATOM     15  C   UNL     1      -2.811  13.353  20.899  0.00  0.00    +0.000 A 
ATOM     16  C   UNL     1      -1.736  12.483  20.547  0.00  0.00    +0.000 A 
ENDBRANCH   7  11
ENDBRANCH   1   2
BRANCH   1  17
ATOM     17  C   UNL     1       3.732   5.815  18.178  0.00  0.00    +0.000 A 
ATOM     18  C   UNL     1       3.591   4.661  17.373  0.00  0.00    +0.000 A 
ATOM     19  C   UNL     1       4.504   4.368  16.352  0.00  0.00    +0.000 A 
ATOM     20  C   UNL     1       5.555   5.248  16.102  0.00  0.00    +0.000 A 
ATOM     21  C   UNL     1       5.661   6.429  16.852  0.00  0.00    +0.000 A 
ATOM     22  C   UNL     1       4.761   6.711  17.880  0.00  0.00    +0.000 A 
BRANCH  20  23
ATOM     23  C   UNL     1       6.568   5.033  15.044  0.00  0.00    +0.000 C 
ATOM     24  O   UNL     1       7.666   5.560  15.107  0.00  0.00    +0.000 OA
ATOM     25  N   UNL     1       6.266   4.155  14.010  0.00  0.00    +0.000 N 
ATOM     26  H   UNL     1       5.464   3.542  14.077  0.00  0.00    +0.000 HD
BRANCH  25  27
ATOM     27  C   UNL     1       7.220   3.899  12.937  0.00  0.00    +0.000 C 
BRANCH  27  28
ATOM     28  C   UNL     1       6.569   3.733  11.566  0.00  0.00    +0.000 C 
BRANCH  28  29
ATOM     29  C   UNL     1       5.408   2.776  11.619  0.00  0.00    +0.000 C 
ATOM     30  O   UNL     1       4.229   3.098  11.651  0.00  0.00    +0.000 OA
BRANCH  29  31
ATOM     31  O   UNL     1       5.795   1.479  11.621  0.00  0.00    +0.000 OA
ATOM     32  H   UNL     1       6.440   1.258  10.922  0.00  0.00    +0.000 HD
ENDBRANCH  29  31
ENDBRANCH  28  29
ENDBRANCH  27  28
ENDBRANCH  25  27
ENDBRANCH  20  23
ENDBRANCH   1  17
BRANCH   1  33
ATOM     33  C   UNL     1       1.879   4.735  19.543  0.00  0.00    +0.000 C 
BRANCH  33  35
ATOM     34  C   UNL     1       1.811   3.076  21.686  0.00  0.00    +0.000 C 
ATOM     35  C   UNL     1       2.152   3.307  20.205  0.00  0.00    +0.000 C 
ATOM     36  C   UNL     1       1.701   2.087  19.399  0.00  0.00    +0.000 C 
ENDBRANCH  33  35
ENDBRANCH   1  33
TORSDOF 10
ENDMDL
MODEL 6
REMARK VINA RESULT:      -8.6      1.798      2.773
REMARK  Name = 
REMARK  12 active torsions:
REMARK  status: ('A' for Active; 'I' for Inactive)
REMARK    1  A    between atoms: C_1  and  C_2
REMARK    2  A    between atoms: C_2  and  C_3
REMARK    3  A    between atoms: C_2  and  C_4
REMARK    4  A    between atoms: C_4  and  C_5
REMARK    5  A    between atoms: C_5  and  C_6
REMARK    6  A    between atoms: C_5  and  N_20
REMARK    7  A    between atoms: C_9  and  C_10
REMARK    8  A    between atoms: N_12  and  C_13
REMARK    9  A    between atoms: C_13  and  C_14
REMARK   10  A    between atoms: C_14  and  C_15
REMARK   11  A    between atoms: C_15  and  O_17
REMARK   12  A    between atoms: C_25  and  C_26
REMARK                            x       y       z     vdW  Elec       q    Type
REMARK                         _______ _______ _______ _____ _____    ______ ____
ROOT
ATOM      1  C   UNL     1       2.802   5.742  19.365  0.00  0.00    +0.000 C 
ENDROOT
BRANCH   1   2
ATOM      2  N   UNL     1       2.275   7.162  19.223  0.00  0.00    +0.000 N 
ATOM      3  N   UNL     1       2.383   7.610  17.935  0.00  0.00    +0.000 NA
ATOM      4  C   UNL     1       1.892   8.831  17.936  0.00  0.00    +0.000 A 
ATOM      5  C   UNL     1       1.389   9.219  19.170  0.00  0.00    +0.000 A 
ATOM      6  C   UNL     1       0.747  10.414  19.563  0.00  0.00    +0.000 A 
ATOM      7  C   UNL     1       0.343  10.749  20.858  0.00  0.00    +0.000 A 
ATOM      8  C   UNL     1       0.738   9.788  21.805  0.00  0.00    +0.000 A 
ATOM      9  C   UNL     1       1.401   8.500  21.442  0.00  0.00    +0.000 A 
ATOM     10  C   UNL     1       1.702   8.185  20.068  0.00  0.00    +0.000 A 
BRANCH   7  11
ATOM     11  C   UNL     1      -0.399  12.080  20.972  0.00  0.00    +0.000 A 
ATOM     12  C   UNL     1      -1.618  12.101  21.713  0.00  0.00    +0.000 A 
ATOM     13  C   UNL     1      -2.589  13.117  21.602  0.00  0.00    +0.000 A 
ATOM     14  C   UNL     1      -2.342  14.212  20.793  0.00  0.00    +0.000 A 
ATOM     15  C   UNL     1      -1.105  14.297  20.148  0.00  0.00    +0.000 A 
ATOM     16  C   UNL     1      -0.140  13.248  20.237  0.00  0.00    +0.000 A 
ENDBRANCH   7  11
ENDBRANCH   1   2
BRANCH   1  17
ATOM     17  C   UNL     1       3.824   5.443  18.273  0.00  0.00    +0.000 A 
ATOM     18  C   UNL     1       4.809   6.386  17.895  0.00  0.00    +0.000 A 
ATOM     19  C   UNL     1       5.589   6.204  16.746  0.00  0.00    +0.000 A 
ATOM     20  C   UNL     1       5.415   5.055  15.976  0.00  0.00    +0.000 A 
ATOM     21  C   UNL     1       4.488   4.084  16.384  0.00  0.00    +0.000 A 
ATOM     22  C   UNL     1       3.700   4.275  17.518  0.00  0.00    +0.000 A 
BRANCH  20  23
ATOM     23  C   UNL     1       6.194   4.767  14.750  0.00  0.00    +0.000 C 
ATOM     24  O   UNL     1       7.323   5.204  14.604  0.00  0.00    +0.000 OA
ATOM     25  N   UNL     1       5.636   3.923  13.797  0.00  0.00    +0.000 N 
ATOM     26  H   UNL     1       4.813   3.376  14.017  0.00  0.00    +0.000 HD
BRANCH  25  27
ATOM     27  C   UNL     1       6.351   3.599  12.568  0.00  0.00    +0.000 C 
BRANCH  27  28
ATOM     28  C   UNL     1       5.585   2.652  11.647  0.00  0.00    +0.000 C 
BRANCH  28  29
ATOM     29  C   UNL     1       6.401   1.433  11.307  0.00  0.00    +0.000 C 
ATOM     30  O   UNL     1       5.959   0.301  11.178  0.00  0.00    +0.000 OA
BRANCH  29  31
ATOM     31  O   UNL     1       7.716   1.711  11.141  0.00  0.00    +0.000 OA
ATOM     32  H   UNL     1       8.106   2.228  11.871  0.00  0.00    +0.000 HD
ENDBRANCH  29  31
ENDBRANCH  28  29
ENDBRANCH  27  28
ENDBRANCH  25  27
ENDBRANCH  20  23
ENDBRANCH   1  17
BRANCH   1  33
ATOM     33  C   UNL     1       1.636   4.587  19.241  0.00  0.00    +0.000 C 
BRANCH  33  35
ATOM     34  C   UNL     1       1.405   1.918  19.658  0.00  0.00    +0.000 C 
ATOM     35  C   UNL     1       1.367   3.350  20.215  0.00  0.00    +0.000 C 
ATOM     36  C   UNL     1       2.094   3.375  21.561  0.00  0.00    +0.000 C 
ENDBRANCH  33  35
ENDBRANCH   1  33
TORSDOF 10
ENDMDL
MODEL 7
REMARK VINA RESULT:      -8.5      1.141      1.703
REMARK  Name = 
REMARK  12 active torsions:
REMARK  status: ('A' for Active; 'I' for Inactive)
REMARK    1  A    between atoms: C_1  and  C_2
REMARK    2  A    between atoms: C_2  and  C_3
REMARK    3  A    between atoms: C_2  and  C_4
REMARK    4  A    between atoms: C_4  and  C_5
REMARK    5  A    between atoms: C_5  and  C_6
REMARK    6  A    between atoms: C_5  and  N_20
REMARK    7  A    between atoms: C_9  and  C_10
REMARK    8  A    between atoms: N_12  and  C_13
REMARK    9  A    between atoms: C_13  and  C_14
REMARK   10  A    between atoms: C_14  and  C_15
REMARK   11  A    between atoms: C_15  and  O_17
REMARK   12  A    between atoms: C_25  and  C_26
REMARK                            x       y       z     vdW  Elec       q    Type
REMARK                         _______ _______ _______ _____ _____    ______ ____
ROOT
ATOM      1  C   UNL     1       3.761   5.206  19.723  0.00  0.00    +0.000 C 
ENDROOT
BRANCH   1   2
ATOM      2  N   UNL     1       2.794   6.363  19.924  0.00  0.00    +0.000 N 
ATOM      3  N   UNL     1       2.102   6.238  21.098  0.00  0.00    +0.000 NA
ATOM      4  C   UNL     1       1.314   7.290  21.164  0.00  0.00    +0.000 A 
ATOM      5  C   UNL     1       1.484   8.170  20.105  0.00  0.00    +0.000 A 
ATOM      6  C   UNL     1       0.871   9.416  19.841  0.00  0.00    +0.000 A 
ATOM      7  C   UNL     1       1.050  10.199  18.698  0.00  0.00    +0.000 A 
ATOM      8  C   UNL     1       1.856   9.566  17.737  0.00  0.00    +0.000 A 
ATOM      9  C   UNL     1       2.544   8.260  17.972  0.00  0.00    +0.000 A 
ATOM     10  C   UNL     1       2.384   7.554  19.219  0.00  0.00    +0.000 A 
BRANCH   7  11
ATOM     11  C   UNL     1       0.315  11.540  18.721  0.00  0.00    +0.000 A 
ATOM     12  C   UNL     1       1.088  12.718  18.943  0.00  0.00    +0.000 A 
ATOM     13  C   UNL     1       0.542  13.950  19.360  0.00  0.00    +0.000 A 
ATOM     14  C   UNL     1      -0.828  14.078  19.497  0.00  0.00    +0.000 A 
ATOM     15  C   UNL     1      -1.635  12.986  19.164  0.00  0.00    +0.000 A 
ATOM     16  C   UNL     1      -1.075  11.732  18.777  0.00  0.00    +0.000 A 
ENDBRANCH   7  11
ENDBRANCH   1   2
BRANCH   1  17
ATOM     17  C   UNL     1       4.211   5.137  18.267  0.00  0.00    +0.000 A 
ATOM     18  C   UNL     1       3.701   4.167  17.373  0.00  0.00    +0.000 A 
ATOM     19  C   UNL     1       4.280   3.959  16.115  0.00  0.00    +0.000 A 
ATOM     20  C   UNL     1       5.360   4.745  15.721  0.00  0.00    +0.000 A 
ATOM     21  C   UNL     1       5.828   5.755  16.575  0.00  0.00    +0.000 A 
ATOM     22  C   UNL     1       5.262   5.950  17.835  0.00  0.00    +0.000 A 
BRANCH  20  23
ATOM     23  C   UNL     1       6.037   4.608  14.411  0.00  0.00    +0.000 C 
ATOM     24  O   UNL     1       7.083   5.192  14.178  0.00  0.00    +0.000 OA
ATOM     25  N   UNL     1       5.492   3.739  13.474  0.00  0.00    +0.000 N 
ATOM     26  H   UNL     1       4.771   3.082  13.744  0.00  0.00    +0.000 HD
BRANCH  25  27
ATOM     27  C   UNL     1       6.111   3.558  12.166  0.00  0.00    +0.000 C 
BRANCH  27  28
ATOM     28  C   UNL     1       5.555   2.369  11.385  0.00  0.00    +0.000 C 
BRANCH  28  29
ATOM     29  C   UNL     1       6.610   1.322  11.151  0.00  0.00    +0.000 C 
ATOM     30  O   UNL     1       7.764   1.546  10.815  0.00  0.00    +0.000 OA
BRANCH  29  31
ATOM     31  O   UNL     1       6.157   0.063  11.359  0.00  0.00    +0.000 OA
ATOM     32  H   UNL     1       5.779  -0.080  12.248  0.00  0.00    +0.000 HD
ENDBRANCH  29  31
ENDBRANCH  28  29
ENDBRANCH  27  28
ENDBRANCH  25  27
ENDBRANCH  20  23
ENDBRANCH   1  17
BRANCH   1  33
ATOM     33  C   UNL     1       3.116   3.734  20.081  0.00  0.00    +0.000 C 
BRANCH  33  35
ATOM     34  C   UNL     1       0.801   2.646  19.183  0.00  0.00    +0.000 C 
ATOM     35  C   UNL     1       1.579   3.359  20.300  0.00  0.00    +0.000 C 
ATOM     36  C   UNL     1       1.221   2.714  21.640  0.00  0.00    +0.000 C 
ENDBRANCH  33  35
ENDBRANCH   1  33
TORSDOF 10
ENDMDL
MODEL 8
REMARK VINA RESULT:      -8.5      0.875      1.559
REMARK  Name = 
REMARK  12 active torsions:
REMARK  status: ('A' for Active; 'I' for Inactive)
REMARK    1  A    between atoms: C_1  and  C_2
REMARK    2  A    between atoms: C_2  and  C_3
REMARK    3  A    between atoms: C_2  and  C_4
REMARK    4  A    between atoms: C_4  and  C_5
REMARK    5  A    between atoms: C_5  and  C_6
REMARK    6  A    between atoms: C_5  and  N_20
REMARK    7  A    between atoms: C_9  and  C_10
REMARK    8  A    between atoms: N_12  and  C_13
REMARK    9  A    between atoms: C_13  and  C_14
REMARK   10  A    between atoms: C_14  and  C_15
REMARK   11  A    between atoms: C_15  and  O_17
REMARK   12  A    between atoms: C_25  and  C_26
REMARK                            x       y       z     vdW  Elec       q    Type
REMARK                         _______ _______ _______ _____ _____    ______ ____
ROOT
ATOM      1  C   UNL     1       4.612   4.682  19.434  0.00  0.00    +0.000 C 
ENDROOT
BRANCH   1   2
ATOM      2  N   UNL     1       3.487   5.674  19.692  0.00  0.00    +0.000 N 
ATOM      3  N   UNL     1       2.761   5.330  20.798  0.00  0.00    +0.000 NA
ATOM      4  C   UNL     1       1.834   6.257  20.923  0.00  0.00    +0.000 A 
ATOM      5  C   UNL     1       1.936   7.265  19.974  0.00  0.00    +0.000 A 
ATOM      6  C   UNL     1       1.173   8.442  19.802  0.00  0.00    +0.000 A 
ATOM      7  C   UNL     1       1.301   9.364  18.761  0.00  0.00    +0.000 A 
ATOM      8  C   UNL     1       2.234   8.952  17.793  0.00  0.00    +0.000 A 
ATOM      9  C   UNL     1       3.080   7.729  17.935  0.00  0.00    +0.000 A 
ATOM     10  C   UNL     1       2.955   6.874  19.089  0.00  0.00    +0.000 A 
BRANCH   7  11
ATOM     11  C   UNL     1       0.391  10.587  18.875  0.00  0.00    +0.000 A 
ATOM     12  C   UNL     1      -0.994  10.416  18.577  0.00  0.00    +0.000 A 
ATOM     13  C   UNL     1      -1.870  11.478  18.271  0.00  0.00    +0.000 A 
ATOM     14  C   UNL     1      -1.410  12.781  18.331  0.00  0.00    +0.000 A 
ATOM     15  C   UNL     1      -0.094  13.004  18.746  0.00  0.00    +0.000 A 
ATOM     16  C   UNL     1       0.798  11.923  19.019  0.00  0.00    +0.000 A 
ENDBRANCH   7  11
ENDBRANCH   1   2
BRANCH   1  17
ATOM     17  C   UNL     1       5.138   4.834  18.010  0.00  0.00    +0.000 A 
ATOM     18  C   UNL     1       4.327   4.564  16.883  0.00  0.00    +0.000 A 
ATOM     19  C   UNL     1       4.872   4.479  15.596  0.00  0.00    +0.000 A 
ATOM     20  C   UNL     1       6.237   4.695  15.416  0.00  0.00    +0.000 A 
ATOM     21  C   UNL     1       7.034   5.030  16.520  0.00  0.00    +0.000 A 
ATOM     22  C   UNL     1       6.493   5.098  17.804  0.00  0.00    +0.000 A 
BRANCH  20  23
ATOM     23  C   UNL     1       6.908   4.634  14.097  0.00  0.00    +0.000 C 
ATOM     24  O   UNL     1       7.872   5.339  13.848  0.00  0.00    +0.000 OA
ATOM     25  N   UNL     1       6.460   3.701  13.171  0.00  0.00    +0.000 N 
ATOM     26  H   UNL     1       5.827   2.963  13.453  0.00  0.00    +0.000 HD
BRANCH  25  27
ATOM     27  C   UNL     1       7.078   3.589  11.855  0.00  0.00    +0.000 C 
BRANCH  27  28
ATOM     28  C   UNL     1       7.402   2.153  11.451  0.00  0.00    +0.000 C 
BRANCH  28  29
ATOM     29  C   UNL     1       6.150   1.347  11.228  0.00  0.00    +0.000 C 
ATOM     30  O   UNL     1       6.115   0.149  10.988  0.00  0.00    +0.000 OA
BRANCH  29  31
ATOM     31  O   UNL     1       5.023   2.090  11.327  0.00  0.00    +0.000 OA
ATOM     32  H   UNL     1       4.922   2.544  12.186  0.00  0.00    +0.000 HD
ENDBRANCH  29  31
ENDBRANCH  28  29
ENDBRANCH  27  28
ENDBRANCH  25  27
ENDBRANCH  20  23
ENDBRANCH   1  17
BRANCH   1  33
ATOM     33  C   UNL     1       4.158   3.109  19.598  0.00  0.00    +0.000 C 
BRANCH  33  35
ATOM     34  C   UNL     1       1.673   3.121  18.513  0.00  0.00    +0.000 C 
ATOM     35  C   UNL     1       2.954   2.351  18.871  0.00  0.00    +0.000 C 
ATOM     36  C   UNL     1       3.332   1.447  17.695  0.00  0.00    +0.000 C 
ENDBRANCH  33  35
ENDBRANCH   1  33
TORSDOF 10
ENDMDL
MODEL 9
REMARK VINA RESULT:      -8.4      1.618      2.330
REMARK  Name = 
REMARK  12 active torsions:
REMARK  status: ('A' for Active; 'I' for Inactive)
REMARK    1  A    between atoms: C_1  and  C_2
REMARK    2  A    between atoms: C_2  and  C_3
REMARK    3  A    between atoms: C_2  and  C_4
REMARK    4  A    between atoms: C_4  and  C_5
REMARK    5  A    between atoms: C_5  and  C_6
REMARK    6  A    between atoms: C_5  and  N_20
REMARK    7  A    between atoms: C_9  and  C_10
REMARK    8  A    between atoms: N_12  and  C_13
REMARK    9  A    between atoms: C_13  and  C_14
REMARK   10  A    between atoms: C_14  and  C_15
REMARK   11  A    between atoms: C_15  and  O_17
REMARK   12  A    between atoms: C_25  and  C_26
REMARK                            x       y       z     vdW  Elec       q    Type
REMARK                         _______ _______ _______ _____ _____    ______ ____
ROOT
ATOM      1  C   UNL     1       3.558   5.109  18.841  0.00  0.00    +0.000 C 
ENDROOT
BRANCH   1   2
ATOM      2  N   UNL     1       2.931   6.495  18.823  0.00  0.00    +0.000 N 
ATOM      3  N   UNL     1       3.249   7.173  17.678  0.00  0.00    +0.000 NA
ATOM      4  C   UNL     1       2.648   8.341  17.773  0.00  0.00    +0.000 A 
ATOM      5  C   UNL     1       1.873   8.467  18.917  0.00  0.00    +0.000 A 
ATOM      6  C   UNL     1       1.049   9.529  19.353  0.00  0.00    +0.000 A 
ATOM      7  C   UNL     1       0.364   9.598  20.569  0.00  0.00    +0.000 A 
ATOM      8  C   UNL     1       0.656   8.510  21.409  0.00  0.00    +0.000 A 
ATOM      9  C   UNL     1       1.504   7.353  20.992  0.00  0.00    +0.000 A 
ATOM     10  C   UNL     1       2.102   7.310  19.681  0.00  0.00    +0.000 A 
BRANCH   7  11
ATOM     11  C   UNL     1      -0.515  10.838  20.737  0.00  0.00    +0.000 A 
ATOM     12  C   UNL     1      -0.783  11.287  22.064  0.00  0.00    +0.000 A 
ATOM     13  C   UNL     1      -1.845  12.151  22.402  0.00  0.00    +0.000 A 
ATOM     14  C   UNL     1      -2.646  12.673  21.402  0.00  0.00    +0.000 A 
ATOM     15  C   UNL     1      -2.338  12.363  20.074  0.00  0.00    +0.000 A 
ATOM     16  C   UNL     1      -1.284  11.460  19.742  0.00  0.00    +0.000 A 
ENDBRANCH   7  11
ENDBRANCH   1   2
BRANCH   1  17
ATOM     17  C   UNL     1       4.565   4.967  17.704  0.00  0.00    +0.000 A 
ATOM     18  C   UNL     1       5.695   5.811  17.598  0.00  0.00    +0.000 A 
ATOM     19  C   UNL     1       6.483   5.833  16.441  0.00  0.00    +0.000 A 
ATOM     20  C   UNL     1       6.168   4.983  15.383  0.00  0.00    +0.000 A 
ATOM     21  C   UNL     1       5.089   4.095  15.508  0.00  0.00    +0.000 A 
ATOM     22  C   UNL     1       4.295   4.086  16.655  0.00  0.00    +0.000 A 
BRANCH  20  23
ATOM     23  C   UNL     1       6.941   4.925  14.121  0.00  0.00    +0.000 C 
ATOM     24  O   UNL     1       7.934   5.615  13.959  0.00  0.00    +0.000 OA
ATOM     25  N   UNL     1       6.552   4.011  13.149  0.00  0.00    +0.000 N 
ATOM     26  H   UNL     1       5.885   3.282  13.371  0.00  0.00    +0.000 HD
BRANCH  25  27
ATOM     27  C   UNL     1       7.271   3.904  11.886  0.00  0.00    +0.000 C 
BRANCH  27  28
ATOM     28  C   UNL     1       7.298   2.488  11.315  0.00  0.00    +0.000 C 
BRANCH  28  29
ATOM     29  C   UNL     1       5.942   1.839  11.387  0.00  0.00    +0.000 C 
ATOM     30  O   UNL     1       5.739   0.638  11.491  0.00  0.00    +0.000 OA
BRANCH  29  31
ATOM     31  O   UNL     1       4.927   2.734  11.333  0.00  0.00    +0.000 OA
ATOM     32  H   UNL     1       4.685   3.111  12.201  0.00  0.00    +0.000 HD
ENDBRANCH  29  31
ENDBRANCH  28  29
ENDBRANCH  27  28
ENDBRANCH  25  27
ENDBRANCH  20  23
ENDBRANCH   1  17
BRANCH   1  33
ATOM     33  C   UNL     1       2.470   3.888  18.656  0.00  0.00    +0.000 C 
BRANCH  33  35
ATOM     34  C   UNL     1       1.452   3.657  21.158  0.00  0.00    +0.000 C 
ATOM     35  C   UNL     1       1.762   3.019  19.794  0.00  0.00    +0.000 C 
ATOM     36  C   UNL     1       0.559   2.179  19.358  0.00  0.00    +0.000 C 
ENDBRANCH  33  35
ENDBRANCH   1  33
TORSDOF 10
ENDMDL
