MODEL 1
REMARK VINA RESULT:      -8.4      0.000      0.000
REMARK  Name = 
REMARK  5 active torsions:
REMARK  status: ('A' for Active; 'I' for Inactive)
REMARK    1  A    between atoms: C_1  and  O_2
REMARK    2  A    between atoms: O_2  and  C_3
REMARK    3  A    between atoms: C_6  and  N_7
REMARK    4  A    between atoms: C_8  and  C_10
REMARK    5  A    between atoms: C_15  and  N_16
REMARK                            x       y       z     vdW  Elec       q    Type
REMARK                         _______ _______ _______ _____ _____    ______ ____
ROOT
ATOM      1  C   UNL     1       5.099   5.579  16.531  0.00  0.00    +0.000 A 
ATOM      2  C   UNL     1       5.887   5.991  15.424  0.00  0.00    +0.000 A 
ATOM      3  C   UNL     1       6.408   5.085  14.499  0.00  0.00    +0.000 A 
ATOM      4  C   UNL     1       6.187   3.733  14.675  0.00  0.00    +0.000 A 
ATOM      5  C   UNL     1       5.428   3.299  15.760  0.00  0.00    +0.000 A 
ATOM      6  C   UNL     1       4.846   4.206  16.684  0.00  0.00    +0.000 A 
ENDROOT
BRANCH   6   7
ATOM      7  N   UNL     1       4.007   3.639  17.681  0.00  0.00    +0.000 N 
ATOM      8  C   UNL     1       4.417   3.283  18.952  0.00  0.00    +0.000 A 
ATOM      9  C   UNL     1       3.277   3.115  19.673  0.00  0.00    +0.000 A 
ATOM     10  C   UNL     1       3.229   2.894  21.038  0.00  0.00    +0.000 A 
ATOM     11  C   UNL     1       1.907   2.646  21.449  0.00  0.00    +0.000 A 
ATOM     12  C   UNL     1       0.794   2.580  20.550  0.00  0.00    +0.000 A 
ATOM     13  C   UNL     1       0.891   2.823  19.159  0.00  0.00    +0.000 A 
ATOM     14  C   UNL     1       2.194   3.133  18.738  0.00  0.00    +0.000 A 
ATOM     15  N   UNL     1       2.667   3.485  17.529  0.00  0.00    +0.000 NA
ENDBRANCH   6   7
BRANCH   1  17
ATOM     16  N   UNL     1       3.194   6.605  17.742  0.00  0.00    +0.000 N 
ATOM     17  C   UNL     1       4.480   6.729  17.259  0.00  0.00    +0.000 C 
ATOM     18  O   UNL     1       5.217   7.699  17.430  0.00  0.00    +0.000 OA
ATOM     19  H   UNL     1       2.663   5.794  17.426  0.00  0.00    +0.000 HD
BRANCH  16  23
ATOM     20  C   UNL     1       0.948   9.526  19.836  0.00  0.00    +0.000 A 
ATOM     21  C   UNL     1       1.245   9.703  18.491  0.00  0.00    +0.000 A 
ATOM     22  C   UNL     1       1.982   8.756  17.789  0.00  0.00    +0.000 A 
ATOM     23  C   UNL     1       2.453   7.606  18.419  0.00  0.00    +0.000 A 
ATOM     24  C   UNL     1       2.161   7.427  19.778  0.00  0.00    +0.000 A 
ATOM     25  C   UNL     1       1.412   8.384  20.487  0.00  0.00    +0.000 A 
BRANCH  20  27
ATOM     26  C   UNL     1      -0.171  10.366  21.739  0.00  0.00    +0.000 C 
ATOM     27  O   UNL     1       0.237  10.550  20.394  0.00  0.00    +0.000 OA
ENDBRANCH  20  27
ENDBRANCH  16  23
ENDBRANCH   1  17
TORSDOF 4
ENDMDL
MODEL 2
REMARK VINA RESULT:      -8.1      1.676      4.837
REMARK  Name = 
REMARK  5 active torsions:
REMARK  status: ('A' for Active; 'I' for Inactive)
REMARK    1  A    between atoms: C_1  and  O_2
REMARK    2  A    between atoms: O_2  and  C_3
REMARK    3  A    between atoms: C_6  and  N_7
REMARK    4  A    between atoms: C_8  and  C_10
REMARK    5  A    between atoms: C_15  and  N_16
REMARK                            x       y       z     vdW  Elec       q    Type
REMARK                         _______ _______ _______ _____ _____    ______ ____
ROOT
ATOM      1  C   UNL     1       2.441   4.318  19.875  0.00  0.00    +0.000 A 
ATOM      2  C   UNL     1       1.646   4.021  21.013  0.00  0.00    +0.000 A 
ATOM      3  C   UNL     1       1.904   2.929  21.842  0.00  0.00    +0.000 A 
ATOM      4  C   UNL     1       2.947   2.076  21.534  0.00  0.00    +0.000 A 
ATOM      5  C   UNL     1       3.736   2.335  20.416  0.00  0.00    +0.000 A 
ATOM      6  C   UNL     1       3.522   3.469  19.589  0.00  0.00    +0.000 A 
ENDROOT
BRANCH   6   7
ATOM      7  N   UNL     1       4.465   3.676  18.546  0.00  0.00    +0.000 N 
ATOM      8  C   UNL     1       4.233   3.421  17.207  0.00  0.00    +0.000 A 
ATOM      9  C   UNL     1       5.226   4.059  16.533  0.00  0.00    +0.000 A 
ATOM     10  C   UNL     1       5.294   4.186  15.157  0.00  0.00    +0.000 A 
ATOM     11  C   UNL     1       6.503   4.796  14.780  0.00  0.00    +0.000 A 
ATOM     12  C   UNL     1       7.528   5.170  15.707  0.00  0.00    +0.000 A 
ATOM     13  C   UNL     1       7.409   5.030  17.111  0.00  0.00    +0.000 A 
ATOM     14  C   UNL     1       6.182   4.478  17.512  0.00  0.00    +0.000 A 
ATOM     15  N   UNL     1       5.677   4.257  18.739  0.00  0.00    +0.000 NA
ENDBRANCH   6   7
BRANCH   1  17
ATOM     16  N   UNL     1       2.167   6.777  20.052  0.00  0.00    +0.000 N 
ATOM     17  C   UNL     1       2.108   5.643  19.268  0.00  0.00    +0.000 C 
ATOM     18  O   UNL     1       1.866   5.621  18.062  0.00  0.00    +0.000 OA
ATOM     19  H   UNL     1       2.266   6.632  21.057  0.00  0.00    +0.000 HD
BRANCH  16  23
ATOM     20  C   UNL     1       1.144  10.723  18.895  0.00  0.00    +0.000 A 
ATOM     21  C   UNL     1       1.855   9.902  18.031  0.00  0.00    +0.000 A 
ATOM     22  C   UNL     1       2.200   8.606  18.394  0.00  0.00    +0.000 A 
ATOM     23  C   UNL     1       1.851   8.097  19.643  0.00  0.00    +0.000 A 
ATOM     24  C   UNL     1       1.139   8.924  20.522  0.00  0.00    +0.000 A 
ATOM     25  C   UNL     1       0.787  10.235  20.151  0.00  0.00    +0.000 A 
BRANCH  20  27
ATOM     26  C   UNL     1       1.886  12.955  18.676  0.00  0.00    +0.000 C 
ATOM     27  O   UNL     1       0.898  11.975  18.408  0.00  0.00    +0.000 OA
ENDBRANCH  20  27
ENDBRANCH  16  23
ENDBRANCH   1  17
TORSDOF 4
ENDMDL
MODEL 3
REMARK VINA RESULT:      -8.0      1.667      4.857
REMARK  Name = 
REMARK  5 active torsions:
REMARK  status: ('A' for Active; 'I' for Inactive)
REMARK    1  A    between atoms: C_1  and  O_2
REMARK    2  A    between atoms: O_2  and  C_3
REMARK    3  A    between atoms: C_6  and  N_7
REMARK    4  A    between atoms: C_8  and  C_10
REMARK    5  A    between atoms: C_15  and  N_16
REMARK                            x       y       z     vdW  Elec       q    Type
REMARK                         _______ _______ _______ _____ _____    ______ ____
ROOT
ATOM      1  C   UNL     1       2.438   4.333  19.867  0.00  0.00    +0.000 A 
ATOM      2  C   UNL     1       1.646   4.037  21.006  0.00  0.00    +0.000 A 
ATOM      3  C   UNL     1       1.908   2.947  21.837  0.00  0.00    +0.000 A 
ATOM      4  C   UNL     1       2.952   2.096  21.529  0.00  0.00    +0.000 A 
ATOM      5  C   UNL     1       3.738   2.354  20.408  0.00  0.00    +0.000 A 
ATOM      6  C   UNL     1       3.521   3.486  19.580  0.00  0.00    +0.000 A 
ENDROOT
BRANCH   6   7
ATOM      7  N   UNL     1       4.461   3.692  18.534  0.00  0.00    +0.000 N 
ATOM      8  C   UNL     1       4.228   3.429  17.197  0.00  0.00    +0.000 A 
ATOM      9  C   UNL     1       5.217   4.069  16.518  0.00  0.00    +0.000 A 
ATOM     10  C   UNL     1       5.283   4.188  15.141  0.00  0.00    +0.000 A 
ATOM     11  C   UNL     1       6.488   4.803  14.759  0.00  0.00    +0.000 A 
ATOM     12  C   UNL     1       7.512   5.189  15.683  0.00  0.00    +0.000 A 
ATOM     13  C   UNL     1       7.395   5.055  17.088  0.00  0.00    +0.000 A 
ATOM     14  C   UNL     1       6.171   4.498  17.494  0.00  0.00    +0.000 A 
ATOM     15  N   UNL     1       5.669   4.281  18.722  0.00  0.00    +0.000 NA
ENDBRANCH   6   7
BRANCH   1  17
ATOM     16  N   UNL     1       2.132   6.788  20.046  0.00  0.00    +0.000 N 
ATOM     17  C   UNL     1       2.102   5.656  19.257  0.00  0.00    +0.000 C 
ATOM     18  O   UNL     1       1.883   5.636  18.047  0.00  0.00    +0.000 OA
ATOM     19  H   UNL     1       2.214   6.641  21.052  0.00  0.00    +0.000 HD
BRANCH  16  23
ATOM     20  C   UNL     1       1.248  10.727  18.756  0.00  0.00    +0.000 A 
ATOM     21  C   UNL     1       0.792  10.274  19.987  0.00  0.00    +0.000 A 
ATOM     22  C   UNL     1       1.071   8.985  20.426  0.00  0.00    +0.000 A 
ATOM     23  C   UNL     1       1.809   8.106  19.635  0.00  0.00    +0.000 A 
ATOM     24  C   UNL     1       2.266   8.556  18.389  0.00  0.00    +0.000 A 
ATOM     25  C   UNL     1       1.986   9.862  17.949  0.00  0.00    +0.000 A 
BRANCH  20  27
ATOM     26  C   UNL     1      -0.309  12.475  19.073  0.00  0.00    +0.000 C 
ATOM     27  O   UNL     1       0.876  12.005  18.454  0.00  0.00    +0.000 OA
ENDBRANCH  20  27
ENDBRANCH  16  23
ENDBRANCH   1  17
TORSDOF 4
ENDMDL
MODEL 4
REMARK VINA RESULT:      -7.7      2.212      4.747
REMARK  Name = 
REMARK  5 active torsions:
REMARK  status: ('A' for Active; 'I' for Inactive)
REMARK    1  A    between atoms: C_1  and  O_2
REMARK    2  A    between atoms: O_2  and  C_3
REMARK    3  A    between atoms: C_6  and  N_7
REMARK    4  A    between atoms: C_8  and  C_10
REMARK    5  A    between atoms: C_15  and  N_16
REMARK                            x       y       z     vdW  Elec       q    Type
REMARK                         _______ _______ _______ _____ _____    ______ ____
ROOT
ATOM      1  C   UNL     1       2.300   4.366  19.039  0.00  0.00    +0.000 A 
ATOM      2  C   UNL     1       1.225   3.473  19.291  0.00  0.00    +0.000 A 
ATOM      3  C   UNL     1       1.345   2.093  19.123  0.00  0.00    +0.000 A 
ATOM      4  C   UNL     1       2.534   1.566  18.660  0.00  0.00    +0.000 A 
ATOM      5  C   UNL     1       3.602   2.420  18.390  0.00  0.00    +0.000 A 
ATOM      6  C   UNL     1       3.519   3.821  18.604  0.00  0.00    +0.000 A 
ENDROOT
BRANCH   6   7
ATOM      7  N   UNL     1       4.712   4.563  18.393  0.00  0.00    +0.000 N 
ATOM      8  C   UNL     1       4.918   5.456  17.359  0.00  0.00    +0.000 A 
ATOM      9  C   UNL     1       6.012   6.182  17.710  0.00  0.00    +0.000 A 
ATOM     10  C   UNL     1       6.483   7.287  17.024  0.00  0.00    +0.000 A 
ATOM     11  C   UNL     1       7.696   7.731  17.581  0.00  0.00    +0.000 A 
ATOM     12  C   UNL     1       8.358   7.075  18.669  0.00  0.00    +0.000 A 
ATOM     13  C   UNL     1       7.831   5.950  19.348  0.00  0.00    +0.000 A 
ATOM     14  C   UNL     1       6.590   5.528  18.845  0.00  0.00    +0.000 A 
ATOM     15  N   UNL     1       5.757   4.558  19.261  0.00  0.00    +0.000 NA
ENDBRANCH   6   7
BRANCH   1  17
ATOM     16  N   UNL     1       1.988   6.777  18.554  0.00  0.00    +0.000 N 
ATOM     17  C   UNL     1       2.008   5.762  19.487  0.00  0.00    +0.000 C 
ATOM     18  O   UNL     1       1.736   5.883  20.681  0.00  0.00    +0.000 OA
ATOM     19  H   UNL     1       2.345   6.552  17.626  0.00  0.00    +0.000 HD
BRANCH  16  23
ATOM     20  C   UNL     1       1.390  10.912  19.271  0.00  0.00    +0.000 A 
ATOM     21  C   UNL     1       1.022   9.975  20.227  0.00  0.00    +0.000 A 
ATOM     22  C   UNL     1       1.210   8.615  20.008  0.00  0.00    +0.000 A 
ATOM     23  C   UNL     1       1.763   8.153  18.816  0.00  0.00    +0.000 A 
ATOM     24  C   UNL     1       2.131   9.094  17.845  0.00  0.00    +0.000 A 
ATOM     25  C   UNL     1       1.944  10.470  18.070  0.00  0.00    +0.000 A 
BRANCH  20  27
ATOM     26  C   UNL     1       2.069  13.173  19.191  0.00  0.00    +0.000 C 
ATOM     27  O   UNL     1       1.126  12.205  19.618  0.00  0.00    +0.000 OA
ENDBRANCH  20  27
ENDBRANCH  16  23
ENDBRANCH   1  17
TORSDOF 4
ENDMDL
MODEL 5
REMARK VINA RESULT:      -7.6      2.031      6.938
REMARK  Name = 
REMARK  5 active torsions:
REMARK  status: ('A' for Active; 'I' for Inactive)
REMARK    1  A    between atoms: C_1  and  O_2
REMARK    2  A    between atoms: O_2  and  C_3
REMARK    3  A    between atoms: C_6  and  N_7
REMARK    4  A    between atoms: C_8  and  C_10
REMARK    5  A    between atoms: C_15  and  N_16
REMARK                            x       y       z     vdW  Elec       q    Type
REMARK                         _______ _______ _______ _____ _____    ______ ____
ROOT
ATOM      1  C   UNL     1       3.292   4.087  19.716  0.00  0.00    +0.000 A 
ATOM      2  C   UNL     1       3.193   2.688  19.935  0.00  0.00    +0.000 A 
ATOM      3  C   UNL     1       2.103   2.107  20.584  0.00  0.00    +0.000 A 
ATOM      4  C   UNL     1       1.094   2.916  21.071  0.00  0.00    +0.000 A 
ATOM      5  C   UNL     1       1.171   4.294  20.883  0.00  0.00    +0.000 A 
ATOM      6  C   UNL     1       2.245   4.900  20.180  0.00  0.00    +0.000 A 
ENDROOT
BRANCH   6   7
ATOM      7  N   UNL     1       2.146   6.302  19.965  0.00  0.00    +0.000 N 
ATOM      8  C   UNL     1       2.550   6.957  18.817  0.00  0.00    +0.000 A 
ATOM      9  C   UNL     1       1.981   8.190  18.877  0.00  0.00    +0.000 A 
ATOM     10  C   UNL     1       2.007   9.125  17.857  0.00  0.00    +0.000 A 
ATOM     11  C   UNL     1       1.430  10.334  18.285  0.00  0.00    +0.000 A 
ATOM     12  C   UNL     1       0.945  10.557  19.614  0.00  0.00    +0.000 A 
ATOM     13  C   UNL     1       0.930   9.565  20.623  0.00  0.00    +0.000 A 
ATOM     14  C   UNL     1       1.447   8.330  20.197  0.00  0.00    +0.000 A 
ATOM     15  N   UNL     1       1.535   7.149  20.833  0.00  0.00    +0.000 NA
ENDBRANCH   6   7
BRANCH   1  17
ATOM     16  N   UNL     1       4.256   4.407  17.455  0.00  0.00    +0.000 N 
ATOM     17  C   UNL     1       4.432   4.453  18.822  0.00  0.00    +0.000 C 
ATOM     18  O   UNL     1       5.447   4.843  19.398  0.00  0.00    +0.000 OA
ATOM     19  H   UNL     1       3.406   3.955  17.118  0.00  0.00    +0.000 HD
BRANCH  16  23
ATOM     20  C   UNL     1       7.201   5.147  14.498  0.00  0.00    +0.000 A 
ATOM     21  C   UNL     1       7.009   6.049  15.536  0.00  0.00    +0.000 A 
ATOM     22  C   UNL     1       6.047   5.823  16.514  0.00  0.00    +0.000 A 
ATOM     23  C   UNL     1       5.240   4.688  16.472  0.00  0.00    +0.000 A 
ATOM     24  C   UNL     1       5.426   3.778  15.423  0.00  0.00    +0.000 A 
ATOM     25  C   UNL     1       6.403   4.006  14.437  0.00  0.00    +0.000 A 
BRANCH  20  27
ATOM     26  C   UNL     1       7.845   5.347  12.234  0.00  0.00    +0.000 C 
ATOM     27  O   UNL     1       8.166   5.515  13.605  0.00  0.00    +0.000 OA
ENDBRANCH  20  27
ENDBRANCH  16  23
ENDBRANCH   1  17
TORSDOF 4
ENDMDL
MODEL 6
REMARK VINA RESULT:      -7.5      1.635      4.695
REMARK  Name = 
REMARK  5 active torsions:
REMARK  status: ('A' for Active; 'I' for Inactive)
REMARK    1  A    between atoms: C_1  and  O_2
REMARK    2  A    between atoms: O_2  and  C_3
REMARK    3  A    between atoms: C_6  and  N_7
REMARK    4  A    between atoms: C_8  and  C_10
REMARK    5  A    between atoms: C_15  and  N_16
REMARK                            x       y       z     vdW  Elec       q    Type
REMARK                         _______ _______ _______ _____ _____    ______ ____
ROOT
ATOM      1  C   UNL     1       2.473   4.620  20.001  0.00  0.00    +0.000 A 
ATOM      2  C   UNL     1       1.848   4.141  21.182  0.00  0.00    +0.000 A 
ATOM      3  C   UNL     1       2.213   2.937  21.786  0.00  0.00    +0.000 A 
ATOM      4  C   UNL     1       3.191   2.155  21.202  0.00  0.00    +0.000 A 
ATOM      5  C   UNL     1       3.812   2.593  20.035  0.00  0.00    +0.000 A 
ATOM      6  C   UNL     1       3.492   3.838  19.433  0.00  0.00    +0.000 A 
ENDROOT
BRANCH   6   7
ATOM      7  N   UNL     1       4.275   4.214  18.308  0.00  0.00    +0.000 N 
ATOM      8  C   UNL     1       5.478   4.892  18.371  0.00  0.00    +0.000 A 
ATOM      9  C   UNL     1       6.047   4.749  17.145  0.00  0.00    +0.000 A 
ATOM     10  C   UNL     1       7.329   5.151  16.815  0.00  0.00    +0.000 A 
ATOM     11  C   UNL     1       7.562   4.967  15.441  0.00  0.00    +0.000 A 
ATOM     12  C   UNL     1       6.574   4.482  14.524  0.00  0.00    +0.000 A 
ATOM     13  C   UNL     1       5.276   4.072  14.911  0.00  0.00    +0.000 A 
ATOM     14  C   UNL     1       5.043   4.193  16.291  0.00  0.00    +0.000 A 
ATOM     15  N   UNL     1       3.978   3.847  17.035  0.00  0.00    +0.000 NA
ENDBRANCH   6   7
BRANCH   1  17
ATOM     16  N   UNL     1       1.858   6.925  20.679  0.00  0.00    +0.000 N 
ATOM     17  C   UNL     1       2.070   6.019  19.660  0.00  0.00    +0.000 C 
ATOM     18  O   UNL     1       2.023   6.273  18.457  0.00  0.00    +0.000 OA
ATOM     19  H   UNL     1       1.818   6.547  21.625  0.00  0.00    +0.000 HD
BRANCH  16  23
ATOM     20  C   UNL     1       0.549  10.939  20.314  0.00  0.00    +0.000 A 
ATOM     21  C   UNL     1       1.069  10.270  19.214  0.00  0.00    +0.000 A 
ATOM     22  C   UNL     1       1.504   8.953  19.316  0.00  0.00    +0.000 A 
ATOM     23  C   UNL     1       1.441   8.272  20.529  0.00  0.00    +0.000 A 
ATOM     24  C   UNL     1       0.923   8.946  21.644  0.00  0.00    +0.000 A 
ATOM     25  C   UNL     1       0.479  10.276  21.538  0.00  0.00    +0.000 A 
BRANCH  20  27
ATOM     26  C   UNL     1      -0.633  12.441  18.927  0.00  0.00    +0.000 C 
ATOM     27  O   UNL     1       0.184  12.231  20.065  0.00  0.00    +0.000 OA
ENDBRANCH  20  27
ENDBRANCH  16  23
ENDBRANCH   1  17
TORSDOF 4
ENDMDL
MODEL 7
REMARK VINA RESULT:      -7.5      2.170      4.699
REMARK  Name = 
REMARK  5 active torsions:
REMARK  status: ('A' for Active; 'I' for Inactive)
REMARK    1  A    between atoms: C_1  and  O_2
REMARK    2  A    between atoms: O_2  and  C_3
REMARK    3  A    between atoms: C_6  and  N_7
REMARK    4  A    between atoms: C_8  and  C_10
REMARK    5  A    between atoms: C_15  and  N_16
REMARK                            x       y       z     vdW  Elec       q    Type
REMARK                         _______ _______ _______ _____ _____    ______ ____
ROOT
ATOM      1  C   UNL     1       2.303   4.226  19.244  0.00  0.00    +0.000 A 
ATOM      2  C   UNL     1       1.235   3.314  19.451  0.00  0.00    +0.000 A 
ATOM      3  C   UNL     1       1.296   1.985  19.031  0.00  0.00    +0.000 A 
ATOM      4  C   UNL     1       2.413   1.537  18.354  0.00  0.00    +0.000 A 
ATOM      5  C   UNL     1       3.471   2.415  18.123  0.00  0.00    +0.000 A 
ATOM      6  C   UNL     1       3.452   3.756  18.588  0.00  0.00    +0.000 A 
ENDROOT
BRANCH   6   7
ATOM      7  N   UNL     1       4.638   4.511  18.381  0.00  0.00    +0.000 N 
ATOM      8  C   UNL     1       4.818   5.444  17.377  0.00  0.00    +0.000 A 
ATOM      9  C   UNL     1       5.916   6.162  17.733  0.00  0.00    +0.000 A 
ATOM     10  C   UNL     1       6.368   7.295  17.080  0.00  0.00    +0.000 A 
ATOM     11  C   UNL     1       7.590   7.723  17.629  0.00  0.00    +0.000 A 
ATOM     12  C   UNL     1       8.277   7.031  18.678  0.00  0.00    +0.000 A 
ATOM     13  C   UNL     1       7.769   5.878  19.324  0.00  0.00    +0.000 A 
ATOM     14  C   UNL     1       6.519   5.469  18.831  0.00  0.00    +0.000 A 
ATOM     15  N   UNL     1       5.700   4.479  19.227  0.00  0.00    +0.000 NA
ENDBRANCH   6   7
BRANCH   1  17
ATOM     16  N   UNL     1       1.717   6.636  19.241  0.00  0.00    +0.000 N 
ATOM     17  C   UNL     1       2.102   5.523  19.960  0.00  0.00    +0.000 C 
ATOM     18  O   UNL     1       2.236   5.474  21.182  0.00  0.00    +0.000 OA
ATOM     19  H   UNL     1       1.757   6.560  18.225  0.00  0.00    +0.000 HD
BRANCH  16  23
ATOM     20  C   UNL     1       1.172  10.575  20.707  0.00  0.00    +0.000 A 
ATOM     21  C   UNL     1       1.149   9.494  21.579  0.00  0.00    +0.000 A 
ATOM     22  C   UNL     1       1.325   8.196  21.115  0.00  0.00    +0.000 A 
ATOM     23  C   UNL     1       1.518   7.941  19.759  0.00  0.00    +0.000 A 
ATOM     24  C   UNL     1       1.535   9.028  18.875  0.00  0.00    +0.000 A 
ATOM     25  C   UNL     1       1.362  10.342  19.346  0.00  0.00    +0.000 A 
BRANCH  20  27
ATOM     26  C   UNL     1      -0.337  12.012  21.820  0.00  0.00    +0.000 C 
ATOM     27  O   UNL     1       0.964  11.785  21.306  0.00  0.00    +0.000 OA
ENDBRANCH  20  27
ENDBRANCH  16  23
ENDBRANCH   1  17
TORSDOF 4
ENDMDL
MODEL 8
REMARK VINA RESULT:      -7.4      2.142      4.552
REMARK  Name = 
REMARK  5 active torsions:
REMARK  status: ('A' for Active; 'I' for Inactive)
REMARK    1  A    between atoms: C_1  and  O_2
REMARK    2  A    between atoms: O_2  and  C_3
REMARK    3  A    between atoms: C_6  and  N_7
REMARK    4  A    between atoms: C_8  and  C_10
REMARK    5  A    between atoms: C_15  and  N_16
REMARK                            x       y       z     vdW  Elec       q    Type
REMARK                         _______ _______ _______ _____ _____    ______ ____
ROOT
ATOM      1  C   UNL     1       2.451   3.947  18.385  0.00  0.00    +0.000 A 
ATOM      2  C   UNL     1       1.425   3.008  18.667  0.00  0.00    +0.000 A 
ATOM      3  C   UNL     1       1.699   1.681  19.004  0.00  0.00    +0.000 A 
ATOM      4  C   UNL     1       3.009   1.244  19.030  0.00  0.00    +0.000 A 
ATOM      5  C   UNL     1       4.035   2.141  18.744  0.00  0.00    +0.000 A 
ATOM      6  C   UNL     1       3.783   3.507  18.450  0.00  0.00    +0.000 A 
ENDROOT
BRANCH   6   7
ATOM      7  N   UNL     1       4.924   4.337  18.283  0.00  0.00    +0.000 N 
ATOM      8  C   UNL     1       5.118   5.216  17.234  0.00  0.00    +0.000 A 
ATOM      9  C   UNL     1       6.129   6.037  17.623  0.00  0.00    +0.000 A 
ATOM     10  C   UNL     1       6.549   7.159  16.931  0.00  0.00    +0.000 A 
ATOM     11  C   UNL     1       7.688   7.714  17.541  0.00  0.00    +0.000 A 
ATOM     12  C   UNL     1       8.335   7.144  18.684  0.00  0.00    +0.000 A 
ATOM     13  C   UNL     1       7.861   5.998  19.367  0.00  0.00    +0.000 A 
ATOM     14  C   UNL     1       6.689   5.464  18.809  0.00  0.00    +0.000 A 
ATOM     15  N   UNL     1       5.914   4.440  19.208  0.00  0.00    +0.000 NA
ENDBRANCH   6   7
BRANCH   1  17
ATOM     16  N   UNL     1       2.415   6.318  19.112  0.00  0.00    +0.000 N 
ATOM     17  C   UNL     1       1.936   5.345  18.259  0.00  0.00    +0.000 C 
ATOM     18  O   UNL     1       1.149   5.533  17.332  0.00  0.00    +0.000 OA
ATOM     19  H   UNL     1       2.972   5.997  19.903  0.00  0.00    +0.000 HD
BRANCH  16  23
ATOM     20  C   UNL     1       1.133  10.353  19.295  0.00  0.00    +0.000 A 
ATOM     21  C   UNL     1       1.709   9.854  18.135  0.00  0.00    +0.000 A 
ATOM     22  C   UNL     1       2.137   8.533  18.057  0.00  0.00    +0.000 A 
ATOM     23  C   UNL     1       2.008   7.676  19.148  0.00  0.00    +0.000 A 
ATOM     24  C   UNL     1       1.433   8.177  20.323  0.00  0.00    +0.000 A 
ATOM     25  C   UNL     1       0.997   9.512  20.399  0.00  0.00    +0.000 A 
BRANCH  20  27
ATOM     26  C   UNL     1      -0.605  11.953  19.279  0.00  0.00    +0.000 C 
ATOM     27  O   UNL     1       0.783  11.671  19.227  0.00  0.00    +0.000 OA
ENDBRANCH  20  27
ENDBRANCH  16  23
ENDBRANCH   1  17
TORSDOF 4
ENDMDL
MODEL 9
REMARK VINA RESULT:      -7.4      2.119      6.907
REMARK  Name = 
REMARK  5 active torsions:
REMARK  status: ('A' for Active; 'I' for Inactive)
REMARK    1  A    between atoms: C_1  and  O_2
REMARK    2  A    between atoms: O_2  and  C_3
REMARK    3  A    between atoms: C_6  and  N_7
REMARK    4  A    between atoms: C_8  and  C_10
REMARK    5  A    between atoms: C_15  and  N_16
REMARK                            x       y       z     vdW  Elec       q    Type
REMARK                         _______ _______ _______ _____ _____    ______ ____
ROOT
ATOM      1  C   UNL     1       3.505   3.889  19.888  0.00  0.00    +0.000 A 
ATOM      2  C   UNL     1       3.461   2.513  20.234  0.00  0.00    +0.000 A 
ATOM      3  C   UNL     1       2.448   1.974  21.028  0.00  0.00    +0.000 A 
ATOM      4  C   UNL     1       1.466   2.805  21.532  0.00  0.00    +0.000 A 
ATOM      5  C   UNL     1       1.492   4.163  21.221  0.00  0.00    +0.000 A 
ATOM      6  C   UNL     1       2.484   4.723  20.373  0.00  0.00    +0.000 A 
ENDROOT
BRANCH   6   7
ATOM      7  N   UNL     1       2.332   6.098  20.048  0.00  0.00    +0.000 N 
ATOM      8  C   UNL     1       2.764   6.686  18.874  0.00  0.00    +0.000 A 
ATOM      9  C   UNL     1       2.136   7.891  18.814  0.00  0.00    +0.000 A 
ATOM     10  C   UNL     1       2.171   8.748  17.728  0.00  0.00    +0.000 A 
ATOM     11  C   UNL     1       1.519   9.955  18.035  0.00  0.00    +0.000 A 
ATOM     12  C   UNL     1       0.957  10.251  19.319  0.00  0.00    +0.000 A 
ATOM     13  C   UNL     1       0.935   9.336  20.399  0.00  0.00    +0.000 A 
ATOM     14  C   UNL     1       1.529   8.101  20.092  0.00  0.00    +0.000 A 
ATOM     15  N   UNL     1       1.639   6.975  20.819  0.00  0.00    +0.000 NA
ENDBRANCH   6   7
BRANCH   1  17
ATOM     16  N   UNL     1       4.190   4.281  17.537  0.00  0.00    +0.000 N 
ATOM     17  C   UNL     1       4.552   4.195  18.866  0.00  0.00    +0.000 C 
ATOM     18  O   UNL     1       5.675   4.417  19.315  0.00  0.00    +0.000 OA
ATOM     19  H   UNL     1       3.252   3.959  17.297  0.00  0.00    +0.000 HD
BRANCH  16  23
ATOM     20  C   UNL     1       6.747   5.109  14.261  0.00  0.00    +0.000 A 
ATOM     21  C   UNL     1       6.465   3.796  14.614  0.00  0.00    +0.000 A 
ATOM     22  C   UNL     1       5.629   3.506  15.686  0.00  0.00    +0.000 A 
ATOM     23  C   UNL     1       5.060   4.527  16.445  0.00  0.00    +0.000 A 
ATOM     24  C   UNL     1       5.348   5.853  16.097  0.00  0.00    +0.000 A 
ATOM     25  C   UNL     1       6.190   6.145  15.008  0.00  0.00    +0.000 A 
BRANCH  20  27
ATOM     26  C   UNL     1       7.243   4.530  12.025  0.00  0.00    +0.000 C 
ATOM     27  O   UNL     1       7.599   5.236  13.201  0.00  0.00    +0.000 OA
ENDBRANCH  20  27
ENDBRANCH  16  23
ENDBRANCH   1  17
TORSDOF 4
ENDMDL
