MODEL 1
REMARK VINA RESULT:      -7.8      0.000      0.000
REMARK  Name = 
REMARK  4 active torsions:
REMARK  status: ('A' for Active; 'I' for Inactive)
REMARK    1  A    between atoms: C_1  and  O_2
REMARK    2  A    between atoms: O_2  and  C_3
REMARK    3  A    between atoms: C_10  and  C_11
REMARK    4  A    between atoms: C_10  and  C_17
REMARK                            x       y       z     vdW  Elec       q    Type
REMARK                         _______ _______ _______ _____ _____    ______ ____
ROOT
ATOM      1  C   UNL     1       6.665   4.810  14.898  0.00  0.00    +0.000 A 
ATOM      2  C   UNL     1       7.546   4.295  15.854  0.00  0.00    +0.000 A 
ATOM      3  C   UNL     1       7.305   4.500  17.214  0.00  0.00    +0.000 A 
ATOM      4  C   UNL     1       6.170   5.203  17.613  0.00  0.00    +0.000 A 
ATOM      5  C   UNL     1       5.246   5.649  16.672  0.00  0.00    +0.000 A 
ATOM      6  C   UNL     1       5.509   5.483  15.314  0.00  0.00    +0.000 A 
ATOM      7  O   UNL     1       4.069   6.258  17.020  0.00  0.00    +0.000 OA
ATOM      8  C   UNL     1       3.628   6.032  18.392  0.00  0.00    +0.000 C 
ATOM      9  N   UNL     1       4.790   6.231  19.269  0.00  0.00    +0.000 N 
ATOM     10  C   UNL     1       5.953   5.559  19.019  0.00  0.00    +0.000 C 
ATOM     11  O   UNL     1       6.762   5.310  19.902  0.00  0.00    +0.000 OA
ATOM     12  H   UNL     1       4.624   6.435  20.245  0.00  0.00    +0.000 HD
ENDROOT
BRANCH   8  13
ATOM     13  C   UNL     1       3.086   4.589  18.558  0.00  0.00    +0.000 A 
ATOM     14  C   UNL     1       2.995   3.995  19.833  0.00  0.00    +0.000 A 
ATOM     15  C   UNL     1       2.607   2.663  19.982  0.00  0.00    +0.000 A 
ATOM     16  C   UNL     1       2.280   1.906  18.862  0.00  0.00    +0.000 A 
ATOM     17  C   UNL     1       2.315   2.487  17.597  0.00  0.00    +0.000 A 
ATOM     18  C   UNL     1       2.705   3.820  17.444  0.00  0.00    +0.000 A 
ENDBRANCH   8  13
BRANCH   8  19
ATOM     19  C   UNL     1       2.480   7.076  18.710  0.00  0.00    +0.000 C 
ATOM     20  F   UNL     1       1.366   6.868  17.965  0.00  0.00    +0.000 F 
ATOM     21  F   UNL     1       2.089   7.071  20.007  0.00  0.00    +0.000 F 
ATOM     22  F   UNL     1       2.893   8.347  18.444  0.00  0.00    +0.000 F 
ENDBRANCH   8  19
BRANCH   1  24
ATOM     23  C   UNL     1       6.182   3.615  12.904  0.00  0.00    +0.000 C 
ATOM     24  O   UNL     1       6.821   4.716  13.541  0.00  0.00    +0.000 OA
ENDBRANCH   1  24
TORSDOF 3
ENDMDL
MODEL 2
REMARK VINA RESULT:      -7.8      0.111      1.280
REMARK  Name = 
REMARK  4 active torsions:
REMARK  status: ('A' for Active; 'I' for Inactive)
REMARK    1  A    between atoms: C_1  and  O_2
REMARK    2  A    between atoms: O_2  and  C_3
REMARK    3  A    between atoms: C_10  and  C_11
REMARK    4  A    between atoms: C_10  and  C_17
REMARK                            x       y       z     vdW  Elec       q    Type
REMARK                         _______ _______ _______ _____ _____    ______ ____
ROOT
ATOM      1  C   UNL     1       6.656   4.800  14.915  0.00  0.00    +0.000 A 
ATOM      2  C   UNL     1       7.563   4.306  15.859  0.00  0.00    +0.000 A 
ATOM      3  C   UNL     1       7.338   4.509  17.222  0.00  0.00    +0.000 A 
ATOM      4  C   UNL     1       6.193   5.187  17.636  0.00  0.00    +0.000 A 
ATOM      5  C   UNL     1       5.245   5.609  16.709  0.00  0.00    +0.000 A 
ATOM      6  C   UNL     1       5.492   5.447  15.347  0.00  0.00    +0.000 A 
ATOM      7  O   UNL     1       4.059   6.192  17.073  0.00  0.00    +0.000 OA
ATOM      8  C   UNL     1       3.644   5.959  18.452  0.00  0.00    +0.000 C 
ATOM      9  N   UNL     1       4.815   6.186  19.311  0.00  0.00    +0.000 N 
ATOM     10  C   UNL     1       5.989   5.541  19.044  0.00  0.00    +0.000 C 
ATOM     11  O   UNL     1       6.817   5.313  19.916  0.00  0.00    +0.000 OA
ATOM     12  H   UNL     1       4.659   6.389  20.289  0.00  0.00    +0.000 HD
ENDROOT
BRANCH   8  13
ATOM     13  C   UNL     1       3.139   4.505  18.629  0.00  0.00    +0.000 A 
ATOM     14  C   UNL     1       2.757   3.732  17.513  0.00  0.00    +0.000 A 
ATOM     15  C   UNL     1       2.204   2.460  17.671  0.00  0.00    +0.000 A 
ATOM     16  C   UNL     1       2.044   1.927  18.946  0.00  0.00    +0.000 A 
ATOM     17  C   UNL     1       2.460   2.653  20.059  0.00  0.00    +0.000 A 
ATOM     18  C   UNL     1       3.012   3.927  19.905  0.00  0.00    +0.000 A 
ENDBRANCH   8  13
BRANCH   8  19
ATOM     19  C   UNL     1       2.478   6.978  18.785  0.00  0.00    +0.000 C 
ATOM     20  F   UNL     1       2.082   6.910  20.080  0.00  0.00    +0.000 F 
ATOM     21  F   UNL     1       2.804   8.271  18.544  0.00  0.00    +0.000 F 
ATOM     22  F   UNL     1       1.376   6.718  18.028  0.00  0.00    +0.000 F 
ENDBRANCH   8  19
BRANCH   1  24
ATOM     23  C   UNL     1       6.141   3.609  12.926  0.00  0.00    +0.000 C 
ATOM     24  O   UNL     1       6.794   4.706  13.556  0.00  0.00    +0.000 OA
ENDBRANCH   1  24
TORSDOF 3
ENDMDL
MODEL 3
REMARK VINA RESULT:      -7.5      2.865      5.888
REMARK  Name = 
REMARK  4 active torsions:
REMARK  status: ('A' for Active; 'I' for Inactive)
REMARK    1  A    between atoms: C_1  and  O_2
REMARK    2  A    between atoms: O_2  and  C_3
REMARK    3  A    between atoms: C_10  and  C_11
REMARK    4  A    between atoms: C_10  and  C_17
REMARK                            x       y       z     vdW  Elec       q    Type
REMARK                         _______ _______ _______ _____ _____    ______ ____
ROOT
ATOM      1  C   UNL     1       1.812   8.431  19.058  0.00  0.00    +0.000 A 
ATOM      2  C   UNL     1       1.830   7.632  20.206  0.00  0.00    +0.000 A 
ATOM      3  C   UNL     1       2.486   6.399  20.193  0.00  0.00    +0.000 A 
ATOM      4  C   UNL     1       3.141   5.981  19.036  0.00  0.00    +0.000 A 
ATOM      5  C   UNL     1       3.197   6.805  17.916  0.00  0.00    +0.000 A 
ATOM      6  C   UNL     1       2.504   8.014  17.914  0.00  0.00    +0.000 A 
ATOM      7  O   UNL     1       3.908   6.480  16.791  0.00  0.00    +0.000 OA
ATOM      8  C   UNL     1       4.939   5.465  16.973  0.00  0.00    +0.000 C 
ATOM      9  N   UNL     1       4.348   4.368  17.753  0.00  0.00    +0.000 N 
ATOM     10  C   UNL     1       3.720   4.638  18.936  0.00  0.00    +0.000 C 
ATOM     11  O   UNL     1       3.624   3.802  19.825  0.00  0.00    +0.000 OA
ATOM     12  H   UNL     1       4.784   3.457  17.706  0.00  0.00    +0.000 HD
ENDROOT
BRANCH   8  13
ATOM     13  C   UNL     1       6.154   6.054  17.735  0.00  0.00    +0.000 A 
ATOM     14  C   UNL     1       6.708   7.295  17.360  0.00  0.00    +0.000 A 
ATOM     15  C   UNL     1       7.864   7.783  17.972  0.00  0.00    +0.000 A 
ATOM     16  C   UNL     1       8.473   7.052  18.986  0.00  0.00    +0.000 A 
ATOM     17  C   UNL     1       7.914   5.848  19.407  0.00  0.00    +0.000 A 
ATOM     18  C   UNL     1       6.759   5.355  18.794  0.00  0.00    +0.000 A 
ENDBRANCH   8  13
BRANCH   8  19
ATOM     19  C   UNL     1       5.393   4.972  15.538  0.00  0.00    +0.000 C 
ATOM     20  F   UNL     1       5.285   5.943  14.596  0.00  0.00    +0.000 F 
ATOM     21  F   UNL     1       6.673   4.530  15.498  0.00  0.00    +0.000 F 
ATOM     22  F   UNL     1       4.620   3.934  15.115  0.00  0.00    +0.000 F 
ENDBRANCH   8  19
BRANCH   1  24
ATOM     23  C   UNL     1       0.652  10.201  20.135  0.00  0.00    +0.000 C 
ATOM     24  O   UNL     1       1.164   9.630  18.935  0.00  0.00    +0.000 OA
ENDBRANCH   1  24
TORSDOF 3
ENDMDL
MODEL 4
REMARK VINA RESULT:      -7.5      2.962      5.777
REMARK  Name = 
REMARK  4 active torsions:
REMARK  status: ('A' for Active; 'I' for Inactive)
REMARK    1  A    between atoms: C_1  and  O_2
REMARK    2  A    between atoms: O_2  and  C_3
REMARK    3  A    between atoms: C_10  and  C_11
REMARK    4  A    between atoms: C_10  and  C_17
REMARK                            x       y       z     vdW  Elec       q    Type
REMARK                         _______ _______ _______ _____ _____    ______ ____
ROOT
ATOM      1  C   UNL     1       2.057   8.105  18.557  0.00  0.00    +0.000 A 
ATOM      2  C   UNL     1       2.078   7.397  19.762  0.00  0.00    +0.000 A 
ATOM      3  C   UNL     1       2.798   6.205  19.864  0.00  0.00    +0.000 A 
ATOM      4  C   UNL     1       3.513   5.738  18.763  0.00  0.00    +0.000 A 
ATOM      5  C   UNL     1       3.564   6.478  17.585  0.00  0.00    +0.000 A 
ATOM      6  C   UNL     1       2.809   7.643  17.469  0.00  0.00    +0.000 A 
ATOM      7  O   UNL     1       4.330   6.110  16.510  0.00  0.00    +0.000 OA
ATOM      8  C   UNL     1       5.406   5.170  16.801  0.00  0.00    +0.000 C 
ATOM      9  N   UNL     1       4.847   4.104  17.644  0.00  0.00    +0.000 N 
ATOM     10  C   UNL     1       4.166   4.426  18.784  0.00  0.00    +0.000 C 
ATOM     11  O   UNL     1       4.084   3.655  19.730  0.00  0.00    +0.000 OA
ATOM     12  H   UNL     1       5.333   3.217  17.681  0.00  0.00    +0.000 HD
ENDROOT
BRANCH   8  13
ATOM     13  C   UNL     1       6.561   5.881  17.552  0.00  0.00    +0.000 A 
ATOM     14  C   UNL     1       7.244   5.235  18.603  0.00  0.00    +0.000 A 
ATOM     15  C   UNL     1       8.213   5.904  19.352  0.00  0.00    +0.000 A 
ATOM     16  C   UNL     1       8.536   7.223  19.049  0.00  0.00    +0.000 A 
ATOM     17  C   UNL     1       7.910   7.864  17.983  0.00  0.00    +0.000 A 
ATOM     18  C   UNL     1       6.937   7.198  17.233  0.00  0.00    +0.000 A 
ENDBRANCH   8  13
BRANCH   8  19
ATOM     19  C   UNL     1       5.935   4.597  15.422  0.00  0.00    +0.000 C 
ATOM     20  F   UNL     1       5.181   4.999  14.368  0.00  0.00    +0.000 F 
ATOM     21  F   UNL     1       7.213   4.951  15.144  0.00  0.00    +0.000 F 
ATOM     22  F   UNL     1       5.909   3.236  15.421  0.00  0.00    +0.000 F 
ENDBRANCH   8  19
BRANCH   1  24
ATOM     23  C   UNL     1       0.698   9.838  19.445  0.00  0.00    +0.000 C 
ATOM     24  O   UNL     1       1.350   9.255  18.323  0.00  0.00    +0.000 OA
ENDBRANCH   1  24
TORSDOF 3
ENDMDL
MODEL 5
REMARK VINA RESULT:      -7.4      2.760      5.533
REMARK  Name = 
REMARK  4 active torsions:
REMARK  status: ('A' for Active; 'I' for Inactive)
REMARK    1  A    between atoms: C_1  and  O_2
REMARK    2  A    between atoms: O_2  and  C_3
REMARK    3  A    between atoms: C_10  and  C_11
REMARK    4  A    between atoms: C_10  and  C_17
REMARK                            x       y       z     vdW  Elec       q    Type
REMARK                         _______ _______ _______ _____ _____    ______ ____
ROOT
ATOM      1  C   UNL     1       2.077   3.425  19.379  0.00  0.00    +0.000 A 
ATOM      2  C   UNL     1       1.371   4.353  18.606  0.00  0.00    +0.000 A 
ATOM      3  C   UNL     1       2.030   5.456  18.058  0.00  0.00    +0.000 A 
ATOM      4  C   UNL     1       3.399   5.613  18.269  0.00  0.00    +0.000 A 
ATOM      5  C   UNL     1       4.124   4.652  18.968  0.00  0.00    +0.000 A 
ATOM      6  C   UNL     1       3.458   3.577  19.553  0.00  0.00    +0.000 A 
ATOM      7  O   UNL     1       5.484   4.713  19.118  0.00  0.00    +0.000 OA
ATOM      8  C   UNL     1       6.181   5.570  18.165  0.00  0.00    +0.000 C 
ATOM      9  N   UNL     1       5.441   6.837  18.084  0.00  0.00    +0.000 N 
ATOM     10  C   UNL     1       4.099   6.825  17.830  0.00  0.00    +0.000 C 
ATOM     11  O   UNL     1       3.529   7.773  17.308  0.00  0.00    +0.000 OA
ATOM     12  H   UNL     1       5.927   7.654  17.740  0.00  0.00    +0.000 HD
ENDROOT
BRANCH   8  13
ATOM     13  C   UNL     1       6.230   4.901  16.768  0.00  0.00    +0.000 A 
ATOM     14  C   UNL     1       6.912   5.515  15.697  0.00  0.00    +0.000 A 
ATOM     15  C   UNL     1       6.874   4.973  14.412  0.00  0.00    +0.000 A 
ATOM     16  C   UNL     1       6.174   3.794  14.177  0.00  0.00    +0.000 A 
ATOM     17  C   UNL     1       5.536   3.144  15.230  0.00  0.00    +0.000 A 
ATOM     18  C   UNL     1       5.570   3.685  16.517  0.00  0.00    +0.000 A 
ENDBRANCH   8  13
BRANCH   8  19
ATOM     19  C   UNL     1       7.654   5.795  18.705  0.00  0.00    +0.000 C 
ATOM     20  F   UNL     1       8.498   4.795  18.348  0.00  0.00    +0.000 F 
ATOM     21  F   UNL     1       8.215   6.952  18.275  0.00  0.00    +0.000 F 
ATOM     22  F   UNL     1       7.669   5.850  20.065  0.00  0.00    +0.000 F 
ENDBRANCH   8  19
BRANCH   1  24
ATOM     23  C   UNL     1       1.425   2.408  21.424  0.00  0.00    +0.000 C 
ATOM     24  O   UNL     1       1.533   2.336  20.006  0.00  0.00    +0.000 OA
ENDBRANCH   1  24
TORSDOF 3
ENDMDL
MODEL 6
REMARK VINA RESULT:      -7.3      3.059      5.752
REMARK  Name = 
REMARK  4 active torsions:
REMARK  status: ('A' for Active; 'I' for Inactive)
REMARK    1  A    between atoms: C_1  and  O_2
REMARK    2  A    between atoms: O_2  and  C_3
REMARK    3  A    between atoms: C_10  and  C_11
REMARK    4  A    between atoms: C_10  and  C_17
REMARK                            x       y       z     vdW  Elec       q    Type
REMARK                         _______ _______ _______ _____ _____    ______ ____
ROOT
ATOM      1  C   UNL     1       1.455   9.026  18.747  0.00  0.00    +0.000 A 
ATOM      2  C   UNL     1       1.543   8.783  20.122  0.00  0.00    +0.000 A 
ATOM      3  C   UNL     1       2.001   7.549  20.589  0.00  0.00    +0.000 A 
ATOM      4  C   UNL     1       2.390   6.570  19.676  0.00  0.00    +0.000 A 
ATOM      5  C   UNL     1       2.383   6.833  18.309  0.00  0.00    +0.000 A 
ATOM      6  C   UNL     1       1.884   8.047  17.843  0.00  0.00    +0.000 A 
ATOM      7  O   UNL     1       2.846   5.939  17.380  0.00  0.00    +0.000 OA
ATOM      8  C   UNL     1       3.734   4.903  17.896  0.00  0.00    +0.000 C 
ATOM      9  N   UNL     1       3.123   4.367  19.121  0.00  0.00    +0.000 N 
ATOM     10  C   UNL     1       2.743   5.218  20.119  0.00  0.00    +0.000 C 
ATOM     11  O   UNL     1       2.672   4.859  21.287  0.00  0.00    +0.000 OA
ATOM     12  H   UNL     1       3.409   3.449  19.437  0.00  0.00    +0.000 HD
ENDROOT
BRANCH   8  13
ATOM     13  C   UNL     1       5.129   5.494  18.221  0.00  0.00    +0.000 A 
ATOM     14  C   UNL     1       5.688   6.509  17.418  0.00  0.00    +0.000 A 
ATOM     15  C   UNL     1       6.985   6.974  17.642  0.00  0.00    +0.000 A 
ATOM     16  C   UNL     1       7.739   6.451  18.687  0.00  0.00    +0.000 A 
ATOM     17  C   UNL     1       7.188   5.483  19.524  0.00  0.00    +0.000 A 
ATOM     18  C   UNL     1       5.892   5.014  19.301  0.00  0.00    +0.000 A 
ENDBRANCH   8  13
BRANCH   8  19
ATOM     19  C   UNL     1       3.871   3.784  16.783  0.00  0.00    +0.000 C 
ATOM     20  F   UNL     1       2.668   3.320  16.361  0.00  0.00    +0.000 F 
ATOM     21  F   UNL     1       4.538   4.199  15.679  0.00  0.00    +0.000 F 
ATOM     22  F   UNL     1       4.558   2.709  17.258  0.00  0.00    +0.000 F 
ENDBRANCH   8  19
BRANCH   1  24
ATOM     23  C   UNL     1      -0.364  10.531  18.489  0.00  0.00    +0.000 C 
ATOM     24  O   UNL     1       0.978  10.173  18.173  0.00  0.00    +0.000 OA
ENDBRANCH   1  24
TORSDOF 3
ENDMDL
MODEL 7
REMARK VINA RESULT:      -7.1      2.759      5.512
REMARK  Name = 
REMARK  4 active torsions:
REMARK  status: ('A' for Active; 'I' for Inactive)
REMARK    1  A    between atoms: C_1  and  O_2
REMARK    2  A    between atoms: O_2  and  C_3
REMARK    3  A    between atoms: C_10  and  C_11
REMARK    4  A    between atoms: C_10  and  C_17
REMARK                            x       y       z     vdW  Elec       q    Type
REMARK                         _______ _______ _______ _____ _____    ______ ____
ROOT
ATOM      1  C   UNL     1       2.100   3.425  19.501  0.00  0.00    +0.000 A 
ATOM      2  C   UNL     1       1.345   4.358  18.784  0.00  0.00    +0.000 A 
ATOM      3  C   UNL     1       1.961   5.477  18.221  0.00  0.00    +0.000 A 
ATOM      4  C   UNL     1       3.338   5.646  18.360  0.00  0.00    +0.000 A 
ATOM      5  C   UNL     1       4.109   4.681  19.002  0.00  0.00    +0.000 A 
ATOM      6  C   UNL     1       3.487   3.588  19.602  0.00  0.00    +0.000 A 
ATOM      7  O   UNL     1       5.475   4.754  19.079  0.00  0.00    +0.000 OA
ATOM      8  C   UNL     1       6.111   5.635  18.106  0.00  0.00    +0.000 C 
ATOM      9  N   UNL     1       5.355   6.895  18.088  0.00  0.00    +0.000 N 
ATOM     10  C   UNL     1       4.001   6.873  17.907  0.00  0.00    +0.000 C 
ATOM     11  O   UNL     1       3.394   7.823  17.433  0.00  0.00    +0.000 OA
ATOM     12  H   UNL     1       5.813   7.724  17.733  0.00  0.00    +0.000 HD
ENDROOT
BRANCH   8  13
ATOM     13  C   UNL     1       6.091   4.992  16.696  0.00  0.00    +0.000 A 
ATOM     14  C   UNL     1       5.497   3.730  16.486  0.00  0.00    +0.000 A 
ATOM     15  C   UNL     1       5.566   3.098  15.244  0.00  0.00    +0.000 A 
ATOM     16  C   UNL     1       6.207   3.725  14.181  0.00  0.00    +0.000 A 
ATOM     17  C   UNL     1       6.757   4.993  14.352  0.00  0.00    +0.000 A 
ATOM     18  C   UNL     1       6.693   5.627  15.595  0.00  0.00    +0.000 A 
ENDBRANCH   8  13
BRANCH   8  19
ATOM     19  C   UNL     1       7.608   5.867  18.569  0.00  0.00    +0.000 C 
ATOM     20  F   UNL     1       7.729   5.954  19.917  0.00  0.00    +0.000 F 
ATOM     21  F   UNL     1       8.457   4.892  18.163  0.00  0.00    +0.000 F 
ATOM     22  F   UNL     1       8.098   7.031  18.060  0.00  0.00    +0.000 F 
ENDBRANCH   8  19
BRANCH   1  24
ATOM     23  C   UNL     1       1.406   2.429  21.542  0.00  0.00    +0.000 C 
ATOM     24  O   UNL     1       1.602   2.319  20.136  0.00  0.00    +0.000 OA
ENDBRANCH   1  24
TORSDOF 3
ENDMDL
MODEL 8
REMARK VINA RESULT:      -7.0      2.683      5.462
REMARK  Name = 
REMARK  4 active torsions:
REMARK  status: ('A' for Active; 'I' for Inactive)
REMARK    1  A    between atoms: C_1  and  O_2
REMARK    2  A    between atoms: O_2  and  C_3
REMARK    3  A    between atoms: C_10  and  C_11
REMARK    4  A    between atoms: C_10  and  C_17
REMARK                            x       y       z     vdW  Elec       q    Type
REMARK                         _______ _______ _______ _____ _____    ______ ____
ROOT
ATOM      1  C   UNL     1       2.808   3.626  20.105  0.00  0.00    +0.000 A 
ATOM      2  C   UNL     1       1.747   4.227  19.419  0.00  0.00    +0.000 A 
ATOM      3  C   UNL     1       1.977   5.337  18.604  0.00  0.00    +0.000 A 
ATOM      4  C   UNL     1       3.274   5.827  18.460  0.00  0.00    +0.000 A 
ATOM      5  C   UNL     1       4.346   5.186  19.074  0.00  0.00    +0.000 A 
ATOM      6  C   UNL     1       4.110   4.107  19.923  0.00  0.00    +0.000 A 
ATOM      7  O   UNL     1       5.648   5.571  18.885  0.00  0.00    +0.000 OA
ATOM      8  C   UNL     1       5.894   6.383  17.699  0.00  0.00    +0.000 C 
ATOM      9  N   UNL     1       4.856   7.422  17.649  0.00  0.00    +0.000 N 
ATOM     10  C   UNL     1       3.538   7.069  17.727  0.00  0.00    +0.000 C 
ATOM     11  O   UNL     1       2.651   7.763  17.249  0.00  0.00    +0.000 OA
ATOM     12  H   UNL     1       5.036   8.255  17.104  0.00  0.00    +0.000 HD
ENDROOT
BRANCH   8  13
ATOM     13  C   UNL     1       5.826   5.511  16.419  0.00  0.00    +0.000 A 
ATOM     14  C   UNL     1       6.112   4.132  16.469  0.00  0.00    +0.000 A 
ATOM     15  C   UNL     1       6.154   3.361  15.306  0.00  0.00    +0.000 A 
ATOM     16  C   UNL     1       5.887   3.949  14.075  0.00  0.00    +0.000 A 
ATOM     17  C   UNL     1       5.552   5.299  14.007  0.00  0.00    +0.000 A 
ATOM     18  C   UNL     1       5.512   6.074  15.169  0.00  0.00    +0.000 A 
ENDBRANCH   8  13
BRANCH   8  19
ATOM     19  C   UNL     1       7.339   7.019  17.839  0.00  0.00    +0.000 C 
ATOM     20  F   UNL     1       7.306   8.372  17.920  0.00  0.00    +0.000 F 
ATOM     21  F   UNL     1       8.020   6.579  18.925  0.00  0.00    +0.000 F 
ATOM     22  F   UNL     1       8.110   6.713  16.759  0.00  0.00    +0.000 F 
ENDBRANCH   8  19
BRANCH   1  24
ATOM     23  C   UNL     1       1.525   2.525  21.772  0.00  0.00    +0.000 C 
ATOM     24  O   UNL     1       2.698   2.569  20.968  0.00  0.00    +0.000 OA
ENDBRANCH   1  24
TORSDOF 3
ENDMDL
MODEL 9
REMARK VINA RESULT:      -7.0      2.694      5.513
REMARK  Name = 
REMARK  4 active torsions:
REMARK  status: ('A' for Active; 'I' for Inactive)
REMARK    1  A    between atoms: C_1  and  O_2
REMARK    2  A    between atoms: O_2  and  C_3
REMARK    3  A    between atoms: C_10  and  C_11
REMARK    4  A    between atoms: C_10  and  C_17
REMARK                            x       y       z     vdW  Elec       q    Type
REMARK                         _______ _______ _______ _____ _____    ______ ____
ROOT
ATOM      1  C   UNL     1       2.949   3.791  20.007  0.00  0.00    +0.000 A 
ATOM      2  C   UNL     1       1.891   4.367  19.296  0.00  0.00    +0.000 A 
ATOM      3  C   UNL     1       2.119   5.469  18.470  0.00  0.00    +0.000 A 
ATOM      4  C   UNL     1       3.411   5.977  18.342  0.00  0.00    +0.000 A 
ATOM      5  C   UNL     1       4.482   5.360  18.982  0.00  0.00    +0.000 A 
ATOM      6  C   UNL     1       4.247   4.289  19.841  0.00  0.00    +0.000 A 
ATOM      7  O   UNL     1       5.780   5.762  18.810  0.00  0.00    +0.000 OA
ATOM      8  C   UNL     1       6.036   6.562  17.617  0.00  0.00    +0.000 C 
ATOM      9  N   UNL     1       4.983   7.584  17.536  0.00  0.00    +0.000 N 
ATOM     10  C   UNL     1       3.669   7.213  17.596  0.00  0.00    +0.000 C 
ATOM     11  O   UNL     1       2.781   7.887  17.094  0.00  0.00    +0.000 OA
ATOM     12  H   UNL     1       5.160   8.412  16.983  0.00  0.00    +0.000 HD
ENDROOT
BRANCH   8  13
ATOM     13  C   UNL     1       6.002   5.672  16.348  0.00  0.00    +0.000 A 
ATOM     14  C   UNL     1       5.413   6.139  15.155  0.00  0.00    +0.000 A 
ATOM     15  C   UNL     1       5.286   5.308  14.041  0.00  0.00    +0.000 A 
ATOM     16  C   UNL     1       5.765   4.004  14.089  0.00  0.00    +0.000 A 
ATOM     17  C   UNL     1       6.395   3.538  15.241  0.00  0.00    +0.000 A 
ATOM     18  C   UNL     1       6.522   4.366  16.359  0.00  0.00    +0.000 A 
ENDBRANCH   8  13
BRANCH   8  19
ATOM     19  C   UNL     1       7.468   7.220  17.773  0.00  0.00    +0.000 C 
ATOM     20  F   UNL     1       8.199   6.648  18.763  0.00  0.00    +0.000 F 
ATOM     21  F   UNL     1       8.218   7.155  16.647  0.00  0.00    +0.000 F 
ATOM     22  F   UNL     1       7.363   8.542  18.083  0.00  0.00    +0.000 F 
ENDBRANCH   8  19
BRANCH   1  24
ATOM     23  C   UNL     1       1.612   2.636  21.595  0.00  0.00    +0.000 C 
ATOM     24  O   UNL     1       2.840   2.743  20.882  0.00  0.00    +0.000 OA
ENDBRANCH   1  24
TORSDOF 3
ENDMDL
