MODEL 1
REMARK VINA RESULT:      -5.8      0.000      0.000
REMARK  Name = 
REMARK  11 active torsions:
REMARK  status: ('A' for Active; 'I' for Inactive)
REMARK    1  A    between atoms: C_1  and  O_2
REMARK    2  A    between atoms: O_2  and  C_3
REMARK    3  A    between atoms: C_6  and  C_7
REMARK    4  A    between atoms: C_10  and  C_11
REMARK    5  A    between atoms: N_15  and  C_16
REMARK    6  A    between atoms: C_18  and  O_19
REMARK    7  A    between atoms: O_19  and  C_20
REMARK    8  A    between atoms: C_21  and  O_22
REMARK    9  A    between atoms: O_22  and  C_23
REMARK   10  A    between atoms: C_24  and  O_25
REMARK   11  A    between atoms: O_25  and  C_26
REMARK                            x       y       z     vdW  Elec       q    Type
REMARK                         _______ _______ _______ _____ _____    ______ ____
ROOT
ATOM      1  C   UNL     1       1.036  12.327  19.717  0.00  0.00    +0.000 A 
ATOM      2  C   UNL     1       1.994  13.251  19.910  0.00  0.00    +0.000 A 
ATOM      3  N   UNL     1       1.541  14.504  19.501  0.00  0.00    +0.000 N 
ATOM      4  C   UNL     1       2.296  15.660  19.648  0.00  0.00    +0.000 C 
ATOM      5  C   UNL     1       1.720  16.981  19.196  0.00  0.00    +0.000 C 
ATOM      6  O   UNL     1       3.430  15.642  20.145  0.00  0.00    +0.000 OA
ATOM      7  C   UNL     1       0.214  14.343  19.000  0.00  0.00    +0.000 A 
ATOM      8  O   UNL     1      -0.533  15.190  18.537  0.00  0.00    +0.000 OA
ATOM      9  N   UNL     1      -0.073  12.947  19.183  0.00  0.00    +0.000 N 
ENDROOT
BRANCH   1  13
ATOM     10  C   UNL     1       1.384   8.115  20.403  0.00  0.00    +0.000 A 
ATOM     11  C   UNL     1       1.035   8.985  21.439  0.00  0.00    +0.000 A 
ATOM     12  C   UNL     1       0.908  10.357  21.207  0.00  0.00    +0.000 A 
ATOM     13  C   UNL     1       1.139  10.887  19.935  0.00  0.00    +0.000 A 
ATOM     14  C   UNL     1       1.485  10.010  18.896  0.00  0.00    +0.000 A 
ATOM     15  C   UNL     1       1.611   8.630  19.129  0.00  0.00    +0.000 A 
BRANCH  10  17
ATOM     16  C   UNL     1       2.288   5.977  19.927  0.00  0.00    +0.000 C 
ATOM     17  O   UNL     1       1.516   6.810  20.781  0.00  0.00    +0.000 OA
ENDBRANCH  10  17
ENDBRANCH   1  13
BRANCH   9  18
ATOM     18  C   UNL     1      -1.364  12.463  18.979  0.00  0.00    +0.000 A 
ATOM     19  C   UNL     1      -1.699  11.955  17.738  0.00  0.00    +0.000 A 
ATOM     20  C   UNL     1      -2.996  11.529  17.467  0.00  0.00    +0.000 A 
ATOM     21  C   UNL     1      -4.011  11.690  18.442  0.00  0.00    +0.000 A 
ATOM     22  C   UNL     1      -3.675  12.264  19.696  0.00  0.00    +0.000 A 
ATOM     23  C   UNL     1      -2.346  12.605  19.958  0.00  0.00    +0.000 A 
BRANCH  20  24
ATOM     24  O   UNL     1      -3.306  10.969  16.241  0.00  0.00    +0.000 OA
ATOM     25  C   UNL     1      -2.640   9.730  15.974  0.00  0.00    +0.000 C 
ENDBRANCH  20  24
BRANCH  21  26
ATOM     26  O   UNL     1      -5.277  11.328  18.048  0.00  0.00    +0.000 OA
ATOM     27  C   UNL     1      -6.105  12.334  17.476  0.00  0.00    +0.000 C 
ENDBRANCH  21  26
BRANCH  22  28
ATOM     28  O   UNL     1      -4.677  12.524  20.599  0.00  0.00    +0.000 OA
ATOM     29  C   UNL     1      -4.935  13.877  20.956  0.00  0.00    +0.000 C 
ENDBRANCH  22  28
ENDBRANCH   9  18
TORSDOF 6
ENDMDL
MODEL 2
REMARK VINA RESULT:      -5.8      2.339      6.724
REMARK  Name = 
REMARK  11 active torsions:
REMARK  status: ('A' for Active; 'I' for Inactive)
REMARK    1  A    between atoms: C_1  and  O_2
REMARK    2  A    between atoms: O_2  and  C_3
REMARK    3  A    between atoms: C_6  and  C_7
REMARK    4  A    between atoms: C_10  and  C_11
REMARK    5  A    between atoms: N_15  and  C_16
REMARK    6  A    between atoms: C_18  and  O_19
REMARK    7  A    between atoms: O_19  and  C_20
REMARK    8  A    between atoms: C_21  and  O_22
REMARK    9  A    between atoms: O_22  and  C_23
REMARK   10  A    between atoms: C_24  and  O_25
REMARK   11  A    between atoms: O_25  and  C_26
REMARK                            x       y       z     vdW  Elec       q    Type
REMARK                         _______ _______ _______ _____ _____    ______ ____
ROOT
ATOM      1  C   UNL     1      -4.033  12.005  19.271  0.00  0.00    +0.000 A 
ATOM      2  C   UNL     1      -5.281  12.172  19.743  0.00  0.00    +0.000 A 
ATOM      3  N   UNL     1      -5.239  12.670  21.043  0.00  0.00    +0.000 N 
ATOM      4  C   UNL     1      -6.382  13.004  21.756  0.00  0.00    +0.000 C 
ATOM      5  C   UNL     1      -6.246  13.558  23.155  0.00  0.00    +0.000 C 
ATOM      6  O   UNL     1      -7.516  12.867  21.277  0.00  0.00    +0.000 OA
ATOM      7  C   UNL     1      -3.866  12.804  21.413  0.00  0.00    +0.000 A 
ATOM      8  O   UNL     1      -3.397  13.196  22.469  0.00  0.00    +0.000 OA
ATOM      9  N   UNL     1      -3.137  12.395  20.244  0.00  0.00    +0.000 N 
ENDROOT
BRANCH   1  13
ATOM     10  C   UNL     1      -2.945  10.283  15.505  0.00  0.00    +0.000 A 
ATOM     11  C   UNL     1      -4.048  11.131  15.614  0.00  0.00    +0.000 A 
ATOM     12  C   UNL     1      -4.392  11.703  16.842  0.00  0.00    +0.000 A 
ATOM     13  C   UNL     1      -3.641  11.428  17.988  0.00  0.00    +0.000 A 
ATOM     14  C   UNL     1      -2.531  10.579  17.874  0.00  0.00    +0.000 A 
ATOM     15  C   UNL     1      -2.184  10.005  16.638  0.00  0.00    +0.000 A 
BRANCH  10  17
ATOM     16  C   UNL     1      -3.840   9.875  13.348  0.00  0.00    +0.000 C 
ATOM     17  O   UNL     1      -2.753   9.761  14.258  0.00  0.00    +0.000 OA
ENDBRANCH  10  17
ENDBRANCH   1  13
BRANCH   9  18
ATOM     18  C   UNL     1      -1.758  12.580  20.176  0.00  0.00    +0.000 A 
ATOM     19  C   UNL     1      -0.936  11.759  20.923  0.00  0.00    +0.000 A 
ATOM     20  C   UNL     1       0.442  11.956  20.943  0.00  0.00    +0.000 A 
ATOM     21  C   UNL     1       1.009  13.058  20.257  0.00  0.00    +0.000 A 
ATOM     22  C   UNL     1       0.155  13.932  19.536  0.00  0.00    +0.000 A 
ATOM     23  C   UNL     1      -1.212  13.655  19.475  0.00  0.00    +0.000 A 
BRANCH  20  24
ATOM     24  O   UNL     1       1.261  11.092  21.649  0.00  0.00    +0.000 OA
ATOM     25  C   UNL     1       0.957   9.706  21.460  0.00  0.00    +0.000 C 
ENDBRANCH  20  24
BRANCH  21  26
ATOM     26  O   UNL     1       2.365  13.223  20.415  0.00  0.00    +0.000 OA
ATOM     27  C   UNL     1       2.809  14.200  21.350  0.00  0.00    +0.000 C 
ENDBRANCH  21  26
BRANCH  22  28
ATOM     28  O   UNL     1       0.687  15.062  18.965  0.00  0.00    +0.000 OA
ATOM     29  C   UNL     1      -0.092  16.253  18.962  0.00  0.00    +0.000 C 
ENDBRANCH  22  28
ENDBRANCH   9  18
TORSDOF 6
ENDMDL
MODEL 3
REMARK VINA RESULT:      -5.8      2.475      6.734
REMARK  Name = 
REMARK  11 active torsions:
REMARK  status: ('A' for Active; 'I' for Inactive)
REMARK    1  A    between atoms: C_1  and  O_2
REMARK    2  A    between atoms: O_2  and  C_3
REMARK    3  A    between atoms: C_6  and  C_7
REMARK    4  A    between atoms: C_10  and  C_11
REMARK    5  A    between atoms: N_15  and  C_16
REMARK    6  A    between atoms: C_18  and  O_19
REMARK    7  A    between atoms: O_19  and  C_20
REMARK    8  A    between atoms: C_21  and  O_22
REMARK    9  A    between atoms: O_22  and  C_23
REMARK   10  A    between atoms: C_24  and  O_25
REMARK   11  A    between atoms: O_25  and  C_26
REMARK                            x       y       z     vdW  Elec       q    Type
REMARK                         _______ _______ _______ _____ _____    ______ ____
ROOT
ATOM      1  C   UNL     1      -4.099  12.017  19.392  0.00  0.00    +0.000 A 
ATOM      2  C   UNL     1      -5.366  12.190  19.807  0.00  0.00    +0.000 A 
ATOM      3  N   UNL     1      -5.381  12.680  21.111  0.00  0.00    +0.000 N 
ATOM      4  C   UNL     1      -6.553  13.018  21.773  0.00  0.00    +0.000 C 
ATOM      5  C   UNL     1      -6.478  13.562  23.180  0.00  0.00    +0.000 C 
ATOM      6  O   UNL     1      -7.665  12.892  21.241  0.00  0.00    +0.000 OA
ATOM      7  C   UNL     1      -4.026  12.801  21.544  0.00  0.00    +0.000 A 
ATOM      8  O   UNL     1      -3.603  13.183  22.624  0.00  0.00    +0.000 OA
ATOM      9  N   UNL     1      -3.247  12.393  20.408  0.00  0.00    +0.000 N 
ENDROOT
BRANCH   1  13
ATOM     10  C   UNL     1      -2.851  10.312  15.668  0.00  0.00    +0.000 A 
ATOM     11  C   UNL     1      -3.945  11.177  15.730  0.00  0.00    +0.000 A 
ATOM     12  C   UNL     1      -4.341  11.743  16.945  0.00  0.00    +0.000 A 
ATOM     13  C   UNL     1      -3.653  11.445  18.124  0.00  0.00    +0.000 A 
ATOM     14  C   UNL     1      -2.552  10.579  18.058  0.00  0.00    +0.000 A 
ATOM     15  C   UNL     1      -2.153  10.011  16.835  0.00  0.00    +0.000 A 
BRANCH  10  17
ATOM     16  C   UNL     1      -3.664   9.890  13.482  0.00  0.00    +0.000 C 
ATOM     17  O   UNL     1      -2.606   9.799  14.427  0.00  0.00    +0.000 OA
ENDBRANCH  10  17
ENDBRANCH   1  13
BRANCH   9  18
ATOM     18  C   UNL     1      -1.864  12.569  20.405  0.00  0.00    +0.000 A 
ATOM     19  C   UNL     1      -1.325  13.607  19.669  0.00  0.00    +0.000 A 
ATOM     20  C   UNL     1       0.054  13.775  19.577  0.00  0.00    +0.000 A 
ATOM     21  C   UNL     1       0.924  12.831  20.176  0.00  0.00    +0.000 A 
ATOM     22  C   UNL     1       0.365  11.735  20.885  0.00  0.00    +0.000 A 
ATOM     23  C   UNL     1      -1.022  11.645  21.021  0.00  0.00    +0.000 A 
BRANCH  20  24
ATOM     24  O   UNL     1       0.582  14.851  18.885  0.00  0.00    +0.000 OA
ATOM     25  C   UNL     1      -0.332  15.935  18.695  0.00  0.00    +0.000 C 
ENDBRANCH  20  24
BRANCH  21  26
ATOM     26  O   UNL     1       2.265  13.030  19.951  0.00  0.00    +0.000 OA
ATOM     27  C   UNL     1       3.009  13.717  20.951  0.00  0.00    +0.000 C 
ENDBRANCH  21  26
BRANCH  22  28
ATOM     28  O   UNL     1       1.201  10.759  21.369  0.00  0.00    +0.000 OA
ATOM     29  C   UNL     1       0.676   9.811  22.292  0.00  0.00    +0.000 C 
ENDBRANCH  22  28
ENDBRANCH   9  18
TORSDOF 6
ENDMDL
MODEL 4
REMARK VINA RESULT:      -5.7      3.037      3.863
REMARK  Name = 
REMARK  11 active torsions:
REMARK  status: ('A' for Active; 'I' for Inactive)
REMARK    1  A    between atoms: C_1  and  O_2
REMARK    2  A    between atoms: O_2  and  C_3
REMARK    3  A    between atoms: C_6  and  C_7
REMARK    4  A    between atoms: C_10  and  C_11
REMARK    5  A    between atoms: N_15  and  C_16
REMARK    6  A    between atoms: C_18  and  O_19
REMARK    7  A    between atoms: O_19  and  C_20
REMARK    8  A    between atoms: C_21  and  O_22
REMARK    9  A    between atoms: O_22  and  C_23
REMARK   10  A    between atoms: C_24  and  O_25
REMARK   11  A    between atoms: O_25  and  C_26
REMARK                            x       y       z     vdW  Elec       q    Type
REMARK                         _______ _______ _______ _____ _____    ______ ____
ROOT
ATOM      1  C   UNL     1      -1.700  13.210  22.821  0.00  0.00    +0.000 A 
ATOM      2  C   UNL     1      -1.322  14.139  23.717  0.00  0.00    +0.000 A 
ATOM      3  N   UNL     1      -2.212  15.211  23.701  0.00  0.00    +0.000 N 
ATOM      4  C   UNL     1      -2.108  16.286  24.572  0.00  0.00    +0.000 C 
ATOM      5  C   UNL     1      -3.128  17.398  24.501  0.00  0.00    +0.000 C 
ATOM      6  O   UNL     1      -1.203  16.360  25.415  0.00  0.00    +0.000 OA
ATOM      7  C   UNL     1      -3.203  14.937  22.710  0.00  0.00    +0.000 A 
ATOM      8  O   UNL     1      -4.154  15.624  22.374  0.00  0.00    +0.000 OA
ATOM      9  N   UNL     1      -2.851  13.642  22.197  0.00  0.00    +0.000 N 
ENDROOT
BRANCH   1  13
ATOM     10  C   UNL     1       0.391   9.602  21.853  0.00  0.00    +0.000 A 
ATOM     11  C   UNL     1      -0.550   9.631  22.884  0.00  0.00    +0.000 A 
ATOM     12  C   UNL     1      -1.242  10.807  23.187  0.00  0.00    +0.000 A 
ATOM     13  C   UNL     1      -0.995  11.980  22.470  0.00  0.00    +0.000 A 
ATOM     14  C   UNL     1      -0.052  11.947  21.433  0.00  0.00    +0.000 A 
ATOM     15  C   UNL     1       0.643  10.763  21.126  0.00  0.00    +0.000 A 
BRANCH  10  17
ATOM     16  C   UNL     1       1.590   8.143  20.420  0.00  0.00    +0.000 C 
ATOM     17  O   UNL     1       1.022   8.401  21.697  0.00  0.00    +0.000 OA
ENDBRANCH  10  17
ENDBRANCH   1  13
BRANCH   9  18
ATOM     18  C   UNL     1      -3.718  12.967  21.339  0.00  0.00    +0.000 A 
ATOM     19  C   UNL     1      -3.295  12.677  20.056  0.00  0.00    +0.000 A 
ATOM     20  C   UNL     1      -4.153  12.071  19.143  0.00  0.00    +0.000 A 
ATOM     21  C   UNL     1      -5.501  11.818  19.498  0.00  0.00    +0.000 A 
ATOM     22  C   UNL     1      -5.946  12.169  20.799  0.00  0.00    +0.000 A 
ATOM     23  C   UNL     1      -5.034  12.702  21.713  0.00  0.00    +0.000 A 
BRANCH  20  24
ATOM     24  O   UNL     1      -3.703  11.732  17.879  0.00  0.00    +0.000 OA
ATOM     25  C   UNL     1      -2.291  11.509  17.797  0.00  0.00    +0.000 C 
ENDBRANCH  20  24
BRANCH  21  26
ATOM     26  O   UNL     1      -6.294  11.306  18.498  0.00  0.00    +0.000 OA
ATOM     27  C   UNL     1      -7.072  12.221  17.736  0.00  0.00    +0.000 C 
ENDBRANCH  21  26
BRANCH  22  28
ATOM     28  O   UNL     1      -7.277  12.029  21.107  0.00  0.00    +0.000 OA
ATOM     29  C   UNL     1      -7.648  11.907  22.477  0.00  0.00    +0.000 C 
ENDBRANCH  22  28
ENDBRANCH   9  18
TORSDOF 6
ENDMDL
MODEL 5
REMARK VINA RESULT:      -5.6      0.851      2.648
REMARK  Name = 
REMARK  11 active torsions:
REMARK  status: ('A' for Active; 'I' for Inactive)
REMARK    1  A    between atoms: C_1  and  O_2
REMARK    2  A    between atoms: O_2  and  C_3
REMARK    3  A    between atoms: C_6  and  C_7
REMARK    4  A    between atoms: C_10  and  C_11
REMARK    5  A    between atoms: N_15  and  C_16
REMARK    6  A    between atoms: C_18  and  O_19
REMARK    7  A    between atoms: O_19  and  C_20
REMARK    8  A    between atoms: C_21  and  O_22
REMARK    9  A    between atoms: O_22  and  C_23
REMARK   10  A    between atoms: C_24  and  O_25
REMARK   11  A    between atoms: O_25  and  C_26
REMARK                            x       y       z     vdW  Elec       q    Type
REMARK                         _______ _______ _______ _____ _____    ______ ____
ROOT
ATOM      1  C   UNL     1       1.282  12.505  19.115  0.00  0.00    +0.000 A 
ATOM      2  C   UNL     1       2.237  13.428  19.324  0.00  0.00    +0.000 A 
ATOM      3  N   UNL     1       1.714  14.708  19.152  0.00  0.00    +0.000 N 
ATOM      4  C   UNL     1       2.457  15.859  19.371  0.00  0.00    +0.000 C 
ATOM      5  C   UNL     1       1.806  17.208  19.180  0.00  0.00    +0.000 C 
ATOM      6  O   UNL     1       3.643  15.814  19.727  0.00  0.00    +0.000 OA
ATOM      7  C   UNL     1       0.339  14.569  18.789  0.00  0.00    +0.000 A 
ATOM      8  O   UNL     1      -0.474  15.444  18.539  0.00  0.00    +0.000 OA
ATOM      9  N   UNL     1       0.104  13.151  18.805  0.00  0.00    +0.000 N 
ENDROOT
BRANCH   1  13
ATOM     10  C   UNL     1       1.701   8.244  19.060  0.00  0.00    +0.000 A 
ATOM     11  C   UNL     1       2.126   9.021  17.980  0.00  0.00    +0.000 A 
ATOM     12  C   UNL     1       2.002  10.413  18.008  0.00  0.00    +0.000 A 
ATOM     13  C   UNL     1       1.438  11.053  19.115  0.00  0.00    +0.000 A 
ATOM     14  C   UNL     1       1.015  10.270  20.199  0.00  0.00    +0.000 A 
ATOM     15  C   UNL     1       1.142   8.871  20.172  0.00  0.00    +0.000 A 
BRANCH  10  17
ATOM     16  C   UNL     1       3.141   6.362  19.089  0.00  0.00    +0.000 C 
ATOM     17  O   UNL     1       1.842   6.899  18.878  0.00  0.00    +0.000 OA
ENDBRANCH  10  17
ENDBRANCH   1  13
BRANCH   9  18
ATOM     18  C   UNL     1      -1.192  12.654  18.685  0.00  0.00    +0.000 A 
ATOM     19  C   UNL     1      -2.083  12.853  19.723  0.00  0.00    +0.000 A 
ATOM     20  C   UNL     1      -3.363  12.311  19.678  0.00  0.00    +0.000 A 
ATOM     21  C   UNL     1      -3.741  11.476  18.598  0.00  0.00    +0.000 A 
ATOM     22  C   UNL     1      -2.804  11.228  17.560  0.00  0.00    +0.000 A 
ATOM     23  C   UNL     1      -1.557  11.855  17.603  0.00  0.00    +0.000 A 
BRANCH  20  24
ATOM     24  O   UNL     1      -4.266  12.564  20.696  0.00  0.00    +0.000 OA
ATOM     25  C   UNL     1      -3.665  12.765  21.980  0.00  0.00    +0.000 C 
ENDBRANCH  20  24
BRANCH  21  26
ATOM     26  O   UNL     1      -4.991  10.911  18.690  0.00  0.00    +0.000 OA
ATOM     27  C   UNL     1      -6.033  11.477  17.903  0.00  0.00    +0.000 C 
ENDBRANCH  21  26
BRANCH  22  28
ATOM     28  O   UNL     1      -3.127  10.332  16.572  0.00  0.00    +0.000 OA
ATOM     29  C   UNL     1      -2.947  10.723  15.215  0.00  0.00    +0.000 C 
ENDBRANCH  22  28
ENDBRANCH   9  18
TORSDOF 6
ENDMDL
MODEL 6
REMARK VINA RESULT:      -5.6      0.818      1.245
REMARK  Name = 
REMARK  11 active torsions:
REMARK  status: ('A' for Active; 'I' for Inactive)
REMARK    1  A    between atoms: C_1  and  O_2
REMARK    2  A    between atoms: O_2  and  C_3
REMARK    3  A    between atoms: C_6  and  C_7
REMARK    4  A    between atoms: C_10  and  C_11
REMARK    5  A    between atoms: N_15  and  C_16
REMARK    6  A    between atoms: C_18  and  O_19
REMARK    7  A    between atoms: O_19  and  C_20
REMARK    8  A    between atoms: C_21  and  O_22
REMARK    9  A    between atoms: O_22  and  C_23
REMARK   10  A    between atoms: C_24  and  O_25
REMARK   11  A    between atoms: O_25  and  C_26
REMARK                            x       y       z     vdW  Elec       q    Type
REMARK                         _______ _______ _______ _____ _____    ______ ____
ROOT
ATOM      1  C   UNL     1       1.310  12.383  18.979  0.00  0.00    +0.000 A 
ATOM      2  C   UNL     1       2.284  13.309  19.005  0.00  0.00    +0.000 A 
ATOM      3  N   UNL     1       1.743  14.579  18.816  0.00  0.00    +0.000 N 
ATOM      4  C   UNL     1       2.508  15.736  18.864  0.00  0.00    +0.000 C 
ATOM      5  C   UNL     1       1.838  17.076  18.668  0.00  0.00    +0.000 C 
ATOM      6  O   UNL     1       3.729  15.705  19.069  0.00  0.00    +0.000 OA
ATOM      7  C   UNL     1       0.334  14.429  18.639  0.00  0.00    +0.000 A 
ATOM      8  O   UNL     1      -0.505  15.292  18.438  0.00  0.00    +0.000 OA
ATOM      9  N   UNL     1       0.102  13.017  18.779  0.00  0.00    +0.000 N 
ENDROOT
BRANCH   1  13
ATOM     10  C   UNL     1       1.724   8.124  19.147  0.00  0.00    +0.000 A 
ATOM     11  C   UNL     1       2.125   8.840  18.018  0.00  0.00    +0.000 A 
ATOM     12  C   UNL     1       2.002  10.232  17.972  0.00  0.00    +0.000 A 
ATOM     13  C   UNL     1       1.465  10.932  19.055  0.00  0.00    +0.000 A 
ATOM     14  C   UNL     1       1.067  10.211  20.189  0.00  0.00    +0.000 A 
ATOM     15  C   UNL     1       1.192   8.812  20.236  0.00  0.00    +0.000 A 
BRANCH  10  17
ATOM     16  C   UNL     1       3.185   6.259  19.078  0.00  0.00    +0.000 C 
ATOM     17  O   UNL     1       1.859   6.770  19.036  0.00  0.00    +0.000 OA
ENDBRANCH  10  17
ENDBRANCH   1  13
BRANCH   9  18
ATOM     18  C   UNL     1      -1.199  12.524  18.856  0.00  0.00    +0.000 A 
ATOM     19  C   UNL     1      -1.742  11.897  17.751  0.00  0.00    +0.000 A 
ATOM     20  C   UNL     1      -3.062  11.455  17.759  0.00  0.00    +0.000 A 
ATOM     21  C   UNL     1      -3.889  11.717  18.879  0.00  0.00    +0.000 A 
ATOM     22  C   UNL     1      -3.343  12.410  19.990  0.00  0.00    +0.000 A 
ATOM     23  C   UNL     1      -1.992  12.767  19.976  0.00  0.00    +0.000 A 
BRANCH  20  24
ATOM     24  O   UNL     1      -3.579  10.778  16.669  0.00  0.00    +0.000 OA
ATOM     25  C   UNL     1      -2.714  10.751  15.528  0.00  0.00    +0.000 C 
ENDBRANCH  20  24
BRANCH  21  26
ATOM     26  O   UNL     1      -5.201  11.326  18.754  0.00  0.00    +0.000 OA
ATOM     27  C   UNL     1      -6.138  12.290  18.286  0.00  0.00    +0.000 C 
ENDBRANCH  21  26
BRANCH  22  28
ATOM     28  O   UNL     1      -4.170  12.764  21.027  0.00  0.00    +0.000 OA
ATOM     29  C   UNL     1      -4.082  14.087  21.546  0.00  0.00    +0.000 C 
ENDBRANCH  22  28
ENDBRANCH   9  18
TORSDOF 6
ENDMDL
MODEL 7
REMARK VINA RESULT:      -5.6      0.293      2.398
REMARK  Name = 
REMARK  11 active torsions:
REMARK  status: ('A' for Active; 'I' for Inactive)
REMARK    1  A    between atoms: C_1  and  O_2
REMARK    2  A    between atoms: O_2  and  C_3
REMARK    3  A    between atoms: C_6  and  C_7
REMARK    4  A    between atoms: C_10  and  C_11
REMARK    5  A    between atoms: N_15  and  C_16
REMARK    6  A    between atoms: C_18  and  O_19
REMARK    7  A    between atoms: O_19  and  C_20
REMARK    8  A    between atoms: C_21  and  O_22
REMARK    9  A    between atoms: O_22  and  C_23
REMARK   10  A    between atoms: C_24  and  O_25
REMARK   11  A    between atoms: O_25  and  C_26
REMARK                            x       y       z     vdW  Elec       q    Type
REMARK                         _______ _______ _______ _____ _____    ______ ____
ROOT
ATOM      1  C   UNL     1       1.080  12.459  19.791  0.00  0.00    +0.000 A 
ATOM      2  C   UNL     1       2.063  13.346  20.028  0.00  0.00    +0.000 A 
ATOM      3  N   UNL     1       1.672  14.617  19.612  0.00  0.00    +0.000 N 
ATOM      4  C   UNL     1       2.463  15.743  19.796  0.00  0.00    +0.000 C 
ATOM      5  C   UNL     1       1.953  17.088  19.333  0.00  0.00    +0.000 C 
ATOM      6  O   UNL     1       3.576  15.681  20.335  0.00  0.00    +0.000 OA
ATOM      7  C   UNL     1       0.360  14.508  19.060  0.00  0.00    +0.000 A 
ATOM      8  O   UNL     1      -0.338  15.386  18.576  0.00  0.00    +0.000 OA
ATOM      9  N   UNL     1       0.015  13.123  19.221  0.00  0.00    +0.000 N 
ENDROOT
BRANCH   1  13
ATOM     10  C   UNL     1       1.250   8.233  20.455  0.00  0.00    +0.000 A 
ATOM     11  C   UNL     1       0.974   9.113  21.502  0.00  0.00    +0.000 A 
ATOM     12  C   UNL     1       0.905  10.491  21.279  0.00  0.00    +0.000 A 
ATOM     13  C   UNL     1       1.121  11.015  20.002  0.00  0.00    +0.000 A 
ATOM     14  C   UNL     1       1.395  10.128  18.951  0.00  0.00    +0.000 A 
ATOM     15  C   UNL     1       1.463   8.742  19.175  0.00  0.00    +0.000 A 
BRANCH  10  17
ATOM     16  C   UNL     1       2.210   6.101  20.064  0.00  0.00    +0.000 C 
ATOM     17  O   UNL     1       1.332   6.921  20.824  0.00  0.00    +0.000 OA
ENDBRANCH  10  17
ENDBRANCH   1  13
BRANCH   9  18
ATOM     18  C   UNL     1      -1.284  12.688  18.965  0.00  0.00    +0.000 A 
ATOM     19  C   UNL     1      -2.220  12.746  19.980  0.00  0.00    +0.000 A 
ATOM     20  C   UNL     1      -3.508  12.255  19.791  0.00  0.00    +0.000 A 
ATOM     21  C   UNL     1      -3.850  11.614  18.575  0.00  0.00    +0.000 A 
ATOM     22  C   UNL     1      -2.869  11.506  17.555  0.00  0.00    +0.000 A 
ATOM     23  C   UNL     1      -1.612  12.082  17.753  0.00  0.00    +0.000 A 
BRANCH  20  24
ATOM     24  O   UNL     1      -4.454  12.370  20.795  0.00  0.00    +0.000 OA
ATOM     25  C   UNL     1      -4.496  13.658  21.420  0.00  0.00    +0.000 C 
ENDBRANCH  20  24
BRANCH  21  26
ATOM     26  O   UNL     1      -5.115  11.078  18.520  0.00  0.00    +0.000 OA
ATOM     27  C   UNL     1      -6.115  11.813  17.824  0.00  0.00    +0.000 C 
ENDBRANCH  21  26
BRANCH  22  28
ATOM     28  O   UNL     1      -3.162  10.788  16.423  0.00  0.00    +0.000 OA
ATOM     29  C   UNL     1      -2.646   9.466  16.304  0.00  0.00    +0.000 C 
ENDBRANCH  22  28
ENDBRANCH   9  18
TORSDOF 6
ENDMDL
MODEL 8
REMARK VINA RESULT:      -5.5      3.256      4.723
REMARK  Name = 
REMARK  11 active torsions:
REMARK  status: ('A' for Active; 'I' for Inactive)
REMARK    1  A    between atoms: C_1  and  O_2
REMARK    2  A    between atoms: O_2  and  C_3
REMARK    3  A    between atoms: C_6  and  C_7
REMARK    4  A    between atoms: C_10  and  C_11
REMARK    5  A    between atoms: N_15  and  C_16
REMARK    6  A    between atoms: C_18  and  O_19
REMARK    7  A    between atoms: O_19  and  C_20
REMARK    8  A    between atoms: C_21  and  O_22
REMARK    9  A    between atoms: O_22  and  C_23
REMARK   10  A    between atoms: C_24  and  O_25
REMARK   11  A    between atoms: O_25  and  C_26
REMARK                            x       y       z     vdW  Elec       q    Type
REMARK                         _______ _______ _______ _____ _____    ______ ____
ROOT
ATOM      1  C   UNL     1      -1.737  13.448  23.086  0.00  0.00    +0.000 A 
ATOM      2  C   UNL     1      -1.356  14.299  24.055  0.00  0.00    +0.000 A 
ATOM      3  N   UNL     1      -2.232  15.380  24.116  0.00  0.00    +0.000 N 
ATOM      4  C   UNL     1      -2.123  16.383  25.069  0.00  0.00    +0.000 C 
ATOM      5  C   UNL     1      -3.129  17.510  25.077  0.00  0.00    +0.000 C 
ATOM      6  O   UNL     1      -1.225  16.380  25.922  0.00  0.00    +0.000 OA
ATOM      7  C   UNL     1      -3.217  15.198  23.098  0.00  0.00    +0.000 A 
ATOM      8  O   UNL     1      -4.157  15.921  22.810  0.00  0.00    +0.000 OA
ATOM      9  N   UNL     1      -2.876  13.942  22.488  0.00  0.00    +0.000 N 
ENDROOT
BRANCH   1  13
ATOM     10  C   UNL     1       0.269   9.916  21.732  0.00  0.00    +0.000 A 
ATOM     11  C   UNL     1       0.519  11.155  21.140  0.00  0.00    +0.000 A 
ATOM     12  C   UNL     1      -0.126  12.308  21.594  0.00  0.00    +0.000 A 
ATOM     13  C   UNL     1      -1.044  12.240  22.646  0.00  0.00    +0.000 A 
ATOM     14  C   UNL     1      -1.290  10.995  23.241  0.00  0.00    +0.000 A 
ATOM     15  C   UNL     1      -0.640   9.835  22.785  0.00  0.00    +0.000 A 
BRANCH  10  17
ATOM     16  C   UNL     1       1.296   9.020  19.792  0.00  0.00    +0.000 C 
ATOM     17  O   UNL     1       0.934   8.870  21.159  0.00  0.00    +0.000 OA
ENDBRANCH  10  17
ENDBRANCH   1  13
BRANCH   9  18
ATOM     18  C   UNL     1      -3.744  13.347  21.574  0.00  0.00    +0.000 A 
ATOM     19  C   UNL     1      -4.981  12.915  22.011  0.00  0.00    +0.000 A 
ATOM     20  C   UNL     1      -5.849  12.250  21.150  0.00  0.00    +0.000 A 
ATOM     21  C   UNL     1      -5.437  11.937  19.831  0.00  0.00    +0.000 A 
ATOM     22  C   UNL     1      -4.143  12.334  19.404  0.00  0.00    +0.000 A 
ATOM     23  C   UNL     1      -3.332  13.069  20.271  0.00  0.00    +0.000 A 
BRANCH  20  24
ATOM     24  O   UNL     1      -7.108  11.871  21.582  0.00  0.00    +0.000 OA
ATOM     25  C   UNL     1      -7.350  12.110  22.973  0.00  0.00    +0.000 C 
ENDBRANCH  20  24
BRANCH  21  26
ATOM     26  O   UNL     1      -6.326  11.196  19.090  0.00  0.00    +0.000 OA
ATOM     27  C   UNL     1      -7.132  11.886  18.141  0.00  0.00    +0.000 C 
ENDBRANCH  21  26
BRANCH  22  28
ATOM     28  O   UNL     1      -3.699  11.935  18.167  0.00  0.00    +0.000 OA
ATOM     29  C   UNL     1      -2.392  11.382  18.061  0.00  0.00    +0.000 C 
ENDBRANCH  22  28
ENDBRANCH   9  18
TORSDOF 6
ENDMDL
MODEL 9
REMARK VINA RESULT:      -5.5      2.892      3.605
REMARK  Name = 
REMARK  11 active torsions:
REMARK  status: ('A' for Active; 'I' for Inactive)
REMARK    1  A    between atoms: C_1  and  O_2
REMARK    2  A    between atoms: O_2  and  C_3
REMARK    3  A    between atoms: C_6  and  C_7
REMARK    4  A    between atoms: C_10  and  C_11
REMARK    5  A    between atoms: N_15  and  C_16
REMARK    6  A    between atoms: C_18  and  O_19
REMARK    7  A    between atoms: O_19  and  C_20
REMARK    8  A    between atoms: C_21  and  O_22
REMARK    9  A    between atoms: O_22  and  C_23
REMARK   10  A    between atoms: C_24  and  O_25
REMARK   11  A    between atoms: O_25  and  C_26
REMARK                            x       y       z     vdW  Elec       q    Type
REMARK                         _______ _______ _______ _____ _____    ______ ____
ROOT
ATOM      1  C   UNL     1      -1.266  13.640  22.205  0.00  0.00    +0.000 A 
ATOM      2  C   UNL     1      -0.533  14.673  22.657  0.00  0.00    +0.000 A 
ATOM      3  N   UNL     1      -1.252  15.860  22.538  0.00  0.00    +0.000 N 
ATOM      4  C   UNL     1      -0.768  17.080  22.990  0.00  0.00    +0.000 C 
ATOM      5  C   UNL     1      -1.623  18.316  22.841  0.00  0.00    +0.000 C 
ATOM      6  O   UNL     1       0.346  17.186  23.520  0.00  0.00    +0.000 OA
ATOM      7  C   UNL     1      -2.516  15.544  21.953  0.00  0.00    +0.000 A 
ATOM      8  O   UNL     1      -3.435  16.298  21.672  0.00  0.00    +0.000 OA
ATOM      9  N   UNL     1      -2.489  14.117  21.785  0.00  0.00    +0.000 N 
ENDROOT
BRANCH   1  13
ATOM     10  C   UNL     1      -0.081   9.548  21.779  0.00  0.00    +0.000 A 
ATOM     11  C   UNL     1       0.166  10.476  20.766  0.00  0.00    +0.000 A 
ATOM     12  C   UNL     1      -0.209  11.814  20.915  0.00  0.00    +0.000 A 
ATOM     13  C   UNL     1      -0.848  12.246  22.079  0.00  0.00    +0.000 A 
ATOM     14  C   UNL     1      -1.092  11.313  23.097  0.00  0.00    +0.000 A 
ATOM     15  C   UNL     1      -0.713   9.967  22.948  0.00  0.00    +0.000 A 
BRANCH  10  17
ATOM     16  C   UNL     1       1.485   8.122  20.715  0.00  0.00    +0.000 C 
ATOM     17  O   UNL     1       0.297   8.270  21.481  0.00  0.00    +0.000 OA
ENDBRANCH  10  17
ENDBRANCH   1  13
BRANCH   9  18
ATOM     18  C   UNL     1      -3.644  13.432  21.413  0.00  0.00    +0.000 A 
ATOM     19  C   UNL     1      -3.742  12.937  20.127  0.00  0.00    +0.000 A 
ATOM     20  C   UNL     1      -4.905  12.311  19.690  0.00  0.00    +0.000 A 
ATOM     21  C   UNL     1      -6.037  12.248  20.540  0.00  0.00    +0.000 A 
ATOM     22  C   UNL     1      -5.951  12.808  21.841  0.00  0.00    +0.000 A 
ATOM     23  C   UNL     1      -4.740  13.356  22.271  0.00  0.00    +0.000 A 
BRANCH  20  24
ATOM     24  O   UNL     1      -4.972  11.768  18.419  0.00  0.00    +0.000 OA
ATOM     25  C   UNL     1      -3.724  11.270  17.925  0.00  0.00    +0.000 C 
ENDBRANCH  20  24
BRANCH  21  26
ATOM     26  O   UNL     1      -7.168  11.696  19.986  0.00  0.00    +0.000 OA
ATOM     27  C   UNL     1      -7.486  10.353  20.331  0.00  0.00    +0.000 C 
ENDBRANCH  21  26
BRANCH  22  28
ATOM     28  O   UNL     1      -7.078  12.848  22.624  0.00  0.00    +0.000 OA
ATOM     29  C   UNL     1      -6.948  12.578  24.016  0.00  0.00    +0.000 C 
ENDBRANCH  22  28
ENDBRANCH   9  18
TORSDOF 6
ENDMDL
