MODEL 1
REMARK VINA RESULT:      -6.7      0.000      0.000
REMARK  Name = 
REMARK  10 active torsions:
REMARK  status: ('A' for Active; 'I' for Inactive)
REMARK    1  A    between atoms: C_7  and  O_8
REMARK    2  A    between atoms: C_9  and  O_10
REMARK    3  A    between atoms: C_11  and  O_12
REMARK    4  A    between atoms: O_12  and  C_13
REMARK    5  A    between atoms: C_15  and  C_16
REMARK    6  A    between atoms: C_16  and  O_17
REMARK    7  A    between atoms: C_18  and  O_19
REMARK    8  A    between atoms: C_20  and  O_21
REMARK    9  A    between atoms: C_22  and  O_23
REMARK   10  A    between atoms: C_28  and  O_29
REMARK                            x       y       z     vdW  Elec       q    Type
REMARK                         _______ _______ _______ _____ _____    ______ ____
ROOT
ATOM      1  O   UNL     1      -3.224  11.444  16.302  0.00  0.00    +0.000 OA
ATOM      2  C   UNL     1      -2.864  11.751  17.430  0.00  0.00    +0.000 C 
ATOM      3  N   UNL     1      -1.571  12.170  17.618  0.00  0.00    +0.000 N 
ATOM      4  C   UNL     1      -0.917  12.200  18.916  0.00  0.00    +0.000 C 
ATOM      5  C   UNL     1      -1.866  12.867  19.889  0.00  0.00    +0.000 C 
ATOM      6  C   UNL     1      -1.433  13.742  20.801  0.00  0.00    +0.000 C 
ATOM      7  C   UNL     1      -0.004  14.131  20.985  0.00  0.00    +0.000 C 
ATOM      8  C   UNL     1       0.980  13.810  19.841  0.00  0.00    +0.000 C 
ATOM      9  C   UNL     1       0.515  12.816  18.750  0.00  0.00    +0.000 C 
ATOM     10  C   UNL     1      -3.308  12.455  19.792  0.00  0.00    +0.000 A 
ATOM     11  C   UNL     1      -4.240  12.687  20.836  0.00  0.00    +0.000 A 
ATOM     12  C   UNL     1      -5.553  12.300  20.655  0.00  0.00    +0.000 A 
ATOM     13  C   UNL     1      -5.958  11.614  19.539  0.00  0.00    +0.000 A 
ATOM     14  C   UNL     1      -5.082  11.321  18.517  0.00  0.00    +0.000 A 
ATOM     15  C   UNL     1      -3.764  11.797  18.612  0.00  0.00    +0.000 A 
ATOM     16  O   UNL     1      -7.291  11.326  19.557  0.00  0.00    +0.000 OA
ATOM     17  C   UNL     1      -7.705  12.157  20.662  0.00  0.00    +0.000 C 
ATOM     18  O   UNL     1      -6.593  12.551  21.496  0.00  0.00    +0.000 OA
ATOM     19  H   UNL     1      -1.007  12.029  16.789  0.00  0.00    +0.000 HD
ENDROOT
BRANCH   7  20
ATOM     20  O   UNL     1      -0.001  15.539  21.241  0.00  0.00    +0.000 OA
ATOM     21  H   UNL     1       0.881  15.779  21.577  0.00  0.00    +0.000 HD
ENDBRANCH   7  20
BRANCH   8  22
ATOM     22  O   UNL     1       2.253  13.428  20.401  0.00  0.00    +0.000 OA
ATOM     23  H   UNL     1       2.462  12.536  20.064  0.00  0.00    +0.000 HD
ENDBRANCH   8  22
BRANCH  14  24
ATOM     24  O   UNL     1      -5.551  10.614  17.449  0.00  0.00    +0.000 OA
ATOM     25  H   UNL     1      -6.231   9.996  17.775  0.00  0.00    +0.000 HD
ENDBRANCH  14  24
BRANCH   9  26
ATOM     26  O   UNL     1       1.454  11.725  18.578  0.00  0.00    +0.000 OA
BRANCH  26  27
ATOM     27  C   UNL     1       0.985  10.432  19.019  0.00  0.00    +0.000 C 
ATOM     28  O   UNL     1       0.982  10.410  20.446  0.00  0.00    +0.000 OA
ATOM     29  C   UNL     1       0.754   9.128  21.052  0.00  0.00    +0.000 C 
ATOM     30  C   UNL     1       1.807   8.111  20.602  0.00  0.00    +0.000 C 
ATOM     31  C   UNL     1       1.736   7.993  19.076  0.00  0.00    +0.000 C 
ATOM     32  C   UNL     1       1.949   9.368  18.425  0.00  0.00    +0.000 C 
BRANCH  30  33
ATOM     33  O   UNL     1       1.603   6.848  21.237  0.00  0.00    +0.000 OA
ATOM     34  H   UNL     1       2.251   6.734  21.954  0.00  0.00    +0.000 HD
ENDBRANCH  30  33
BRANCH  31  35
ATOM     35  O   UNL     1       2.690   7.044  18.588  0.00  0.00    +0.000 OA
ATOM     36  H   UNL     1       3.578   7.445  18.634  0.00  0.00    +0.000 HD
ENDBRANCH  31  35
BRANCH  32  37
ATOM     37  O   UNL     1       1.790   9.288  16.997  0.00  0.00    +0.000 OA
ATOM     38  H   UNL     1       2.574   9.683  16.573  0.00  0.00    +0.000 HD
ENDBRANCH  32  37
BRANCH  29  39
ATOM     39  C   UNL     1       0.804   9.340  22.574  0.00  0.00    +0.000 C 
BRANCH  39  40
ATOM     40  O   UNL     1       2.151   9.340  23.055  0.00  0.00    +0.000 OA
ATOM     41  H   UNL     1       2.136   9.492  24.015  0.00  0.00    +0.000 HD
ENDBRANCH  39  40
ENDBRANCH  29  39
ENDBRANCH  26  27
ENDBRANCH   9  26
TORSDOF 10
ENDMDL
MODEL 2
REMARK VINA RESULT:      -6.7      3.713      7.593
REMARK  Name = 
REMARK  10 active torsions:
REMARK  status: ('A' for Active; 'I' for Inactive)
REMARK    1  A    between atoms: C_7  and  O_8
REMARK    2  A    between atoms: C_9  and  O_10
REMARK    3  A    between atoms: C_11  and  O_12
REMARK    4  A    between atoms: O_12  and  C_13
REMARK    5  A    between atoms: C_15  and  C_16
REMARK    6  A    between atoms: C_16  and  O_17
REMARK    7  A    between atoms: C_18  and  O_19
REMARK    8  A    between atoms: C_20  and  O_21
REMARK    9  A    between atoms: C_22  and  O_23
REMARK   10  A    between atoms: C_28  and  O_29
REMARK                            x       y       z     vdW  Elec       q    Type
REMARK                         _______ _______ _______ _____ _____    ______ ____
ROOT
ATOM      1  O   UNL     1       1.870   9.866  17.385  0.00  0.00    +0.000 OA
ATOM      2  C   UNL     1       1.640   9.734  18.579  0.00  0.00    +0.000 C 
ATOM      3  N   UNL     1       1.060  10.776  19.258  0.00  0.00    +0.000 N 
ATOM      4  C   UNL     1       1.079  10.901  20.705  0.00  0.00    +0.000 C 
ATOM      5  C   UNL     1       0.669   9.563  21.283  0.00  0.00    +0.000 C 
ATOM      6  C   UNL     1      -0.154   9.476  22.333  0.00  0.00    +0.000 C 
ATOM      7  C   UNL     1      -0.725  10.650  23.057  0.00  0.00    +0.000 C 
ATOM      8  C   UNL     1      -0.678  12.020  22.351  0.00  0.00    +0.000 C 
ATOM      9  C   UNL     1       0.247  12.164  21.118  0.00  0.00    +0.000 C 
ATOM     10  C   UNL     1       1.273   8.350  20.634  0.00  0.00    +0.000 A 
ATOM     11  C   UNL     1       1.296   7.079  21.262  0.00  0.00    +0.000 A 
ATOM     12  C   UNL     1       1.848   6.010  20.585  0.00  0.00    +0.000 A 
ATOM     13  C   UNL     1       2.458   6.164  19.366  0.00  0.00    +0.000 A 
ATOM     14  C   UNL     1       2.505   7.386  18.734  0.00  0.00    +0.000 A 
ATOM     15  C   UNL     1       1.856   8.474  19.339  0.00  0.00    +0.000 A 
ATOM     16  O   UNL     1       2.938   4.987  18.870  0.00  0.00    +0.000 OA
ATOM     17  C   UNL     1       2.302   4.062  19.779  0.00  0.00    +0.000 C 
ATOM     18  O   UNL     1       1.845   4.710  20.986  0.00  0.00    +0.000 OA
ATOM     19  H   UNL     1       1.026  11.617  18.694  0.00  0.00    +0.000 HD
ENDROOT
BRANCH   7  20
ATOM     20  O   UNL     1      -2.081  10.313  23.363  0.00  0.00    +0.000 OA
ATOM     21  H   UNL     1      -2.640  10.626  22.630  0.00  0.00    +0.000 HD
ENDBRANCH   7  20
BRANCH   8  22
ATOM     22  O   UNL     1      -0.427  13.052  23.327  0.00  0.00    +0.000 OA
ATOM     23  H   UNL     1      -0.311  12.611  24.190  0.00  0.00    +0.000 HD
ENDBRANCH   8  22
BRANCH  14  24
ATOM     24  O   UNL     1       3.151   7.467  17.535  0.00  0.00    +0.000 OA
ATOM     25  H   UNL     1       2.947   8.335  17.143  0.00  0.00    +0.000 HD
ENDBRANCH  14  24
BRANCH   9  26
ATOM     26  O   UNL     1       1.163  13.278  21.258  0.00  0.00    +0.000 OA
BRANCH  26  27
ATOM     27  C   UNL     1       0.957  14.365  20.329  0.00  0.00    +0.000 C 
ATOM     28  O   UNL     1       2.052  14.399  19.414  0.00  0.00    +0.000 OA
ATOM     29  C   UNL     1       2.121  15.551  18.561  0.00  0.00    +0.000 C 
ATOM     30  C   UNL     1       2.199  16.841  19.383  0.00  0.00    +0.000 C 
ATOM     31  C   UNL     1       0.954  16.917  20.272  0.00  0.00    +0.000 C 
ATOM     32  C   UNL     1       0.860  15.671  21.165  0.00  0.00    +0.000 C 
BRANCH  30  33
ATOM     33  O   UNL     1       2.308  17.984  18.533  0.00  0.00    +0.000 OA
ATOM     34  H   UNL     1       1.701  17.888  17.777  0.00  0.00    +0.000 HD
ENDBRANCH  30  33
BRANCH  31  35
ATOM     35  O   UNL     1       0.957  18.112  21.062  0.00  0.00    +0.000 OA
ATOM     36  H   UNL     1       1.274  17.891  21.958  0.00  0.00    +0.000 HD
ENDBRANCH  31  35
BRANCH  32  37
ATOM     37  O   UNL     1      -0.354  15.685  21.937  0.00  0.00    +0.000 OA
ATOM     38  H   UNL     1      -0.507  16.590  22.263  0.00  0.00    +0.000 HD
ENDBRANCH  32  37
BRANCH  29  39
ATOM     39  C   UNL     1       3.369  15.380  17.680  0.00  0.00    +0.000 C 
BRANCH  39  40
ATOM     40  O   UNL     1       3.930  14.072  17.821  0.00  0.00    +0.000 OA
ATOM     41  H   UNL     1       4.753  14.142  18.332  0.00  0.00    +0.000 HD
ENDBRANCH  39  40
ENDBRANCH  29  39
ENDBRANCH  26  27
ENDBRANCH   9  26
TORSDOF 10
ENDMDL
MODEL 3
REMARK VINA RESULT:      -6.7      1.848      7.310
REMARK  Name = 
REMARK  10 active torsions:
REMARK  status: ('A' for Active; 'I' for Inactive)
REMARK    1  A    between atoms: C_7  and  O_8
REMARK    2  A    between atoms: C_9  and  O_10
REMARK    3  A    between atoms: C_11  and  O_12
REMARK    4  A    between atoms: O_12  and  C_13
REMARK    5  A    between atoms: C_15  and  C_16
REMARK    6  A    between atoms: C_16  and  O_17
REMARK    7  A    between atoms: C_18  and  O_19
REMARK    8  A    between atoms: C_20  and  O_21
REMARK    9  A    between atoms: C_22  and  O_23
REMARK   10  A    between atoms: C_28  and  O_29
REMARK                            x       y       z     vdW  Elec       q    Type
REMARK                         _______ _______ _______ _____ _____    ______ ____
ROOT
ATOM      1  O   UNL     1      -0.007  10.224  23.221  0.00  0.00    +0.000 OA
ATOM      2  C   UNL     1      -0.209  10.809  22.166  0.00  0.00    +0.000 C 
ATOM      3  N   UNL     1      -0.802  12.046  22.201  0.00  0.00    +0.000 N 
ATOM      4  C   UNL     1      -1.429  12.669  21.048  0.00  0.00    +0.000 C 
ATOM      5  C   UNL     1      -0.468  12.545  19.884  0.00  0.00    +0.000 C 
ATOM      6  C   UNL     1      -0.273  13.552  19.027  0.00  0.00    +0.000 C 
ATOM      7  C   UNL     1      -0.978  14.865  19.093  0.00  0.00    +0.000 C 
ATOM      8  C   UNL     1      -1.684  15.234  20.414  0.00  0.00    +0.000 C 
ATOM      9  C   UNL     1      -1.916  14.105  21.446  0.00  0.00    +0.000 C 
ATOM     10  C   UNL     1       0.215  11.216  19.731  0.00  0.00    +0.000 A 
ATOM     11  C   UNL     1       0.838  10.811  18.522  0.00  0.00    +0.000 A 
ATOM     12  C   UNL     1       1.466   9.583  18.474  0.00  0.00    +0.000 A 
ATOM     13  C   UNL     1       1.422   8.707  19.528  0.00  0.00    +0.000 A 
ATOM     14  C   UNL     1       0.789   9.030  20.708  0.00  0.00    +0.000 A 
ATOM     15  C   UNL     1       0.236  10.315  20.836  0.00  0.00    +0.000 A 
ATOM     16  O   UNL     1       2.103   7.552  19.276  0.00  0.00    +0.000 OA
ATOM     17  C   UNL     1       2.803   7.939  18.075  0.00  0.00    +0.000 C 
ATOM     18  O   UNL     1       2.209   9.095  17.444  0.00  0.00    +0.000 OA
ATOM     19  H   UNL     1      -1.148  12.269  23.126  0.00  0.00    +0.000 HD
ENDROOT
BRANCH   7  20
ATOM     20  O   UNL     1      -0.002  15.862  18.775  0.00  0.00    +0.000 OA
ATOM     21  H   UNL     1       0.862  15.421  18.701  0.00  0.00    +0.000 HD
ENDBRANCH   7  20
BRANCH   8  22
ATOM     22  O   UNL     1      -2.905  15.944  20.120  0.00  0.00    +0.000 OA
ATOM     23  H   UNL     1      -2.696  16.605  19.433  0.00  0.00    +0.000 HD
ENDBRANCH   8  22
BRANCH  14  24
ATOM     24  O   UNL     1       0.765   8.097  21.702  0.00  0.00    +0.000 OA
ATOM     25  H   UNL     1       0.796   8.568  22.555  0.00  0.00    +0.000 HD
ENDBRANCH  14  24
BRANCH   9  26
ATOM     26  O   UNL     1      -3.307  14.013  21.843  0.00  0.00    +0.000 OA
BRANCH  26  27
ATOM     27  C   UNL     1      -4.023  12.872  21.319  0.00  0.00    +0.000 C 
ATOM     28  O   UNL     1      -4.305  13.105  19.939  0.00  0.00    +0.000 OA
ATOM     29  C   UNL     1      -5.202  12.172  19.317  0.00  0.00    +0.000 C 
ATOM     30  C   UNL     1      -6.552  12.142  20.039  0.00  0.00    +0.000 C 
ATOM     31  C   UNL     1      -6.305  11.743  21.498  0.00  0.00    +0.000 C 
ATOM     32  C   UNL     1      -5.321  12.721  22.158  0.00  0.00    +0.000 C 
BRANCH  30  33
ATOM     33  O   UNL     1      -7.457  11.243  19.396  0.00  0.00    +0.000 OA
ATOM     34  H   UNL     1      -8.339  11.651  19.342  0.00  0.00    +0.000 HD
ENDBRANCH  30  33
BRANCH  31  35
ATOM     35  O   UNL     1      -7.534  11.683  22.231  0.00  0.00    +0.000 OA
ATOM     36  H   UNL     1      -8.056  12.481  22.028  0.00  0.00    +0.000 HD
ENDBRANCH  31  35
BRANCH  32  37
ATOM     37  O   UNL     1      -5.007  12.304  23.499  0.00  0.00    +0.000 OA
ATOM     38  H   UNL     1      -5.178  13.048  24.106  0.00  0.00    +0.000 HD
ENDBRANCH  32  37
BRANCH  29  39
ATOM     39  C   UNL     1      -5.366  12.619  17.855  0.00  0.00    +0.000 C 
BRANCH  39  40
ATOM     40  O   UNL     1      -5.722  11.519  17.012  0.00  0.00    +0.000 OA
ATOM     41  H   UNL     1      -5.036  11.416  16.333  0.00  0.00    +0.000 HD
ENDBRANCH  39  40
ENDBRANCH  29  39
ENDBRANCH  26  27
ENDBRANCH   9  26
TORSDOF 10
ENDMDL
MODEL 4
REMARK VINA RESULT:      -6.6      2.282      7.429
REMARK  Name = 
REMARK  10 active torsions:
REMARK  status: ('A' for Active; 'I' for Inactive)
REMARK    1  A    between atoms: C_7  and  O_8
REMARK    2  A    between atoms: C_9  and  O_10
REMARK    3  A    between atoms: C_11  and  O_12
REMARK    4  A    between atoms: O_12  and  C_13
REMARK    5  A    between atoms: C_15  and  C_16
REMARK    6  A    between atoms: C_16  and  O_17
REMARK    7  A    between atoms: C_18  and  O_19
REMARK    8  A    between atoms: C_20  and  O_21
REMARK    9  A    between atoms: C_22  and  O_23
REMARK   10  A    between atoms: C_28  and  O_29
REMARK                            x       y       z     vdW  Elec       q    Type
REMARK                         _______ _______ _______ _____ _____    ______ ____
ROOT
ATOM      1  O   UNL     1      -0.346  10.743  23.211  0.00  0.00    +0.000 OA
ATOM      2  C   UNL     1      -0.455  11.356  22.158  0.00  0.00    +0.000 C 
ATOM      3  N   UNL     1      -0.959  12.633  22.187  0.00  0.00    +0.000 N 
ATOM      4  C   UNL     1      -1.484  13.315  21.017  0.00  0.00    +0.000 C 
ATOM      5  C   UNL     1      -0.480  13.139  19.897  0.00  0.00    +0.000 C 
ATOM      6  C   UNL     1      -0.173  14.141  19.068  0.00  0.00    +0.000 C 
ATOM      7  C   UNL     1      -0.785  15.500  19.124  0.00  0.00    +0.000 C 
ATOM      8  C   UNL     1      -1.526  15.901  20.417  0.00  0.00    +0.000 C 
ATOM      9  C   UNL     1      -1.886  14.777  21.417  0.00  0.00    +0.000 C 
ATOM     10  C   UNL     1       0.114  11.766  19.753  0.00  0.00    +0.000 A 
ATOM     11  C   UNL     1       0.763  11.335  18.568  0.00  0.00    +0.000 A 
ATOM     12  C   UNL     1       1.304  10.066  18.528  0.00  0.00    +0.000 A 
ATOM     13  C   UNL     1       1.147   9.180  19.563  0.00  0.00    +0.000 A 
ATOM     14  C   UNL     1       0.483   9.531  20.717  0.00  0.00    +0.000 A 
ATOM     15  C   UNL     1       0.017  10.850  20.842  0.00  0.00    +0.000 A 
ATOM     16  O   UNL     1       1.756   7.983  19.323  0.00  0.00    +0.000 OA
ATOM     17  C   UNL     1       2.538   8.336  18.162  0.00  0.00    +0.000 C 
ATOM     18  O   UNL     1       2.058   9.540  17.524  0.00  0.00    +0.000 OA
ATOM     19  H   UNL     1      -1.332  12.867  23.099  0.00  0.00    +0.000 HD
ENDROOT
BRANCH   7  20
ATOM     20  O   UNL     1       0.273  16.429  18.870  0.00  0.00    +0.000 OA
ATOM     21  H   UNL     1       0.407  16.473  17.907  0.00  0.00    +0.000 HD
ENDBRANCH   7  20
BRANCH   8  22
ATOM     22  O   UNL     1      -2.677  16.701  20.078  0.00  0.00    +0.000 OA
ATOM     23  H   UNL     1      -3.078  16.308  19.280  0.00  0.00    +0.000 HD
ENDBRANCH   8  22
BRANCH  14  24
ATOM     24  O   UNL     1       0.345   8.589  21.693  0.00  0.00    +0.000 OA
ATOM     25  H   UNL     1      -0.595   8.334  21.731  0.00  0.00    +0.000 HD
ENDBRANCH  14  24
BRANCH   9  26
ATOM     26  O   UNL     1      -3.298  14.779  21.746  0.00  0.00    +0.000 OA
BRANCH  26  27
ATOM     27  C   UNL     1      -4.098  13.809  21.035  0.00  0.00    +0.000 C 
ATOM     28  O   UNL     1      -4.908  14.496  20.082  0.00  0.00    +0.000 OA
ATOM     29  C   UNL     1      -5.924  13.710  19.441  0.00  0.00    +0.000 C 
ATOM     30  C   UNL     1      -6.882  13.103  20.471  0.00  0.00    +0.000 C 
ATOM     31  C   UNL     1      -6.064  12.229  21.427  0.00  0.00    +0.000 C 
ATOM     32  C   UNL     1      -4.956  13.060  22.092  0.00  0.00    +0.000 C 
BRANCH  30  33
ATOM     33  O   UNL     1      -7.916  12.355  19.830  0.00  0.00    +0.000 OA
ATOM     34  H   UNL     1      -8.782  12.627  20.181  0.00  0.00    +0.000 HD
ENDBRANCH  30  33
BRANCH  31  35
ATOM     35  O   UNL     1      -6.905  11.618  22.413  0.00  0.00    +0.000 OA
ATOM     36  H   UNL     1      -7.275  12.318  22.983  0.00  0.00    +0.000 HD
ENDBRANCH  31  35
BRANCH  32  37
ATOM     37  O   UNL     1      -4.122  12.230  22.921  0.00  0.00    +0.000 OA
ATOM     38  H   UNL     1      -4.174  12.552  23.839  0.00  0.00    +0.000 HD
ENDBRANCH  32  37
BRANCH  29  39
ATOM     39  C   UNL     1      -6.670  14.646  18.476  0.00  0.00    +0.000 C 
BRANCH  39  40
ATOM     40  O   UNL     1      -7.372  13.907  17.472  0.00  0.00    +0.000 OA
ATOM     41  H   UNL     1      -6.893  13.998  16.631  0.00  0.00    +0.000 HD
ENDBRANCH  39  40
ENDBRANCH  29  39
ENDBRANCH  26  27
ENDBRANCH   9  26
TORSDOF 10
ENDMDL
MODEL 5
REMARK VINA RESULT:      -6.6      2.786      6.950
REMARK  Name = 
REMARK  10 active torsions:
REMARK  status: ('A' for Active; 'I' for Inactive)
REMARK    1  A    between atoms: C_7  and  O_8
REMARK    2  A    between atoms: C_9  and  O_10
REMARK    3  A    between atoms: C_11  and  O_12
REMARK    4  A    between atoms: O_12  and  C_13
REMARK    5  A    between atoms: C_15  and  C_16
REMARK    6  A    between atoms: C_16  and  O_17
REMARK    7  A    between atoms: C_18  and  O_19
REMARK    8  A    between atoms: C_20  and  O_21
REMARK    9  A    between atoms: C_22  and  O_23
REMARK   10  A    between atoms: C_28  and  O_29
REMARK                            x       y       z     vdW  Elec       q    Type
REMARK                         _______ _______ _______ _____ _____    ______ ____
ROOT
ATOM      1  O   UNL     1      -6.078  12.215  19.759  0.00  0.00    +0.000 OA
ATOM      2  C   UNL     1      -4.862  12.309  19.664  0.00  0.00    +0.000 C 
ATOM      3  N   UNL     1      -4.140  12.666  20.775  0.00  0.00    +0.000 N 
ATOM      4  C   UNL     1      -2.779  13.171  20.720  0.00  0.00    +0.000 C 
ATOM      5  C   UNL     1      -1.988  12.252  19.814  0.00  0.00    +0.000 C 
ATOM      6  C   UNL     1      -0.740  11.878  20.113  0.00  0.00    +0.000 C 
ATOM      7  C   UNL     1       0.011  12.331  21.321  0.00  0.00    +0.000 C 
ATOM      8  C   UNL     1      -0.799  12.956  22.476  0.00  0.00    +0.000 C 
ATOM      9  C   UNL     1      -2.256  13.387  22.182  0.00  0.00    +0.000 C 
ATOM     10  C   UNL     1      -2.673  11.822  18.548  0.00  0.00    +0.000 A 
ATOM     11  C   UNL     1      -1.967  11.286  17.441  0.00  0.00    +0.000 A 
ATOM     12  C   UNL     1      -2.676  10.892  16.324  0.00  0.00    +0.000 A 
ATOM     13  C   UNL     1      -4.029  11.094  16.219  0.00  0.00    +0.000 A 
ATOM     14  C   UNL     1      -4.755  11.654  17.246  0.00  0.00    +0.000 A 
ATOM     15  C   UNL     1      -4.088  11.964  18.442  0.00  0.00    +0.000 A 
ATOM     16  O   UNL     1      -4.536  10.634  15.039  0.00  0.00    +0.000 OA
ATOM     17  C   UNL     1      -3.401   9.878  14.565  0.00  0.00    +0.000 C 
ATOM     18  O   UNL     1      -2.176  10.253  15.232  0.00  0.00    +0.000 OA
ATOM     19  H   UNL     1      -4.742  12.963  21.533  0.00  0.00    +0.000 HD
ENDROOT
BRANCH   7  20
ATOM     20  O   UNL     1       0.729  11.191  21.800  0.00  0.00    +0.000 OA
ATOM     21  H   UNL     1       0.217  10.396  21.569  0.00  0.00    +0.000 HD
ENDBRANCH   7  20
BRANCH   8  22
ATOM     22  O   UNL     1      -0.036  14.027  23.068  0.00  0.00    +0.000 OA
ATOM     23  H   UNL     1       0.297  13.704  23.927  0.00  0.00    +0.000 HD
ENDBRANCH   8  22
BRANCH  14  24
ATOM     24  O   UNL     1      -6.093  11.846  17.059  0.00  0.00    +0.000 OA
ATOM     25  H   UNL     1      -6.553  11.030  17.327  0.00  0.00    +0.000 HD
ENDBRANCH  14  24
BRANCH   9  26
ATOM     26  O   UNL     1      -2.492  14.771  22.543  0.00  0.00    +0.000 OA
BRANCH  26  27
ATOM     27  C   UNL     1      -3.676  15.008  23.337  0.00  0.00    +0.000 C 
ATOM     28  O   UNL     1      -4.420  13.793  23.420  0.00  0.00    +0.000 OA
ATOM     29  C   UNL     1      -5.735  13.902  23.987  0.00  0.00    +0.000 C 
ATOM     30  C   UNL     1      -6.597  14.888  23.193  0.00  0.00    +0.000 C 
ATOM     31  C   UNL     1      -5.900  16.253  23.211  0.00  0.00    +0.000 C 
ATOM     32  C   UNL     1      -4.481  16.135  22.634  0.00  0.00    +0.000 C 
BRANCH  30  33
ATOM     33  O   UNL     1      -7.917  14.965  23.734  0.00  0.00    +0.000 OA
ATOM     34  H   UNL     1      -7.869  15.005  24.705  0.00  0.00    +0.000 HD
ENDBRANCH  30  33
BRANCH  31  35
ATOM     35  O   UNL     1      -6.663  17.230  22.494  0.00  0.00    +0.000 OA
ATOM     36  H   UNL     1      -6.046  17.822  22.024  0.00  0.00    +0.000 HD
ENDBRANCH  31  35
BRANCH  32  37
ATOM     37  O   UNL     1      -3.783  17.389  22.732  0.00  0.00    +0.000 OA
ATOM     38  H   UNL     1      -3.232  17.503  21.937  0.00  0.00    +0.000 HD
ENDBRANCH  32  37
BRANCH  29  39
ATOM     39  C   UNL     1      -6.347  12.491  23.967  0.00  0.00    +0.000 C 
BRANCH  39  40
ATOM     40  O   UNL     1      -6.765  12.125  22.649  0.00  0.00    +0.000 OA
ATOM     41  H   UNL     1      -7.733  12.193  22.602  0.00  0.00    +0.000 HD
ENDBRANCH  39  40
ENDBRANCH  29  39
ENDBRANCH  26  27
ENDBRANCH   9  26
TORSDOF 10
ENDMDL
MODEL 6
REMARK VINA RESULT:      -6.6      3.899      8.004
REMARK  Name = 
REMARK  10 active torsions:
REMARK  status: ('A' for Active; 'I' for Inactive)
REMARK    1  A    between atoms: C_7  and  O_8
REMARK    2  A    between atoms: C_9  and  O_10
REMARK    3  A    between atoms: C_11  and  O_12
REMARK    4  A    between atoms: O_12  and  C_13
REMARK    5  A    between atoms: C_15  and  C_16
REMARK    6  A    between atoms: C_16  and  O_17
REMARK    7  A    between atoms: C_18  and  O_19
REMARK    8  A    between atoms: C_20  and  O_21
REMARK    9  A    between atoms: C_22  and  O_23
REMARK   10  A    between atoms: C_28  and  O_29
REMARK                            x       y       z     vdW  Elec       q    Type
REMARK                         _______ _______ _______ _____ _____    ______ ____
ROOT
ATOM      1  O   UNL     1       2.302   9.068  17.000  0.00  0.00    +0.000 OA
ATOM      2  C   UNL     1       2.112   8.857  18.190  0.00  0.00    +0.000 C 
ATOM      3  N   UNL     1       1.425   9.791  18.924  0.00  0.00    +0.000 N 
ATOM      4  C   UNL     1       1.456   9.853  20.375  0.00  0.00    +0.000 C 
ATOM      5  C   UNL     1       1.219   8.452  20.896  0.00  0.00    +0.000 C 
ATOM      6  C   UNL     1       0.432   8.221  21.951  0.00  0.00    +0.000 C 
ATOM      7  C   UNL     1      -0.260   9.285  22.736  0.00  0.00    +0.000 C 
ATOM      8  C   UNL     1      -0.390  10.681  22.093  0.00  0.00    +0.000 C 
ATOM      9  C   UNL     1       0.488  10.988  20.857  0.00  0.00    +0.000 C 
ATOM     10  C   UNL     1       1.951   7.349  20.184  0.00  0.00    +0.000 A 
ATOM     11  C   UNL     1       2.137   6.064  20.753  0.00  0.00    +0.000 A 
ATOM     12  C   UNL     1       2.799   5.100  20.020  0.00  0.00    +0.000 A 
ATOM     13  C   UNL     1       3.363   5.379  18.801  0.00  0.00    +0.000 A 
ATOM     14  C   UNL     1       3.253   6.624  18.225  0.00  0.00    +0.000 A 
ATOM     15  C   UNL     1       2.491   7.600  18.888  0.00  0.00    +0.000 A 
ATOM     16  O   UNL     1       3.970   4.290  18.244  0.00  0.00    +0.000 OA
ATOM     17  C   UNL     1       3.466   3.258  19.119  0.00  0.00    +0.000 C 
ATOM     18  O   UNL     1       2.958   3.792  20.361  0.00  0.00    +0.000 OA
ATOM     19  H   UNL     1       1.281  10.646  18.400  0.00  0.00    +0.000 HD
ENDROOT
BRANCH   7  20
ATOM     20  O   UNL     1      -1.561   8.775  23.045  0.00  0.00    +0.000 OA
ATOM     21  H   UNL     1      -1.451   8.027  23.658  0.00  0.00    +0.000 HD
ENDBRANCH   7  20
BRANCH   8  22
ATOM     22  O   UNL     1      -0.244  11.691  23.113  0.00  0.00    +0.000 OA
ATOM     23  H   UNL     1       0.695  11.955  23.127  0.00  0.00    +0.000 HD
ENDBRANCH   8  22
BRANCH  14  24
ATOM     24  O   UNL     1       3.862   6.834  17.023  0.00  0.00    +0.000 OA
ATOM     25  H   UNL     1       4.651   7.385  17.179  0.00  0.00    +0.000 HD
ENDBRANCH  14  24
BRANCH   9  26
ATOM     26  O   UNL     1       1.268  12.197  21.035  0.00  0.00    +0.000 OA
BRANCH  26  27
ATOM     27  C   UNL     1       1.022  13.237  20.063  0.00  0.00    +0.000 C 
ATOM     28  O   UNL     1       2.257  13.571  19.429  0.00  0.00    +0.000 OA
ATOM     29  C   UNL     1       2.237  14.738  18.594  0.00  0.00    +0.000 C 
ATOM     30  C   UNL     1       1.805  15.976  19.387  0.00  0.00    +0.000 C 
ATOM     31  C   UNL     1       0.408  15.713  19.959  0.00  0.00    +0.000 C 
ATOM     32  C   UNL     1       0.418  14.446  20.829  0.00  0.00    +0.000 C 
BRANCH  30  33
ATOM     33  O   UNL     1       1.824  17.143  18.564  0.00  0.00    +0.000 OA
ATOM     34  H   UNL     1       1.782  16.883  17.627  0.00  0.00    +0.000 HD
ENDBRANCH  30  33
BRANCH  31  35
ATOM     35  O   UNL     1      -0.064  16.841  20.705  0.00  0.00    +0.000 OA
ATOM     36  H   UNL     1      -1.022  16.735  20.854  0.00  0.00    +0.000 HD
ENDBRANCH  31  35
BRANCH  32  37
ATOM     37  O   UNL     1      -0.907  14.136  21.296  0.00  0.00    +0.000 OA
ATOM     38  H   UNL     1      -1.442  14.950  21.283  0.00  0.00    +0.000 HD
ENDBRANCH  32  37
BRANCH  29  39
ATOM     39  C   UNL     1       3.658  14.910  18.032  0.00  0.00    +0.000 C 
BRANCH  39  40
ATOM     40  O   UNL     1       3.636  15.525  16.741  0.00  0.00    +0.000 OA
ATOM     41  H   UNL     1       4.151  14.974  16.128  0.00  0.00    +0.000 HD
ENDBRANCH  39  40
ENDBRANCH  29  39
ENDBRANCH  26  27
ENDBRANCH   9  26
TORSDOF 10
ENDMDL
MODEL 7
REMARK VINA RESULT:      -6.6      2.269      7.254
REMARK  Name = 
REMARK  10 active torsions:
REMARK  status: ('A' for Active; 'I' for Inactive)
REMARK    1  A    between atoms: C_7  and  O_8
REMARK    2  A    between atoms: C_9  and  O_10
REMARK    3  A    between atoms: C_11  and  O_12
REMARK    4  A    between atoms: O_12  and  C_13
REMARK    5  A    between atoms: C_15  and  C_16
REMARK    6  A    between atoms: C_16  and  O_17
REMARK    7  A    between atoms: C_18  and  O_19
REMARK    8  A    between atoms: C_20  and  O_21
REMARK    9  A    between atoms: C_22  and  O_23
REMARK   10  A    between atoms: C_28  and  O_29
REMARK                            x       y       z     vdW  Elec       q    Type
REMARK                         _______ _______ _______ _____ _____    ______ ____
ROOT
ATOM      1  O   UNL     1      -0.321  10.995  23.056  0.00  0.00    +0.000 OA
ATOM      2  C   UNL     1      -0.358  11.557  21.970  0.00  0.00    +0.000 C 
ATOM      3  N   UNL     1      -0.776  12.864  21.918  0.00  0.00    +0.000 N 
ATOM      4  C   UNL     1      -1.220  13.517  20.699  0.00  0.00    +0.000 C 
ATOM      5  C   UNL     1      -0.199  13.216  19.623  0.00  0.00    +0.000 C 
ATOM      6  C   UNL     1       0.199  14.151  18.754  0.00  0.00    +0.000 C 
ATOM      7  C   UNL     1      -0.322  15.549  18.722  0.00  0.00    +0.000 C 
ATOM      8  C   UNL     1      -1.070  16.064  19.969  0.00  0.00    +0.000 C 
ATOM      9  C   UNL     1      -1.534  15.021  21.012  0.00  0.00    +0.000 C 
ATOM     10  C   UNL     1       0.305  11.802  19.567  0.00  0.00    +0.000 A 
ATOM     11  C   UNL     1       0.957  11.267  18.426  0.00  0.00    +0.000 A 
ATOM     12  C   UNL     1       1.412   9.965  18.468  0.00  0.00    +0.000 A 
ATOM     13  C   UNL     1       1.166   9.147  19.541  0.00  0.00    +0.000 A 
ATOM     14  C   UNL     1       0.495   9.601  20.654  0.00  0.00    +0.000 A 
ATOM     15  C   UNL     1       0.116  10.953  20.697  0.00  0.00    +0.000 A 
ATOM     16  O   UNL     1       1.700   7.901  19.382  0.00  0.00    +0.000 OA
ATOM     17  C   UNL     1       2.537   8.140  18.230  0.00  0.00    +0.000 C 
ATOM     18  O   UNL     1       2.157   9.338  17.517  0.00  0.00    +0.000 OA
ATOM     19  H   UNL     1      -1.158  13.170  22.805  0.00  0.00    +0.000 HD
ENDROOT
BRANCH   7  20
ATOM     20  O   UNL     1       0.804  16.391  18.455  0.00  0.00    +0.000 OA
ATOM     21  H   UNL     1       0.783  16.627  17.511  0.00  0.00    +0.000 HD
ENDBRANCH   7  20
BRANCH   8  22
ATOM     22  O   UNL     1      -2.155  16.920  19.553  0.00  0.00    +0.000 OA
ATOM     23  H   UNL     1      -1.768  17.784  19.318  0.00  0.00    +0.000 HD
ENDBRANCH   8  22
BRANCH  14  24
ATOM     24  O   UNL     1       0.266   8.722  21.671  0.00  0.00    +0.000 OA
ATOM     25  H   UNL     1       0.659   7.866  21.422  0.00  0.00    +0.000 HD
ENDBRANCH  14  24
BRANCH   9  26
ATOM     26  O   UNL     1      -2.951  15.133  21.296  0.00  0.00    +0.000 OA
BRANCH  26  27
ATOM     27  C   UNL     1      -3.625  13.886  21.573  0.00  0.00    +0.000 C 
ATOM     28  O   UNL     1      -4.754  13.774  20.707  0.00  0.00    +0.000 OA
ATOM     29  C   UNL     1      -5.662  12.700  20.997  0.00  0.00    +0.000 C 
ATOM     30  C   UNL     1      -6.215  12.817  22.421  0.00  0.00    +0.000 C 
ATOM     31  C   UNL     1      -5.034  12.786  23.396  0.00  0.00    +0.000 C 
ATOM     32  C   UNL     1      -4.043  13.915  23.069  0.00  0.00    +0.000 C 
BRANCH  30  33
ATOM     33  O   UNL     1      -7.149  11.772  22.694  0.00  0.00    +0.000 OA
ATOM     34  H   UNL     1      -8.020  12.009  22.330  0.00  0.00    +0.000 HD
ENDBRANCH  30  33
BRANCH  31  35
ATOM     35  O   UNL     1      -5.483  12.879  24.753  0.00  0.00    +0.000 OA
ATOM     36  H   UNL     1      -4.710  12.798  25.342  0.00  0.00    +0.000 HD
ENDBRANCH  31  35
BRANCH  32  37
ATOM     37  O   UNL     1      -2.883  13.839  23.918  0.00  0.00    +0.000 OA
ATOM     38  H   UNL     1      -3.120  13.352  24.728  0.00  0.00    +0.000 HD
ENDBRANCH  32  37
BRANCH  29  39
ATOM     39  C   UNL     1      -6.791  12.779  19.957  0.00  0.00    +0.000 C 
BRANCH  39  40
ATOM     40  O   UNL     1      -7.484  11.532  19.846  0.00  0.00    +0.000 OA
ATOM     41  H   UNL     1      -7.696  11.379  18.911  0.00  0.00    +0.000 HD
ENDBRANCH  39  40
ENDBRANCH  29  39
ENDBRANCH  26  27
ENDBRANCH   9  26
TORSDOF 10
ENDMDL
MODEL 8
REMARK VINA RESULT:      -6.5      2.888      7.613
REMARK  Name = 
REMARK  10 active torsions:
REMARK  status: ('A' for Active; 'I' for Inactive)
REMARK    1  A    between atoms: C_7  and  O_8
REMARK    2  A    between atoms: C_9  and  O_10
REMARK    3  A    between atoms: C_11  and  O_12
REMARK    4  A    between atoms: O_12  and  C_13
REMARK    5  A    between atoms: C_15  and  C_16
REMARK    6  A    between atoms: C_16  and  O_17
REMARK    7  A    between atoms: C_18  and  O_19
REMARK    8  A    between atoms: C_20  and  O_21
REMARK    9  A    between atoms: C_22  and  O_23
REMARK   10  A    between atoms: C_28  and  O_29
REMARK                            x       y       z     vdW  Elec       q    Type
REMARK                         _______ _______ _______ _____ _____    ______ ____
ROOT
ATOM      1  O   UNL     1       0.361   9.014  22.429  0.00  0.00    +0.000 OA
ATOM      2  C   UNL     1       0.503   9.597  21.363  0.00  0.00    +0.000 C 
ATOM      3  N   UNL     1       0.118  10.912  21.275  0.00  0.00    +0.000 N 
ATOM      4  C   UNL     1      -0.119  11.596  20.015  0.00  0.00    +0.000 C 
ATOM      5  C   UNL     1       1.053  11.297  19.106  0.00  0.00    +0.000 C 
ATOM      6  C   UNL     1       1.597  12.240  18.331  0.00  0.00    +0.000 C 
ATOM      7  C   UNL     1       1.110  13.648  18.247  0.00  0.00    +0.000 C 
ATOM      8  C   UNL     1       0.183  14.154  19.372  0.00  0.00    +0.000 C 
ATOM      9  C   UNL     1      -0.455  13.099  20.308  0.00  0.00    +0.000 C 
ATOM     10  C   UNL     1       1.538   9.874  19.099  0.00  0.00    +0.000 A 
ATOM     11  C   UNL     1       2.353   9.349  18.064  0.00  0.00    +0.000 A 
ATOM     12  C   UNL     1       2.776   8.038  18.148  0.00  0.00    +0.000 A 
ATOM     13  C   UNL     1       2.352   7.205  19.152  0.00  0.00    +0.000 A 
ATOM     14  C   UNL     1       1.522   7.651  20.156  0.00  0.00    +0.000 A 
ATOM     15  C   UNL     1       1.161   9.008  20.168  0.00  0.00    +0.000 A 
ATOM     16  O   UNL     1       2.885   5.953  19.051  0.00  0.00    +0.000 OA
ATOM     17  C   UNL     1       3.896   6.198  18.050  0.00  0.00    +0.000 C 
ATOM     18  O   UNL     1       3.652   7.416  17.313  0.00  0.00    +0.000 OA
ATOM     19  H   UNL     1      -0.393  11.208  22.097  0.00  0.00    +0.000 HD
ENDROOT
BRANCH   7  20
ATOM     20  O   UNL     1       2.276  14.474  18.177  0.00  0.00    +0.000 OA
ATOM     21  H   UNL     1       2.637  14.406  17.276  0.00  0.00    +0.000 HD
ENDBRANCH   7  20
BRANCH   8  22
ATOM     22  O   UNL     1      -0.810  15.036  18.810  0.00  0.00    +0.000 OA
ATOM     23  H   UNL     1      -1.114  15.625  19.528  0.00  0.00    +0.000 HD
ENDBRANCH   8  22
BRANCH  14  24
ATOM     24  O   UNL     1       1.122   6.758  21.106  0.00  0.00    +0.000 OA
ATOM     25  H   UNL     1       0.655   7.252  21.804  0.00  0.00    +0.000 HD
ENDBRANCH  14  24
BRANCH   9  26
ATOM     26  O   UNL     1      -1.897  13.233  20.368  0.00  0.00    +0.000 OA
BRANCH  26  27
ATOM     27  C   UNL     1      -2.405  13.904  21.542  0.00  0.00    +0.000 C 
ATOM     28  O   UNL     1      -2.893  12.922  22.455  0.00  0.00    +0.000 OA
ATOM     29  C   UNL     1      -3.633  13.424  23.578  0.00  0.00    +0.000 C 
ATOM     30  C   UNL     1      -4.849  14.234  23.118  0.00  0.00    +0.000 C 
ATOM     31  C   UNL     1      -4.350  15.397  22.255  0.00  0.00    +0.000 C 
ATOM     32  C   UNL     1      -3.530  14.865  21.068  0.00  0.00    +0.000 C 
BRANCH  30  33
ATOM     33  O   UNL     1      -5.607  14.699  24.237  0.00  0.00    +0.000 OA
ATOM     34  H   UNL     1      -6.514  14.909  23.952  0.00  0.00    +0.000 HD
ENDBRANCH  30  33
BRANCH  31  35
ATOM     35  O   UNL     1      -5.440  16.207  21.800  0.00  0.00    +0.000 OA
ATOM     36  H   UNL     1      -5.571  16.936  22.434  0.00  0.00    +0.000 HD
ENDBRANCH  31  35
BRANCH  32  37
ATOM     37  O   UNL     1      -2.977  15.950  20.302  0.00  0.00    +0.000 OA
ATOM     38  H   UNL     1      -2.045  16.073  20.562  0.00  0.00    +0.000 HD
ENDBRANCH  32  37
BRANCH  29  39
ATOM     39  C   UNL     1      -4.064  12.204  24.409  0.00  0.00    +0.000 C 
BRANCH  39  40
ATOM     40  O   UNL     1      -4.460  12.588  25.729  0.00  0.00    +0.000 OA
ATOM     41  H   UNL     1      -4.196  13.511  25.875  0.00  0.00    +0.000 HD
ENDBRANCH  39  40
ENDBRANCH  29  39
ENDBRANCH  26  27
ENDBRANCH   9  26
TORSDOF 10
ENDMDL
MODEL 9
REMARK VINA RESULT:      -6.5      1.629      7.164
REMARK  Name = 
REMARK  10 active torsions:
REMARK  status: ('A' for Active; 'I' for Inactive)
REMARK    1  A    between atoms: C_7  and  O_8
REMARK    2  A    between atoms: C_9  and  O_10
REMARK    3  A    between atoms: C_11  and  O_12
REMARK    4  A    between atoms: O_12  and  C_13
REMARK    5  A    between atoms: C_15  and  C_16
REMARK    6  A    between atoms: C_16  and  O_17
REMARK    7  A    between atoms: C_18  and  O_19
REMARK    8  A    between atoms: C_20  and  O_21
REMARK    9  A    between atoms: C_22  and  O_23
REMARK   10  A    between atoms: C_28  and  O_29
REMARK                            x       y       z     vdW  Elec       q    Type
REMARK                         _______ _______ _______ _____ _____    ______ ____
ROOT
ATOM      1  O   UNL     1       0.575   9.258  22.773  0.00  0.00    +0.000 OA
ATOM      2  C   UNL     1       0.466   9.879  21.725  0.00  0.00    +0.000 C 
ATOM      3  N   UNL     1      -0.071  11.142  21.759  0.00  0.00    +0.000 N 
ATOM      4  C   UNL     1      -0.596  11.824  20.588  0.00  0.00    +0.000 C 
ATOM      5  C   UNL     1       0.430  11.686  19.484  0.00  0.00    +0.000 C 
ATOM      6  C   UNL     1       0.724  12.705  18.671  0.00  0.00    +0.000 C 
ATOM      7  C   UNL     1       0.076  14.048  18.731  0.00  0.00    +0.000 C 
ATOM      8  C   UNL     1      -0.695  14.414  20.016  0.00  0.00    +0.000 C 
ATOM      9  C   UNL     1      -1.042  13.269  20.998  0.00  0.00    +0.000 C 
ATOM     10  C   UNL     1       1.062  10.331  19.334  0.00  0.00    +0.000 A 
ATOM     11  C   UNL     1       1.741   9.931  18.155  0.00  0.00    +0.000 A 
ATOM     12  C   UNL     1       2.316   8.676  18.109  0.00  0.00    +0.000 A 
ATOM     13  C   UNL     1       2.165   7.775  19.132  0.00  0.00    +0.000 A 
ATOM     14  C   UNL     1       1.475   8.096  20.279  0.00  0.00    +0.000 A 
ATOM     15  C   UNL     1       0.972   9.401  20.411  0.00  0.00    +0.000 A 
ATOM     16  O   UNL     1       2.809   6.597  18.889  0.00  0.00    +0.000 OA
ATOM     17  C   UNL     1       3.600   6.983  17.745  0.00  0.00    +0.000 C 
ATOM     18  O   UNL     1       3.099   8.181  17.113  0.00  0.00    +0.000 OA
ATOM     19  H   UNL     1      -0.465  11.356  22.668  0.00  0.00    +0.000 HD
ENDROOT
BRANCH   7  20
ATOM     20  O   UNL     1       1.114  15.006  18.504  0.00  0.00    +0.000 OA
ATOM     21  H   UNL     1       1.043  15.691  19.192  0.00  0.00    +0.000 HD
ENDBRANCH   7  20
BRANCH   8  22
ATOM     22  O   UNL     1      -1.862  15.188  19.668  0.00  0.00    +0.000 OA
ATOM     23  H   UNL     1      -2.066  15.762  20.430  0.00  0.00    +0.000 HD
ENDBRANCH   8  22
BRANCH  14  24
ATOM     24  O   UNL     1       1.345   7.139  21.242  0.00  0.00    +0.000 OA
ATOM     25  H   UNL     1       1.232   6.279  20.797  0.00  0.00    +0.000 HD
ENDBRANCH  14  24
BRANCH   9  26
ATOM     26  O   UNL     1      -2.458  13.231  21.305  0.00  0.00    +0.000 OA
BRANCH  26  27
ATOM     27  C   UNL     1      -3.217  12.231  20.590  0.00  0.00    +0.000 C 
ATOM     28  O   UNL     1      -2.777  12.207  19.232  0.00  0.00    +0.000 OA
ATOM     29  C   UNL     1      -3.574  11.427  18.329  0.00  0.00    +0.000 C 
ATOM     30  C   UNL     1      -5.025  11.918  18.309  0.00  0.00    +0.000 C 
ATOM     31  C   UNL     1      -5.584  11.813  19.732  0.00  0.00    +0.000 C 
ATOM     32  C   UNL     1      -4.716  12.622  20.707  0.00  0.00    +0.000 C 
BRANCH  30  33
ATOM     33  O   UNL     1      -5.807  11.167  17.380  0.00  0.00    +0.000 OA
ATOM     34  H   UNL     1      -5.268  10.949  16.600  0.00  0.00    +0.000 HD
ENDBRANCH  30  33
BRANCH  31  35
ATOM     35  O   UNL     1      -6.948  12.247  19.783  0.00  0.00    +0.000 OA
ATOM     36  H   UNL     1      -7.494  11.515  20.126  0.00  0.00    +0.000 HD
ENDBRANCH  31  35
BRANCH  32  37
ATOM     37  O   UNL     1      -5.175  12.456  22.061  0.00  0.00    +0.000 OA
ATOM     38  H   UNL     1      -4.843  11.605  22.401  0.00  0.00    +0.000 HD
ENDBRANCH  32  37
BRANCH  29  39
ATOM     39  C   UNL     1      -2.928  11.554  16.940  0.00  0.00    +0.000 C 
BRANCH  39  40
ATOM     40  O   UNL     1      -1.767  10.726  16.828  0.00  0.00    +0.000 OA
ATOM     41  H   UNL     1      -1.683  10.435  15.905  0.00  0.00    +0.000 HD
ENDBRANCH  39  40
ENDBRANCH  29  39
ENDBRANCH  26  27
ENDBRANCH   9  26
TORSDOF 10
ENDMDL
