MODEL 1
REMARK VINA RESULT:      -6.2      0.000      0.000
REMARK  Name = 
REMARK  1 active torsions:
REMARK  status: ('A' for Active; 'I' for Inactive)
REMARK    1  A    between atoms: C_5  and  N_6
REMARK                            x       y       z     vdW  Elec       q    Type
REMARK                         _______ _______ _______ _____ _____    ______ ____
ROOT
ATOM      1  F   UNL     1       0.482   1.886  18.639  0.00  0.00    +0.000 F 
ATOM      2  C   UNL     1       1.556   2.636  18.358  0.00  0.00    +0.000 A 
ATOM      3  C   UNL     1       1.405   3.994  18.132  0.00  0.00    +0.000 A 
ATOM      4  C   UNL     1       2.530   4.772  17.838  0.00  0.00    +0.000 A 
ATOM      5  C   UNL     1       3.819   4.216  17.763  0.00  0.00    +0.000 A 
ATOM      6  C   UNL     1       3.925   2.835  18.002  0.00  0.00    +0.000 A 
ATOM      7  C   UNL     1       2.807   2.047  18.296  0.00  0.00    +0.000 A 
ENDROOT
BRANCH   5   8
ATOM      8  N   UNL     1       4.920   4.991  17.471  0.00  0.00    +0.000 N 
ATOM      9  C   UNL     1       6.230   4.812  18.117  0.00  0.00    +0.000 C 
ATOM     10  C   UNL     1       7.319   4.541  17.057  0.00  0.00    +0.000 C 
ATOM     11  N   UNL     1       7.378   5.578  16.007  0.00  0.00    +0.000 NA
ATOM     12  C   UNL     1       6.044   5.724  15.391  0.00  0.00    +0.000 C 
ATOM     13  C   UNL     1       4.910   6.007  16.406  0.00  0.00    +0.000 C 
ATOM     14  H   UNL     1       8.044   5.289  15.291  0.00  0.00    +0.000 HD
ENDBRANCH   5   8
TORSDOF 1
ENDMDL
MODEL 2
REMARK VINA RESULT:      -6.2      1.413      1.777
REMARK  Name = 
REMARK  1 active torsions:
REMARK  status: ('A' for Active; 'I' for Inactive)
REMARK    1  A    between atoms: C_5  and  N_6
REMARK                            x       y       z     vdW  Elec       q    Type
REMARK                         _______ _______ _______ _____ _____    ______ ____
ROOT
ATOM      1  F   UNL     1       0.561   3.622  20.353  0.00  0.00    +0.000 F 
ATOM      2  C   UNL     1       1.521   4.039  19.518  0.00  0.00    +0.000 A 
ATOM      3  C   UNL     1       2.308   5.127  19.863  0.00  0.00    +0.000 A 
ATOM      4  C   UNL     1       3.309   5.558  18.987  0.00  0.00    +0.000 A 
ATOM      5  C   UNL     1       3.544   4.921  17.755  0.00  0.00    +0.000 A 
ATOM      6  C   UNL     1       2.723   3.823  17.447  0.00  0.00    +0.000 A 
ATOM      7  C   UNL     1       1.719   3.382  18.316  0.00  0.00    +0.000 A 
ENDROOT
BRANCH   5   8
ATOM      8  N   UNL     1       4.531   5.356  16.898  0.00  0.00    +0.000 N 
ATOM      9  C   UNL     1       5.061   6.729  16.904  0.00  0.00    +0.000 C 
ATOM     10  C   UNL     1       6.587   6.714  17.137  0.00  0.00    +0.000 C 
ATOM     11  N   UNL     1       7.314   5.864  16.172  0.00  0.00    +0.000 NA
ATOM     12  C   UNL     1       6.747   4.501  16.200  0.00  0.00    +0.000 C 
ATOM     13  C   UNL     1       5.217   4.451  15.961  0.00  0.00    +0.000 C 
ATOM     14  H   UNL     1       8.296   5.820  16.442  0.00  0.00    +0.000 HD
ENDBRANCH   5   8
TORSDOF 1
ENDMDL
MODEL 3
REMARK VINA RESULT:      -6.1      0.850      1.930
REMARK  Name = 
REMARK  1 active torsions:
REMARK  status: ('A' for Active; 'I' for Inactive)
REMARK    1  A    between atoms: C_5  and  N_6
REMARK                            x       y       z     vdW  Elec       q    Type
REMARK                         _______ _______ _______ _____ _____    ______ ____
ROOT
ATOM      1  F   UNL     1       0.212   2.610  19.057  0.00  0.00    +0.000 F 
ATOM      2  C   UNL     1       1.430   2.950  18.616  0.00  0.00    +0.000 A 
ATOM      3  C   UNL     1       2.502   2.100  18.835  0.00  0.00    +0.000 A 
ATOM      4  C   UNL     1       3.772   2.462  18.373  0.00  0.00    +0.000 A 
ATOM      5  C   UNL     1       3.999   3.670  17.690  0.00  0.00    +0.000 A 
ATOM      6  C   UNL     1       2.882   4.500  17.490  0.00  0.00    +0.000 A 
ATOM      7  C   UNL     1       1.608   4.149  17.947  0.00  0.00    +0.000 A 
ENDROOT
BRANCH   5   8
ATOM      8  N   UNL     1       5.254   4.018  17.241  0.00  0.00    +0.000 N 
ATOM      9  C   UNL     1       5.662   3.927  15.830  0.00  0.00    +0.000 C 
ATOM     10  C   UNL     1       6.132   5.305  15.317  0.00  0.00    +0.000 C 
ATOM     11  N   UNL     1       7.200   5.900  16.146  0.00  0.00    +0.000 NA
ATOM     12  C   UNL     1       6.746   5.968  17.549  0.00  0.00    +0.000 C 
ATOM     13  C   UNL     1       6.271   4.611  18.124  0.00  0.00    +0.000 C 
ATOM     14  H   UNL     1       7.392   6.844  15.813  0.00  0.00    +0.000 HD
ENDBRANCH   5   8
TORSDOF 1
ENDMDL
MODEL 4
REMARK VINA RESULT:      -6.1      1.483      2.030
REMARK  Name = 
REMARK  1 active torsions:
REMARK  status: ('A' for Active; 'I' for Inactive)
REMARK    1  A    between atoms: C_5  and  N_6
REMARK                            x       y       z     vdW  Elec       q    Type
REMARK                         _______ _______ _______ _____ _____    ______ ____
ROOT
ATOM      1  F   UNL     1       0.588   3.811  20.469  0.00  0.00    +0.000 F 
ATOM      2  C   UNL     1       1.542   4.203  19.614  0.00  0.00    +0.000 A 
ATOM      3  C   UNL     1       1.809   3.441  18.488  0.00  0.00    +0.000 A 
ATOM      4  C   UNL     1       2.807   3.854  17.599  0.00  0.00    +0.000 A 
ATOM      5  C   UNL     1       3.555   5.026  17.813  0.00  0.00    +0.000 A 
ATOM      6  C   UNL     1       3.248   5.768  18.967  0.00  0.00    +0.000 A 
ATOM      7  C   UNL     1       2.253   5.364  19.863  0.00  0.00    +0.000 A 
ENDROOT
BRANCH   5   8
ATOM      8  N   UNL     1       4.537   5.423  16.932  0.00  0.00    +0.000 N 
ATOM      9  C   UNL     1       5.181   6.745  16.981  0.00  0.00    +0.000 C 
ATOM     10  C   UNL     1       6.709   6.591  17.140  0.00  0.00    +0.000 C 
ATOM     11  N   UNL     1       7.319   5.738  16.101  0.00  0.00    +0.000 NA
ATOM     12  C   UNL     1       6.639   4.427  16.087  0.00  0.00    +0.000 C 
ATOM     13  C   UNL     1       5.102   4.516  15.920  0.00  0.00    +0.000 C 
ATOM     14  H   UNL     1       8.304   5.598  16.321  0.00  0.00    +0.000 HD
ENDBRANCH   5   8
TORSDOF 1
ENDMDL
MODEL 5
REMARK VINA RESULT:      -6.1      1.389      1.931
REMARK  Name = 
REMARK  1 active torsions:
REMARK  status: ('A' for Active; 'I' for Inactive)
REMARK    1  A    between atoms: C_5  and  N_6
REMARK                            x       y       z     vdW  Elec       q    Type
REMARK                         _______ _______ _______ _____ _____    ______ ____
ROOT
ATOM      1  F   UNL     1       0.384   4.010  20.169  0.00  0.00    +0.000 F 
ATOM      2  C   UNL     1       1.545   4.086  19.505  0.00  0.00    +0.000 A 
ATOM      3  C   UNL     1       1.558   3.946  18.126  0.00  0.00    +0.000 A 
ATOM      4  C   UNL     1       2.773   4.025  17.438  0.00  0.00    +0.000 A 
ATOM      5  C   UNL     1       3.992   4.243  18.105  0.00  0.00    +0.000 A 
ATOM      6  C   UNL     1       3.930   4.380  19.503  0.00  0.00    +0.000 A 
ATOM      7  C   UNL     1       2.721   4.303  20.201  0.00  0.00    +0.000 A 
ENDROOT
BRANCH   5   8
ATOM      8  N   UNL     1       5.184   4.317  17.418  0.00  0.00    +0.000 N 
ATOM      9  C   UNL     1       5.297   4.100  15.967  0.00  0.00    +0.000 C 
ATOM     10  C   UNL     1       5.918   5.339  15.287  0.00  0.00    +0.000 C 
ATOM     11  N   UNL     1       7.216   5.733  15.870  0.00  0.00    +0.000 NA
ATOM     12  C   UNL     1       7.054   5.936  17.324  0.00  0.00    +0.000 C 
ATOM     13  C   UNL     1       6.443   4.720  18.065  0.00  0.00    +0.000 C 
ATOM     14  H   UNL     1       7.519   6.609  15.446  0.00  0.00    +0.000 HD
ENDBRANCH   5   8
TORSDOF 1
ENDMDL
MODEL 6
REMARK VINA RESULT:      -6.0      1.171      1.970
REMARK  Name = 
REMARK  1 active torsions:
REMARK  status: ('A' for Active; 'I' for Inactive)
REMARK    1  A    between atoms: C_5  and  N_6
REMARK                            x       y       z     vdW  Elec       q    Type
REMARK                         _______ _______ _______ _____ _____    ______ ____
ROOT
ATOM      1  F   UNL     1       1.090   2.487  20.430  0.00  0.00    +0.000 F 
ATOM      2  C   UNL     1       1.957   3.059  19.584  0.00  0.00    +0.000 A 
ATOM      3  C   UNL     1       3.297   2.711  19.634  0.00  0.00    +0.000 A 
ATOM      4  C   UNL     1       4.198   3.312  18.749  0.00  0.00    +0.000 A 
ATOM      5  C   UNL     1       3.786   4.267  17.803  0.00  0.00    +0.000 A 
ATOM      6  C   UNL     1       2.417   4.588  17.787  0.00  0.00    +0.000 A 
ATOM      7  C   UNL     1       1.507   3.994  18.667  0.00  0.00    +0.000 A 
ENDROOT
BRANCH   5   8
ATOM      8  N   UNL     1       4.682   4.855  16.937  0.00  0.00    +0.000 N 
ATOM      9  C   UNL     1       4.826   6.312  16.788  0.00  0.00    +0.000 C 
ATOM     10  C   UNL     1       6.279   6.740  17.082  0.00  0.00    +0.000 C 
ATOM     11  N   UNL     1       7.275   6.018  16.264  0.00  0.00    +0.000 NA
ATOM     12  C   UNL     1       7.089   4.564  16.443  0.00  0.00    +0.000 C 
ATOM     13  C   UNL     1       5.650   4.072  16.152  0.00  0.00    +0.000 C 
ATOM     14  H   UNL     1       8.210   6.274  16.577  0.00  0.00    +0.000 HD
ENDBRANCH   5   8
TORSDOF 1
ENDMDL
MODEL 7
REMARK VINA RESULT:      -6.0      1.387      1.559
REMARK  Name = 
REMARK  1 active torsions:
REMARK  status: ('A' for Active; 'I' for Inactive)
REMARK    1  A    between atoms: C_5  and  N_6
REMARK                            x       y       z     vdW  Elec       q    Type
REMARK                         _______ _______ _______ _____ _____    ______ ____
ROOT
ATOM      1  F   UNL     1       0.729   3.613  20.314  0.00  0.00    +0.000 F 
ATOM      2  C   UNL     1       1.820   3.993  19.635  0.00  0.00    +0.000 A 
ATOM      3  C   UNL     1       2.741   4.839  20.232  0.00  0.00    +0.000 A 
ATOM      4  C   UNL     1       3.877   5.233  19.518  0.00  0.00    +0.000 A 
ATOM      5  C   UNL     1       4.117   4.797  18.202  0.00  0.00    +0.000 A 
ATOM      6  C   UNL     1       3.156   3.940  17.638  0.00  0.00    +0.000 A 
ATOM      7  C   UNL     1       2.017   3.539  18.342  0.00  0.00    +0.000 A 
ENDROOT
BRANCH   5   8
ATOM      8  N   UNL     1       5.238   5.193  17.507  0.00  0.00    +0.000 N 
ATOM      9  C   UNL     1       6.518   5.522  18.154  0.00  0.00    +0.000 C 
ATOM     10  C   UNL     1       7.646   4.628  17.596  0.00  0.00    +0.000 C 
ATOM     11  N   UNL     1       7.761   4.687  16.126  0.00  0.00    +0.000 NA
ATOM     12  C   UNL     1       6.455   4.354  15.522  0.00  0.00    +0.000 C 
ATOM     13  C   UNL     1       5.283   5.226  16.036  0.00  0.00    +0.000 C 
ATOM     14  H   UNL     1       8.452   4.004  15.818  0.00  0.00    +0.000 HD
ENDBRANCH   5   8
TORSDOF 1
ENDMDL
MODEL 8
REMARK VINA RESULT:      -6.0      3.100      5.321
REMARK  Name = 
REMARK  1 active torsions:
REMARK  status: ('A' for Active; 'I' for Inactive)
REMARK    1  A    between atoms: C_5  and  N_6
REMARK                            x       y       z     vdW  Elec       q    Type
REMARK                         _______ _______ _______ _____ _____    ______ ____
ROOT
ATOM      1  F   UNL     1       7.678   4.522  16.462  0.00  0.00    +0.000 F 
ATOM      2  C   UNL     1       6.461   4.497  17.021  0.00  0.00    +0.000 A 
ATOM      3  C   UNL     1       6.282   5.000  18.299  0.00  0.00    +0.000 A 
ATOM      4  C   UNL     1       5.010   4.972  18.878  0.00  0.00    +0.000 A 
ATOM      5  C   UNL     1       3.896   4.443  18.201  0.00  0.00    +0.000 A 
ATOM      6  C   UNL     1       4.125   3.945  16.906  0.00  0.00    +0.000 A 
ATOM      7  C   UNL     1       5.393   3.969  16.317  0.00  0.00    +0.000 A 
ENDROOT
BRANCH   5   8
ATOM      8  N   UNL     1       2.647   4.417  18.781  0.00  0.00    +0.000 N 
ATOM      9  C   UNL     1       1.480   3.770  18.161  0.00  0.00    +0.000 C 
ATOM     10  C   UNL     1       0.900   2.694  19.103  0.00  0.00    +0.000 C 
ATOM     11  N   UNL     1       0.572   3.213  20.446  0.00  0.00    +0.000 NA
ATOM     12  C   UNL     1       1.769   3.855  21.026  0.00  0.00    +0.000 C 
ATOM     13  C   UNL     1       2.392   4.953  20.128  0.00  0.00    +0.000 C 
ATOM     14  H   UNL     1       0.290   2.437  21.043  0.00  0.00    +0.000 HD
ENDBRANCH   5   8
TORSDOF 1
ENDMDL
MODEL 9
REMARK VINA RESULT:      -6.0      0.592      1.302
REMARK  Name = 
REMARK  1 active torsions:
REMARK  status: ('A' for Active; 'I' for Inactive)
REMARK    1  A    between atoms: C_5  and  N_6
REMARK                            x       y       z     vdW  Elec       q    Type
REMARK                         _______ _______ _______ _____ _____    ______ ____
ROOT
ATOM      1  F   UNL     1       0.363   2.452  18.988  0.00  0.00    +0.000 F 
ATOM      2  C   UNL     1       1.463   3.112  18.605  0.00  0.00    +0.000 A 
ATOM      3  C   UNL     1       2.362   2.507  17.741  0.00  0.00    +0.000 A 
ATOM      4  C   UNL     1       3.510   3.202  17.346  0.00  0.00    +0.000 A 
ATOM      5  C   UNL     1       3.786   4.503  17.801  0.00  0.00    +0.000 A 
ATOM      6  C   UNL     1       2.846   5.077  18.675  0.00  0.00    +0.000 A 
ATOM      7  C   UNL     1       1.695   4.393  19.077  0.00  0.00    +0.000 A 
ENDROOT
BRANCH   5   8
ATOM      8  N   UNL     1       4.921   5.178  17.407  0.00  0.00    +0.000 N 
ATOM      9  C   UNL     1       6.216   5.051  18.094  0.00  0.00    +0.000 C 
ATOM     10  C   UNL     1       7.302   4.574  17.106  0.00  0.00    +0.000 C 
ATOM     11  N   UNL     1       7.414   5.429  15.907  0.00  0.00    +0.000 NA
ATOM     12  C   UNL     1       6.092   5.528  15.255  0.00  0.00    +0.000 C 
ATOM     13  C   UNL     1       4.961   6.013  16.196  0.00  0.00    +0.000 C 
ATOM     14  H   UNL     1       8.073   5.004  15.256  0.00  0.00    +0.000 HD
ENDBRANCH   5   8
TORSDOF 1
ENDMDL
