MODEL 1
REMARK VINA RESULT:      -6.3      0.000      0.000
REMARK  Name = 
REMARK  2 active torsions:
REMARK  status: ('A' for Active; 'I' for Inactive)
REMARK    1  A    between atoms: C_2  and  C_3
REMARK    2  A    between atoms: C_12  and  N_13
REMARK                            x       y       z     vdW  Elec       q    Type
REMARK                         _______ _______ _______ _____ _____    ______ ____
ROOT
ATOM      1  C   UNL     1       3.485   4.086  17.768  0.00  0.00    +0.000 A 
ATOM      2  C   UNL     1       4.288   4.442  16.675  0.00  0.00    +0.000 A 
ATOM      3  C   UNL     1       5.671   4.495  16.890  0.00  0.00    +0.000 A 
ATOM      4  C   UNL     1       6.845   4.758  16.140  0.00  0.00    +0.000 A 
ATOM      5  N   UNL     1       6.857   5.070  14.841  0.00  0.00    +0.000 N 
ATOM      6  N   UNL     1       7.950   4.656  16.877  0.00  0.00    +0.000 NA
ATOM      7  N   UNL     1       7.488   4.326  18.100  0.00  0.00    +0.000 N 
ATOM      8  C   UNL     1       6.129   4.218  18.166  0.00  0.00    +0.000 A 
ATOM      9  N   UNL     1       5.400   3.892  19.251  0.00  0.00    +0.000 NA
ATOM     10  C   UNL     1       4.072   3.827  19.016  0.00  0.00    +0.000 A 
ATOM     11  H   UNL     1       6.034   5.134  14.259  0.00  0.00    +0.000 HD
ATOM     12  H   UNL     1       7.746   5.216  14.376  0.00  0.00    +0.000 HD
ATOM     13  H   UNL     1       8.149   4.177  18.853  0.00  0.00    +0.000 HD
ENDROOT
BRANCH  10  14
ATOM     14  N   UNL     1       3.316   3.373  20.099  0.00  0.00    +0.000 N 
ATOM     15  H   UNL     1       3.706   3.757  20.956  0.00  0.00    +0.000 HD
ATOM     16  H   UNL     1       2.316   3.525  20.018  0.00  0.00    +0.000 HD
ENDBRANCH  10  14
BRANCH   1  18
ATOM     17  N   UNL     1       0.915   3.969  17.477  0.00  0.00    +0.000 NA
ATOM     18  C   UNL     1       2.071   4.013  17.589  0.00  0.00    +0.000 C 
ENDBRANCH   1  18
TORSDOF 2
ENDMDL
MODEL 2
REMARK VINA RESULT:      -6.2      1.531      1.691
REMARK  Name = 
REMARK  2 active torsions:
REMARK  status: ('A' for Active; 'I' for Inactive)
REMARK    1  A    between atoms: C_2  and  C_3
REMARK    2  A    between atoms: C_12  and  N_13
REMARK                            x       y       z     vdW  Elec       q    Type
REMARK                         _______ _______ _______ _____ _____    ______ ____
ROOT
ATOM      1  C   UNL     1       3.894   4.322  17.654  0.00  0.00    +0.000 A 
ATOM      2  C   UNL     1       4.427   3.914  16.423  0.00  0.00    +0.000 A 
ATOM      3  C   UNL     1       5.619   4.523  16.012  0.00  0.00    +0.000 A 
ATOM      4  C   UNL     1       6.523   4.441  14.923  0.00  0.00    +0.000 A 
ATOM      5  N   UNL     1       6.381   3.613  13.884  0.00  0.00    +0.000 N 
ATOM      6  N   UNL     1       7.547   5.283  15.050  0.00  0.00    +0.000 NA
ATOM      7  N   UNL     1       7.302   5.907  16.220  0.00  0.00    +0.000 N 
ATOM      8  C   UNL     1       6.159   5.492  16.838  0.00  0.00    +0.000 A 
ATOM      9  N   UNL     1       5.677   5.932  18.017  0.00  0.00    +0.000 NA
ATOM     10  C   UNL     1       4.538   5.318  18.404  0.00  0.00    +0.000 A 
ATOM     11  H   UNL     1       5.624   2.952  13.776  0.00  0.00    +0.000 HD
ATOM     12  H   UNL     1       7.091   3.599  13.161  0.00  0.00    +0.000 HD
ATOM     13  H   UNL     1       7.958   6.604  16.553  0.00  0.00    +0.000 HD
ENDROOT
BRANCH  10  14
ATOM     14  N   UNL     1       4.093   5.677  19.678  0.00  0.00    +0.000 N 
ATOM     15  H   UNL     1       3.875   6.670  19.682  0.00  0.00    +0.000 HD
ATOM     16  H   UNL     1       3.339   5.106  20.046  0.00  0.00    +0.000 HD
ENDBRANCH  10  14
BRANCH   1  18
ATOM     17  N   UNL     1       1.679   3.254  18.467  0.00  0.00    +0.000 NA
ATOM     18  C   UNL     1       2.684   3.721  18.114  0.00  0.00    +0.000 C 
ENDBRANCH   1  18
TORSDOF 2
ENDMDL
MODEL 3
REMARK VINA RESULT:      -6.2      2.111      2.134
REMARK  Name = 
REMARK  2 active torsions:
REMARK  status: ('A' for Active; 'I' for Inactive)
REMARK    1  A    between atoms: C_2  and  C_3
REMARK    2  A    between atoms: C_12  and  N_13
REMARK                            x       y       z     vdW  Elec       q    Type
REMARK                         _______ _______ _______ _____ _____    ______ ____
ROOT
ATOM      1  C   UNL     1       3.989   6.641  17.912  0.00  0.00    +0.000 A 
ATOM      2  C   UNL     1       4.906   6.551  16.855  0.00  0.00    +0.000 A 
ATOM      3  C   UNL     1       5.972   5.656  17.010  0.00  0.00    +0.000 A 
ATOM      4  C   UNL     1       7.085   5.203  16.258  0.00  0.00    +0.000 A 
ATOM      5  N   UNL     1       7.389   5.627  15.028  0.00  0.00    +0.000 N 
ATOM      6  N   UNL     1       7.803   4.293  16.915  0.00  0.00    +0.000 NA
ATOM      7  N   UNL     1       7.152   4.160  18.088  0.00  0.00    +0.000 N 
ATOM      8  C   UNL     1       6.048   4.955  18.200  0.00  0.00    +0.000 A 
ATOM      9  N   UNL     1       5.207   5.020  19.250  0.00  0.00    +0.000 NA
ATOM     10  C   UNL     1       4.176   5.873  19.072  0.00  0.00    +0.000 A 
ATOM     11  H   UNL     1       6.849   6.301  14.504  0.00  0.00    +0.000 HD
ATOM     12  H   UNL     1       8.189   5.229  14.551  0.00  0.00    +0.000 HD
ATOM     13  H   UNL     1       7.502   3.503  18.774  0.00  0.00    +0.000 HD
ENDROOT
BRANCH  10  14
ATOM     14  N   UNL     1       3.232   5.862  20.101  0.00  0.00    +0.000 N 
ATOM     15  H   UNL     1       2.339   6.177  19.730  0.00  0.00    +0.000 HD
ATOM     16  H   UNL     1       3.162   4.987  20.609  0.00  0.00    +0.000 HD
ENDBRANCH  10  14
BRANCH   1  18
ATOM     17  N   UNL     1       1.970   8.251  17.725  0.00  0.00    +0.000 NA
ATOM     18  C   UNL     1       2.883   7.536  17.791  0.00  0.00    +0.000 C 
ENDBRANCH   1  18
TORSDOF 2
ENDMDL
MODEL 4
REMARK VINA RESULT:      -6.0      1.809      4.468
REMARK  Name = 
REMARK  2 active torsions:
REMARK  status: ('A' for Active; 'I' for Inactive)
REMARK    1  A    between atoms: C_2  and  C_3
REMARK    2  A    between atoms: C_12  and  N_13
REMARK                            x       y       z     vdW  Elec       q    Type
REMARK                         _______ _______ _______ _____ _____    ______ ____
ROOT
ATOM      1  C   UNL     1       6.101   4.178  14.598  0.00  0.00    +0.000 A 
ATOM      2  C   UNL     1       5.345   3.763  15.704  0.00  0.00    +0.000 A 
ATOM      3  C   UNL     1       5.716   4.269  16.955  0.00  0.00    +0.000 A 
ATOM      4  C   UNL     1       5.276   4.182  18.300  0.00  0.00    +0.000 A 
ATOM      5  N   UNL     1       4.228   3.460  18.706  0.00  0.00    +0.000 N 
ATOM      6  N   UNL     1       6.024   4.910  19.127  0.00  0.00    +0.000 NA
ATOM      7  N   UNL     1       6.945   5.467  18.315  0.00  0.00    +0.000 N 
ATOM      8  C   UNL     1       6.810   5.116  17.003  0.00  0.00    +0.000 A 
ATOM      9  N   UNL     1       7.577   5.528  15.976  0.00  0.00    +0.000 NA
ATOM     10  C   UNL     1       7.191   5.044  14.776  0.00  0.00    +0.000 A 
ATOM     11  H   UNL     1       3.635   2.915  18.095  0.00  0.00    +0.000 HD
ATOM     12  H   UNL     1       3.964   3.475  19.685  0.00  0.00    +0.000 HD
ATOM     13  H   UNL     1       7.640   6.088  18.710  0.00  0.00    +0.000 HD
ENDROOT
BRANCH  10  14
ATOM     14  N   UNL     1       7.901   5.558  13.690  0.00  0.00    +0.000 N 
ATOM     15  H   UNL     1       7.455   5.249  12.830  0.00  0.00    +0.000 HD
ATOM     16  H   UNL     1       8.059   6.559  13.714  0.00  0.00    +0.000 HD
ENDBRANCH  10  14
BRANCH   1  18
ATOM     17  N   UNL     1       5.499   3.277  12.246  0.00  0.00    +0.000 NA
ATOM     18  C   UNL     1       5.751   3.691  13.302  0.00  0.00    +0.000 C 
ENDBRANCH   1  18
TORSDOF 2
ENDMDL
MODEL 5
REMARK VINA RESULT:      -5.9      1.638      2.825
REMARK  Name = 
REMARK  2 active torsions:
REMARK  status: ('A' for Active; 'I' for Inactive)
REMARK    1  A    between atoms: C_2  and  C_3
REMARK    2  A    between atoms: C_12  and  N_13
REMARK                            x       y       z     vdW  Elec       q    Type
REMARK                         _______ _______ _______ _____ _____    ______ ____
ROOT
ATOM      1  C   UNL     1       5.393   4.197  17.856  0.00  0.00    +0.000 A 
ATOM      2  C   UNL     1       5.092   3.912  16.516  0.00  0.00    +0.000 A 
ATOM      3  C   UNL     1       5.962   4.424  15.545  0.00  0.00    +0.000 A 
ATOM      4  C   UNL     1       6.103   4.391  14.135  0.00  0.00    +0.000 A 
ATOM      5  N   UNL     1       5.274   3.749  13.307  0.00  0.00    +0.000 N 
ATOM      6  N   UNL     1       7.168   5.073  13.716  0.00  0.00    +0.000 NA
ATOM      7  N   UNL     1       7.713   5.543  14.856  0.00  0.00    +0.000 N 
ATOM      8  C   UNL     1       7.030   5.186  15.983  0.00  0.00    +0.000 A 
ATOM      9  N   UNL     1       7.350   5.504  17.252  0.00  0.00    +0.000 NA
ATOM     10  C   UNL     1       6.510   4.985  18.173  0.00  0.00    +0.000 A 
ATOM     11  H   UNL     1       4.472   3.210  13.603  0.00  0.00    +0.000 HD
ATOM     12  H   UNL     1       5.465   3.754  12.312  0.00  0.00    +0.000 HD
ATOM     13  H   UNL     1       8.559   6.098  14.806  0.00  0.00    +0.000 HD
ENDROOT
BRANCH  10  14
ATOM     14  N   UNL     1       6.897   5.204  19.496  0.00  0.00    +0.000 N 
ATOM     15  H   UNL     1       7.190   6.173  19.597  0.00  0.00    +0.000 HD
ATOM     16  H   UNL     1       6.217   4.924  20.195  0.00  0.00    +0.000 HD
ENDBRANCH  10  14
BRANCH   1  18
ATOM     17  N   UNL     1       3.820   3.256  19.683  0.00  0.00    +0.000 NA
ATOM     18  C   UNL     1       4.536   3.689  18.877  0.00  0.00    +0.000 C 
ENDBRANCH   1  18
TORSDOF 2
ENDMDL
MODEL 6
REMARK VINA RESULT:      -5.9      1.510      1.510
REMARK  Name = 
REMARK  2 active torsions:
REMARK  status: ('A' for Active; 'I' for Inactive)
REMARK    1  A    between atoms: C_2  and  C_3
REMARK    2  A    between atoms: C_12  and  N_13
REMARK                            x       y       z     vdW  Elec       q    Type
REMARK                         _______ _______ _______ _____ _____    ______ ____
ROOT
ATOM      1  C   UNL     1       3.792   3.611  18.076  0.00  0.00    +0.000 A 
ATOM      2  C   UNL     1       3.950   4.595  17.088  0.00  0.00    +0.000 A 
ATOM      3  C   UNL     1       5.151   5.313  17.091  0.00  0.00    +0.000 A 
ATOM      4  C   UNL     1       5.771   6.332  16.325  0.00  0.00    +0.000 A 
ATOM      5  N   UNL     1       5.221   6.914  15.255  0.00  0.00    +0.000 N 
ATOM      6  N   UNL     1       6.979   6.650  16.786  0.00  0.00    +0.000 NA
ATOM      7  N   UNL     1       7.138   5.835  17.849  0.00  0.00    +0.000 N 
ATOM      8  C   UNL     1       6.072   5.013  18.079  0.00  0.00    +0.000 A 
ATOM      9  N   UNL     1       5.961   4.095  19.058  0.00  0.00    +0.000 NA
ATOM     10  C   UNL     1       4.803   3.401  19.026  0.00  0.00    +0.000 A 
ATOM     11  H   UNL     1       4.315   6.676  14.876  0.00  0.00    +0.000 HD
ATOM     12  H   UNL     1       5.746   7.617  14.748  0.00  0.00    +0.000 HD
ATOM     13  H   UNL     1       8.001   5.875  18.377  0.00  0.00    +0.000 HD
ENDROOT
BRANCH  10  14
ATOM     14  N   UNL     1       4.725   2.365  19.959  0.00  0.00    +0.000 N 
ATOM     15  H   UNL     1       5.663   2.017  20.143  0.00  0.00    +0.000 HD
ATOM     16  H   UNL     1       4.214   2.588  20.806  0.00  0.00    +0.000 HD
ENDBRANCH  10  14
BRANCH   1  18
ATOM     17  N   UNL     1       1.608   2.224  18.163  0.00  0.00    +0.000 NA
ATOM     18  C   UNL     1       2.585   2.850  18.104  0.00  0.00    +0.000 C 
ENDBRANCH   1  18
TORSDOF 2
ENDMDL
MODEL 7
REMARK VINA RESULT:      -5.9      0.643      4.345
REMARK  Name = 
REMARK  2 active torsions:
REMARK  status: ('A' for Active; 'I' for Inactive)
REMARK    1  A    between atoms: C_2  and  C_3
REMARK    2  A    between atoms: C_12  and  N_13
REMARK                            x       y       z     vdW  Elec       q    Type
REMARK                         _______ _______ _______ _____ _____    ______ ____
ROOT
ATOM      1  C   UNL     1       5.906   4.733  16.838  0.00  0.00    +0.000 A 
ATOM      2  C   UNL     1       4.510   4.676  16.722  0.00  0.00    +0.000 A 
ATOM      3  C   UNL     1       3.786   4.381  17.884  0.00  0.00    +0.000 A 
ATOM      4  C   UNL     1       2.430   4.245  18.275  0.00  0.00    +0.000 A 
ATOM      5  N   UNL     1       1.388   4.399  17.453  0.00  0.00    +0.000 N 
ATOM      6  N   UNL     1       2.302   3.951  19.567  0.00  0.00    +0.000 NA
ATOM      7  N   UNL     1       3.575   3.897  20.009  0.00  0.00    +0.000 N 
ATOM      8  C   UNL     1       4.506   4.145  19.042  0.00  0.00    +0.000 A 
ATOM      9  N   UNL     1       5.843   4.168  19.200  0.00  0.00    +0.000 NA
ATOM     10  C   UNL     1       6.521   4.474  18.073  0.00  0.00    +0.000 A 
ATOM     11  H   UNL     1       1.460   4.641  16.474  0.00  0.00    +0.000 HD
ATOM     12  H   UNL     1       0.448   4.311  17.822  0.00  0.00    +0.000 HD
ATOM     13  H   UNL     1       3.750   3.695  20.986  0.00  0.00    +0.000 HD
ENDROOT
BRANCH  10  14
ATOM     14  N   UNL     1       7.898   4.620  18.248  0.00  0.00    +0.000 N 
ATOM     15  H   UNL     1       8.379   4.091  17.526  0.00  0.00    +0.000 HD
ATOM     16  H   UNL     1       8.223   5.579  18.317  0.00  0.00    +0.000 HD
ENDBRANCH  10  14
BRANCH   1  18
ATOM     17  N   UNL     1       7.343   5.276  14.754  0.00  0.00    +0.000 NA
ATOM     18  C   UNL     1       6.681   5.039  15.679  0.00  0.00    +0.000 C 
ENDBRANCH   1  18
TORSDOF 2
ENDMDL
MODEL 8
REMARK VINA RESULT:      -5.8      1.277      4.322
REMARK  Name = 
REMARK  2 active torsions:
REMARK  status: ('A' for Active; 'I' for Inactive)
REMARK    1  A    between atoms: C_2  and  C_3
REMARK    2  A    between atoms: C_12  and  N_13
REMARK                            x       y       z     vdW  Elec       q    Type
REMARK                         _______ _______ _______ _____ _____    ______ ____
ROOT
ATOM      1  C   UNL     1       6.130   4.516  16.862  0.00  0.00    +0.000 A 
ATOM      2  C   UNL     1       4.995   3.701  16.736  0.00  0.00    +0.000 A 
ATOM      3  C   UNL     1       4.336   3.339  17.917  0.00  0.00    +0.000 A 
ATOM      4  C   UNL     1       3.190   2.597  18.300  0.00  0.00    +0.000 A 
ATOM      5  N   UNL     1       2.369   1.982  17.445  0.00  0.00    +0.000 N 
ATOM      6  N   UNL     1       3.013   2.583  19.620  0.00  0.00    +0.000 NA
ATOM      7  N   UNL     1       4.044   3.315  20.087  0.00  0.00    +0.000 N 
ATOM      8  C   UNL     1       4.870   3.792  19.111  0.00  0.00    +0.000 A 
ATOM      9  N   UNL     1       5.965   4.557  19.286  0.00  0.00    +0.000 NA
ATOM     10  C   UNL     1       6.574   4.911  18.133  0.00  0.00    +0.000 A 
ATOM     11  H   UNL     1       2.472   1.996  16.439  0.00  0.00    +0.000 HD
ATOM     12  H   UNL     1       1.555   1.496  17.802  0.00  0.00    +0.000 HD
ATOM     13  H   UNL     1       4.130   3.466  21.085  0.00  0.00    +0.000 HD
ENDROOT
BRANCH  10  14
ATOM     14  N   UNL     1       7.637   5.802  18.292  0.00  0.00    +0.000 N 
ATOM     15  H   UNL     1       7.569   6.524  17.578  0.00  0.00    +0.000 HD
ATOM     16  H   UNL     1       7.744   6.181  19.227  0.00  0.00    +0.000 HD
ENDBRANCH  10  14
BRANCH   1  18
ATOM     17  N   UNL     1       7.363   5.252  14.708  0.00  0.00    +0.000 NA
ATOM     18  C   UNL     1       6.827   4.914  15.682  0.00  0.00    +0.000 C 
ENDBRANCH   1  18
TORSDOF 2
ENDMDL
MODEL 9
REMARK VINA RESULT:      -5.8      1.723      4.004
REMARK  Name = 
REMARK  2 active torsions:
REMARK  status: ('A' for Active; 'I' for Inactive)
REMARK    1  A    between atoms: C_2  and  C_3
REMARK    2  A    between atoms: C_12  and  N_13
REMARK                            x       y       z     vdW  Elec       q    Type
REMARK                         _______ _______ _______ _____ _____    ______ ____
ROOT
ATOM      1  C   UNL     1       5.116   5.242  17.045  0.00  0.00    +0.000 A 
ATOM      2  C   UNL     1       4.120   4.256  17.021  0.00  0.00    +0.000 A 
ATOM      3  C   UNL     1       4.109   3.336  18.076  0.00  0.00    +0.000 A 
ATOM      4  C   UNL     1       3.331   2.230  18.502  0.00  0.00    +0.000 A 
ATOM      5  N   UNL     1       2.260   1.765  17.853  0.00  0.00    +0.000 N 
ATOM      6  N   UNL     1       3.783   1.699  19.637  0.00  0.00    +0.000 NA
ATOM      7  N   UNL     1       4.851   2.464  19.942  0.00  0.00    +0.000 N 
ATOM      8  C   UNL     1       5.094   3.459  19.040  0.00  0.00    +0.000 A 
ATOM      9  N   UNL     1       6.082   4.373  19.097  0.00  0.00    +0.000 NA
ATOM     10  C   UNL     1       6.062   5.262  18.081  0.00  0.00    +0.000 A 
ATOM     11  H   UNL     1       1.888   2.162  17.002  0.00  0.00    +0.000 HD
ATOM     12  H   UNL     1       1.744   0.984  18.244  0.00  0.00    +0.000 HD
ATOM     13  H   UNL     1       5.375   2.266  20.787  0.00  0.00    +0.000 HD
ENDROOT
BRANCH  10  14
ATOM     14  N   UNL     1       7.003   6.287  18.192  0.00  0.00    +0.000 N 
ATOM     15  H   UNL     1       7.935   5.887  18.111  0.00  0.00    +0.000 HD
ATOM     16  H   UNL     1       6.856   7.074  17.569  0.00  0.00    +0.000 HD
ENDBRANCH  10  14
BRANCH   1  18
ATOM     17  N   UNL     1       5.187   7.015  15.159  0.00  0.00    +0.000 NA
ATOM     18  C   UNL     1       5.158   6.205  15.991  0.00  0.00    +0.000 C 
ENDBRANCH   1  18
TORSDOF 2
ENDMDL
