MODEL 1
REMARK VINA RESULT:      -6.3      0.000      0.000
REMARK  Name = 
REMARK  4 active torsions:
REMARK  status: ('A' for Active; 'I' for Inactive)
REMARK    1  A    between atoms: C_1  and  C_2
REMARK    2  A    between atoms: C_2  and  N_3
REMARK    3  A    between atoms: N_10  and  C_11
REMARK    4  A    between atoms: C_20  and  C_21
REMARK                            x       y       z     vdW  Elec       q    Type
REMARK                         _______ _______ _______ _____ _____    ______ ____
ROOT
ATOM      1  N   UNL     1       0.880   9.316  18.476  0.00  0.00    +0.000 NA
ATOM      2  C   UNL     1       1.641   8.571  17.436  0.00  0.00    +0.000 C 
ATOM      3  C   UNL     1       3.019   8.033  17.893  0.00  0.00    +0.000 C 
ATOM      4  N   UNL     1       2.868   7.255  19.123  0.00  0.00    +0.000 N 
ATOM      5  C   UNL     1       3.300   5.958  19.227  0.00  0.00    +0.000 A 
ATOM      6  N   UNL     1       4.316   5.562  18.382  0.00  0.00    +0.000 NA
ATOM      7  C   UNL     1       4.860   4.386  18.509  0.00  0.00    +0.000 A 
ATOM      8  N   UNL     1       5.948   3.940  17.787  0.00  0.00    +0.000 N 
ATOM      9  N   UNL     1       4.309   3.522  19.466  0.00  0.00    +0.000 N 
ATOM     10  N   UNL     1       4.717   2.246  19.680  0.00  0.00    +0.000 NA
ATOM     11  C   UNL     1       3.821   1.806  20.578  0.00  0.00    +0.000 A 
ATOM     12  C   UNL     1       2.881   2.791  20.949  0.00  0.00    +0.000 A 
ATOM     13  C   UNL     1       3.239   3.908  20.228  0.00  0.00    +0.000 A 
ATOM     14  N   UNL     1       2.761   5.167  20.123  0.00  0.00    +0.000 NA
ATOM     15  C   UNL     1       2.118   7.910  20.196  0.00  0.00    +0.000 C 
ATOM     16  C   UNL     1       0.771   8.435  19.665  0.00  0.00    +0.000 C 
ATOM     17  H   UNL     1       6.363   3.063  18.089  0.00  0.00    +0.000 HD
ENDROOT
BRANCH   8  18
ATOM     18  C   UNL     1       6.280   4.322  16.474  0.00  0.00    +0.000 A 
ATOM     19  C   UNL     1       5.702   3.638  15.395  0.00  0.00    +0.000 A 
ATOM     20  C   UNL     1       6.006   3.987  14.074  0.00  0.00    +0.000 A 
ATOM     21  C   UNL     1       6.882   5.038  13.813  0.00  0.00    +0.000 A 
ATOM     22  C   UNL     1       7.475   5.719  14.873  0.00  0.00    +0.000 A 
ATOM     23  C   UNL     1       7.189   5.351  16.192  0.00  0.00    +0.000 A 
ENDBRANCH   8  18
BRANCH   1  25
ATOM     24  C   UNL     1       0.830  11.422  19.841  0.00  0.00    +0.000 C 
ATOM     25  C   UNL     1       1.529  10.607  18.759  0.00  0.00    +0.000 C 
ENDBRANCH   1  25
BRANCH  12  26
ATOM     26  C   UNL     1       1.795   2.680  21.866  0.00  0.00    +0.000 C 
ATOM     27  N   UNL     1       0.911   2.547  22.607  0.00  0.00    +0.000 NA
ENDBRANCH  12  26
TORSDOF 3
ENDMDL
MODEL 2
REMARK VINA RESULT:      -5.9      6.338     12.161
REMARK  Name = 
REMARK  4 active torsions:
REMARK  status: ('A' for Active; 'I' for Inactive)
REMARK    1  A    between atoms: C_1  and  C_2
REMARK    2  A    between atoms: C_2  and  N_3
REMARK    3  A    between atoms: N_10  and  C_11
REMARK    4  A    between atoms: C_20  and  C_21
REMARK                            x       y       z     vdW  Elec       q    Type
REMARK                         _______ _______ _______ _____ _____    ______ ____
ROOT
ATOM      1  N   UNL     1       1.044  11.215  19.293  0.00  0.00    +0.000 NA
ATOM      2  C   UNL     1      -0.227  11.749  18.732  0.00  0.00    +0.000 C 
ATOM      3  C   UNL     1      -1.499  11.395  19.540  0.00  0.00    +0.000 C 
ATOM      4  N   UNL     1      -1.320  11.772  20.942  0.00  0.00    +0.000 N 
ATOM      5  C   UNL     1      -2.192  12.605  21.594  0.00  0.00    +0.000 A 
ATOM      6  N   UNL     1      -3.482  12.671  21.110  0.00  0.00    +0.000 NA
ATOM      7  C   UNL     1      -4.394  13.344  21.751  0.00  0.00    +0.000 A 
ATOM      8  N   UNL     1      -5.730  13.382  21.408  0.00  0.00    +0.000 N 
ATOM      9  N   UNL     1      -3.987  14.062  22.884  0.00  0.00    +0.000 N 
ATOM     10  N   UNL     1      -4.796  14.860  23.625  0.00  0.00    +0.000 NA
ATOM     11  C   UNL     1      -3.936  15.412  24.495  0.00  0.00    +0.000 A 
ATOM     12  C   UNL     1      -2.612  14.952  24.330  0.00  0.00    +0.000 A 
ATOM     13  C   UNL     1      -2.679  14.053  23.289  0.00  0.00    +0.000 A 
ATOM     14  N   UNL     1      -1.783  13.273  22.645  0.00  0.00    +0.000 NA
ATOM     15  C   UNL     1      -0.086  11.297  21.570  0.00  0.00    +0.000 C 
ATOM     16  C   UNL     1       1.133  11.668  20.704  0.00  0.00    +0.000 C 
ATOM     17  H   UNL     1      -6.357  13.822  22.077  0.00  0.00    +0.000 HD
ENDROOT
BRANCH   8  18
ATOM     18  C   UNL     1      -6.252  13.269  20.106  0.00  0.00    +0.000 A 
ATOM     19  C   UNL     1      -6.635  12.008  19.629  0.00  0.00    +0.000 A 
ATOM     20  C   UNL     1      -7.159  11.853  18.340  0.00  0.00    +0.000 A 
ATOM     21  C   UNL     1      -7.323  12.963  17.516  0.00  0.00    +0.000 A 
ATOM     22  C   UNL     1      -6.936  14.221  17.969  0.00  0.00    +0.000 A 
ATOM     23  C   UNL     1      -6.388  14.368  19.248  0.00  0.00    +0.000 A 
ENDBRANCH   8  18
BRANCH   1  25
ATOM     24  C   UNL     1       1.817   9.291  17.880  0.00  0.00    +0.000 C 
ATOM     25  C   UNL     1       1.096   9.752  19.141  0.00  0.00    +0.000 C 
ENDBRANCH   1  25
BRANCH  12  26
ATOM     26  C   UNL     1      -1.447  15.320  25.065  0.00  0.00    +0.000 C 
ATOM     27  N   UNL     1      -0.476  15.618  25.628  0.00  0.00    +0.000 NA
ENDBRANCH  12  26
TORSDOF 3
ENDMDL
MODEL 3
REMARK VINA RESULT:      -5.9      8.755      9.534
REMARK  Name = 
REMARK  4 active torsions:
REMARK  status: ('A' for Active; 'I' for Inactive)
REMARK    1  A    between atoms: C_1  and  C_2
REMARK    2  A    between atoms: C_2  and  N_3
REMARK    3  A    between atoms: N_10  and  C_11
REMARK    4  A    between atoms: C_20  and  C_21
REMARK                            x       y       z     vdW  Elec       q    Type
REMARK                         _______ _______ _______ _____ _____    ______ ____
ROOT
ATOM      1  N   UNL     1       2.372  15.283  20.428  0.00  0.00    +0.000 NA
ATOM      2  C   UNL     1       3.511  14.435  19.983  0.00  0.00    +0.000 C 
ATOM      3  C   UNL     1       4.881  14.803  20.603  0.00  0.00    +0.000 C 
ATOM      4  N   UNL     1       4.772  14.851  22.062  0.00  0.00    +0.000 N 
ATOM      5  C   UNL     1       5.579  14.106  22.881  0.00  0.00    +0.000 A 
ATOM      6  N   UNL     1       6.805  13.721  22.380  0.00  0.00    +0.000 NA
ATOM      7  C   UNL     1       7.672  13.121  23.143  0.00  0.00    +0.000 A 
ATOM      8  N   UNL     1       8.958  12.793  22.766  0.00  0.00    +0.000 N 
ATOM      9  N   UNL     1       7.270  12.805  24.448  0.00  0.00    +0.000 N 
ATOM     10  N   UNL     1       8.028  12.127  25.347  0.00  0.00    +0.000 NA
ATOM     11  C   UNL     1       7.179  11.965  26.374  0.00  0.00    +0.000 A 
ATOM     12  C   UNL     1       5.916  12.553  26.145  0.00  0.00    +0.000 A 
ATOM     13  C   UNL     1       6.013  13.116  24.891  0.00  0.00    +0.000 A 
ATOM     14  N   UNL     1       5.176  13.816  24.095  0.00  0.00    +0.000 NA
ATOM     15  C   UNL     1       3.666  15.655  22.585  0.00  0.00    +0.000 C 
ATOM     16  C   UNL     1       2.342  15.248  21.911  0.00  0.00    +0.000 C 
ATOM     17  H   UNL     1       9.577  12.464  23.504  0.00  0.00    +0.000 HD
ENDROOT
BRANCH   8  18
ATOM     18  C   UNL     1       9.381  12.471  21.463  0.00  0.00    +0.000 A 
ATOM     19  C   UNL     1       9.161  11.176  20.973  0.00  0.00    +0.000 A 
ATOM     20  C   UNL     1       9.566  10.815  19.682  0.00  0.00    +0.000 A 
ATOM     21  C   UNL     1      10.182  11.752  18.857  0.00  0.00    +0.000 A 
ATOM     22  C   UNL     1      10.420  13.039  19.332  0.00  0.00    +0.000 A 
ATOM     23  C   UNL     1      10.037  13.388  20.632  0.00  0.00    +0.000 A 
ENDBRANCH   8  18
BRANCH   1  25
ATOM     24  C   UNL     1       2.476  16.688  18.350  0.00  0.00    +0.000 C 
ATOM     25  C   UNL     1       2.498  16.641  19.874  0.00  0.00    +0.000 C 
ENDBRANCH   1  25
BRANCH  12  26
ATOM     26  C   UNL     1       4.779  12.576  27.004  0.00  0.00    +0.000 C 
ATOM     27  N   UNL     1       3.842  12.555  27.690  0.00  0.00    +0.000 NA
ENDBRANCH  12  26
TORSDOF 3
ENDMDL
MODEL 4
REMARK VINA RESULT:      -5.8      8.588     10.266
REMARK  Name = 
REMARK  4 active torsions:
REMARK  status: ('A' for Active; 'I' for Inactive)
REMARK    1  A    between atoms: C_1  and  C_2
REMARK    2  A    between atoms: C_2  and  N_3
REMARK    3  A    between atoms: N_10  and  C_11
REMARK    4  A    between atoms: C_20  and  C_21
REMARK                            x       y       z     vdW  Elec       q    Type
REMARK                         _______ _______ _______ _____ _____    ______ ____
ROOT
ATOM      1  N   UNL     1      -3.189   9.807  16.932  0.00  0.00    +0.000 NA
ATOM      2  C   UNL     1      -1.817  10.356  17.108  0.00  0.00    +0.000 C 
ATOM      3  C   UNL     1      -1.754  11.867  17.442  0.00  0.00    +0.000 C 
ATOM      4  N   UNL     1      -2.611  12.159  18.592  0.00  0.00    +0.000 N 
ATOM      5  C   UNL     1      -2.138  12.777  19.720  0.00  0.00    +0.000 A 
ATOM      6  N   UNL     1      -1.020  13.574  19.581  0.00  0.00    +0.000 NA
ATOM      7  C   UNL     1      -0.590  14.288  20.581  0.00  0.00    +0.000 A 
ATOM      8  N   UNL     1       0.450  15.193  20.511  0.00  0.00    +0.000 N 
ATOM      9  N   UNL     1      -1.247  14.137  21.809  0.00  0.00    +0.000 N 
ATOM     10  N   UNL     1      -0.886  14.759  22.960  0.00  0.00    +0.000 NA
ATOM     11  C   UNL     1      -1.718  14.206  23.858  0.00  0.00    +0.000 A 
ATOM     12  C   UNL     1      -2.609  13.274  23.284  0.00  0.00    +0.000 A 
ATOM     13  C   UNL     1      -2.297  13.269  21.943  0.00  0.00    +0.000 A 
ATOM     14  N   UNL     1      -2.766  12.612  20.859  0.00  0.00    +0.000 NA
ATOM     15  C   UNL     1      -3.978  11.642  18.507  0.00  0.00    +0.000 C 
ATOM     16  C   UNL     1      -3.963  10.143  18.154  0.00  0.00    +0.000 C 
ATOM     17  H   UNL     1       0.585  15.790  21.323  0.00  0.00    +0.000 HD
ENDROOT
BRANCH   8  18
ATOM     18  C   UNL     1       1.566  15.105  19.659  0.00  0.00    +0.000 A 
ATOM     19  C   UNL     1       1.789  16.118  18.715  0.00  0.00    +0.000 A 
ATOM     20  C   UNL     1       2.888  16.068  17.850  0.00  0.00    +0.000 A 
ATOM     21  C   UNL     1       3.790  15.010  17.927  0.00  0.00    +0.000 A 
ATOM     22  C   UNL     1       3.576  13.989  18.850  0.00  0.00    +0.000 A 
ATOM     23  C   UNL     1       2.463  14.029  19.696  0.00  0.00    +0.000 A 
ENDBRANCH   8  18
BRANCH   1  25
ATOM     24  C   UNL     1      -2.976  10.029  14.441  0.00  0.00    +0.000 C 
ATOM     25  C   UNL     1      -3.794  10.325  15.694  0.00  0.00    +0.000 C 
ENDBRANCH   1  25
BRANCH  12  26
ATOM     26  C   UNL     1      -3.618  12.500  23.928  0.00  0.00    +0.000 C 
ATOM     27  N   UNL     1      -4.454  11.904  24.470  0.00  0.00    +0.000 NA
ENDBRANCH  12  26
TORSDOF 3
ENDMDL
MODEL 5
REMARK VINA RESULT:      -5.8      8.001     11.970
REMARK  Name = 
REMARK  4 active torsions:
REMARK  status: ('A' for Active; 'I' for Inactive)
REMARK    1  A    between atoms: C_1  and  C_2
REMARK    2  A    between atoms: C_2  and  N_3
REMARK    3  A    between atoms: N_10  and  C_11
REMARK    4  A    between atoms: C_20  and  C_21
REMARK                            x       y       z     vdW  Elec       q    Type
REMARK                         _______ _______ _______ _____ _____    ______ ____
ROOT
ATOM      1  N   UNL     1      -7.530  12.979  19.949  0.00  0.00    +0.000 NA
ATOM      2  C   UNL     1      -6.484  12.012  20.380  0.00  0.00    +0.000 C 
ATOM      3  C   UNL     1      -5.026  12.504  20.208  0.00  0.00    +0.000 C 
ATOM      4  N   UNL     1      -4.861  13.808  20.850  0.00  0.00    +0.000 N 
ATOM      5  C   UNL     1      -3.907  14.039  21.806  0.00  0.00    +0.000 A 
ATOM      6  N   UNL     1      -2.792  13.226  21.794  0.00  0.00    +0.000 NA
ATOM      7  C   UNL     1      -1.792  13.466  22.591  0.00  0.00    +0.000 A 
ATOM      8  N   UNL     1      -0.595  12.780  22.580  0.00  0.00    +0.000 N 
ATOM      9  N   UNL     1      -1.939  14.513  23.511  0.00  0.00    +0.000 N 
ATOM     10  N   UNL     1      -1.019  14.852  24.450  0.00  0.00    +0.000 NA
ATOM     11  C   UNL     1      -1.660  15.801  25.150  0.00  0.00    +0.000 A 
ATOM     12  C   UNL     1      -2.949  16.082  24.649  0.00  0.00    +0.000 A 
ATOM     13  C   UNL     1      -3.094  15.245  23.564  0.00  0.00    +0.000 A 
ATOM     14  N   UNL     1      -4.073  15.019  22.661  0.00  0.00    +0.000 NA
ATOM     15  C   UNL     1      -5.858  14.818  20.490  0.00  0.00    +0.000 C 
ATOM     16  C   UNL     1      -7.280  14.254  20.667  0.00  0.00    +0.000 C 
ATOM     17  H   UNL     1       0.154  13.165  23.150  0.00  0.00    +0.000 HD
ENDROOT
BRANCH   8  18
ATOM     18  C   UNL     1      -0.420  11.430  22.221  0.00  0.00    +0.000 A 
ATOM     19  C   UNL     1       0.072  11.118  20.946  0.00  0.00    +0.000 A 
ATOM     20  C   UNL     1       0.261   9.789  20.552  0.00  0.00    +0.000 A 
ATOM     21  C   UNL     1      -0.025   8.751  21.435  0.00  0.00    +0.000 A 
ATOM     22  C   UNL     1      -0.527   9.042  22.700  0.00  0.00    +0.000 A 
ATOM     23  C   UNL     1      -0.739  10.371  23.082  0.00  0.00    +0.000 A 
ENDBRANCH   8  18
BRANCH   1  25
ATOM     24  C   UNL     1      -7.017  11.883  17.750  0.00  0.00    +0.000 C 
ATOM     25  C   UNL     1      -7.524  13.120  18.483  0.00  0.00    +0.000 C 
ENDBRANCH   1  25
BRANCH  12  26
ATOM     26  C   UNL     1      -3.906  17.019  25.137  0.00  0.00    +0.000 C 
ATOM     27  N   UNL     1      -4.688  17.759  25.570  0.00  0.00    +0.000 NA
ENDBRANCH  12  26
TORSDOF 3
ENDMDL
MODEL 6
REMARK VINA RESULT:      -5.7      5.259      8.930
REMARK  Name = 
REMARK  4 active torsions:
REMARK  status: ('A' for Active; 'I' for Inactive)
REMARK    1  A    between atoms: C_1  and  C_2
REMARK    2  A    between atoms: C_2  and  N_3
REMARK    3  A    between atoms: N_10  and  C_11
REMARK    4  A    between atoms: C_20  and  C_21
REMARK                            x       y       z     vdW  Elec       q    Type
REMARK                         _______ _______ _______ _____ _____    ______ ____
ROOT
ATOM      1  N   UNL     1       3.150  16.357  18.837  0.00  0.00    +0.000 NA
ATOM      2  C   UNL     1       2.859  14.970  18.383  0.00  0.00    +0.000 C 
ATOM      3  C   UNL     1       2.971  13.884  19.481  0.00  0.00    +0.000 C 
ATOM      4  N   UNL     1       2.160  14.260  20.639  0.00  0.00    +0.000 N 
ATOM      5  C   UNL     1       1.187  13.442  21.149  0.00  0.00    +0.000 A 
ATOM      6  N   UNL     1       1.315  12.088  20.916  0.00  0.00    +0.000 NA
ATOM      7  C   UNL     1       0.499  11.242  21.473  0.00  0.00    +0.000 A 
ATOM      8  N   UNL     1       0.609   9.869  21.388  0.00  0.00    +0.000 N 
ATOM      9  N   UNL     1      -0.556  11.769  22.232  0.00  0.00    +0.000 N 
ATOM     10  N   UNL     1      -1.526  11.028  22.826  0.00  0.00    +0.000 NA
ATOM     11  C   UNL     1      -2.351  11.971  23.307  0.00  0.00    +0.000 A 
ATOM     12  C   UNL     1      -1.900  13.284  23.051  0.00  0.00    +0.000 A 
ATOM     13  C   UNL     1      -0.713  13.121  22.371  0.00  0.00    +0.000 A 
ATOM     14  N   UNL     1       0.206  13.961  21.848  0.00  0.00    +0.000 NA
ATOM     15  C   UNL     1       2.375  15.618  21.144  0.00  0.00    +0.000 C 
ATOM     16  C   UNL     1       2.267  16.639  19.997  0.00  0.00    +0.000 C 
ATOM     17  H   UNL     1      -0.004   9.326  21.991  0.00  0.00    +0.000 HD
ENDROOT
BRANCH   8  18
ATOM     18  C   UNL     1       1.147   9.149  20.305  0.00  0.00    +0.000 A 
ATOM     19  C   UNL     1       1.035   9.674  19.010  0.00  0.00    +0.000 A 
ATOM     20  C   UNL     1       1.558   8.990  17.907  0.00  0.00    +0.000 A 
ATOM     21  C   UNL     1       2.216   7.776  18.086  0.00  0.00    +0.000 A 
ATOM     22  C   UNL     1       2.325   7.234  19.364  0.00  0.00    +0.000 A 
ATOM     23  C   UNL     1       1.779   7.908  20.461  0.00  0.00    +0.000 A 
ENDBRANCH   8  18
BRANCH   1  25
ATOM     24  C   UNL     1       5.494  15.733  18.194  0.00  0.00    +0.000 C 
ATOM     25  C   UNL     1       4.583  16.507  19.140  0.00  0.00    +0.000 C 
ENDBRANCH   1  25
BRANCH  12  26
ATOM     26  C   UNL     1      -2.516  14.519  23.409  0.00  0.00    +0.000 C 
ATOM     27  N   UNL     1      -2.989  15.545  23.676  0.00  0.00    +0.000 NA
ENDBRANCH  12  26
TORSDOF 3
ENDMDL
MODEL 7
REMARK VINA RESULT:      -5.7      1.355      6.125
REMARK  Name = 
REMARK  4 active torsions:
REMARK  status: ('A' for Active; 'I' for Inactive)
REMARK    1  A    between atoms: C_1  and  C_2
REMARK    2  A    between atoms: C_2  and  N_3
REMARK    3  A    between atoms: N_10  and  C_11
REMARK    4  A    between atoms: C_20  and  C_21
REMARK                            x       y       z     vdW  Elec       q    Type
REMARK                         _______ _______ _______ _____ _____    ______ ____
ROOT
ATOM      1  N   UNL     1       7.485   5.431  15.166  0.00  0.00    +0.000 NA
ATOM      2  C   UNL     1       6.762   6.508  15.895  0.00  0.00    +0.000 C 
ATOM      3  C   UNL     1       5.247   6.261  16.095  0.00  0.00    +0.000 C 
ATOM      4  N   UNL     1       5.032   4.949  16.707  0.00  0.00    +0.000 N 
ATOM      5  C   UNL     1       4.328   4.790  17.871  0.00  0.00    +0.000 A 
ATOM      6  N   UNL     1       3.401   5.762  18.186  0.00  0.00    +0.000 NA
ATOM      7  C   UNL     1       2.610   5.614  19.209  0.00  0.00    +0.000 A 
ATOM      8  N   UNL     1       1.584   6.475  19.541  0.00  0.00    +0.000 N 
ATOM      9  N   UNL     1       2.807   4.486  20.017  0.00  0.00    +0.000 N 
ATOM     10  N   UNL     1       2.112   4.216  21.151  0.00  0.00    +0.000 NA
ATOM     11  C   UNL     1       2.740   3.126  21.619  0.00  0.00    +0.000 A 
ATOM     12  C   UNL     1       3.793   2.693  20.785  0.00  0.00    +0.000 A 
ATOM     13  C   UNL     1       3.797   3.583  19.734  0.00  0.00    +0.000 A 
ATOM     14  N   UNL     1       4.538   3.730  18.614  0.00  0.00    +0.000 NA
ATOM     15  C   UNL     1       5.720   3.831  16.058  0.00  0.00    +0.000 C 
ATOM     16  C   UNL     1       7.214   4.155  15.874  0.00  0.00    +0.000 C 
ATOM     17  H   UNL     1       0.951   6.164  20.274  0.00  0.00    +0.000 HD
ENDROOT
BRANCH   8  18
ATOM     18  C   UNL     1       1.555   7.860  19.295  0.00  0.00    +0.000 A 
ATOM     19  C   UNL     1       1.091   8.725  20.296  0.00  0.00    +0.000 A 
ATOM     20  C   UNL     1       1.048  10.108  20.090  0.00  0.00    +0.000 A 
ATOM     21  C   UNL     1       1.482  10.649  18.883  0.00  0.00    +0.000 A 
ATOM     22  C   UNL     1       1.933   9.803  17.872  0.00  0.00    +0.000 A 
ATOM     23  C   UNL     1       1.952   8.419  18.072  0.00  0.00    +0.000 A 
ENDBRANCH   8  18
BRANCH   1  25
ATOM     24  C   UNL     1       8.255   5.489  12.778  0.00  0.00    +0.000 C 
ATOM     25  C   UNL     1       7.082   5.412  13.750  0.00  0.00    +0.000 C 
ENDBRANCH   1  25
BRANCH  12  26
ATOM     26  C   UNL     1       4.669   1.584  20.966  0.00  0.00    +0.000 C 
ATOM     27  N   UNL     1       5.407   0.694  21.082  0.00  0.00    +0.000 NA
ENDBRANCH  12  26
TORSDOF 3
ENDMDL
MODEL 8
REMARK VINA RESULT:      -5.7      8.781      9.704
REMARK  Name = 
REMARK  4 active torsions:
REMARK  status: ('A' for Active; 'I' for Inactive)
REMARK    1  A    between atoms: C_1  and  C_2
REMARK    2  A    between atoms: C_2  and  N_3
REMARK    3  A    between atoms: N_10  and  C_11
REMARK    4  A    between atoms: C_20  and  C_21
REMARK                            x       y       z     vdW  Elec       q    Type
REMARK                         _______ _______ _______ _____ _____    ______ ____
ROOT
ATOM      1  N   UNL     1       2.876  15.532  19.888  0.00  0.00    +0.000 NA
ATOM      2  C   UNL     1       3.940  14.571  19.491  0.00  0.00    +0.000 C 
ATOM      3  C   UNL     1       5.353  14.896  20.034  0.00  0.00    +0.000 C 
ATOM      4  N   UNL     1       5.299  15.081  21.485  0.00  0.00    +0.000 N 
ATOM      5  C   UNL     1       6.082  14.358  22.345  0.00  0.00    +0.000 A 
ATOM      6  N   UNL     1       7.262  13.845  21.846  0.00  0.00    +0.000 NA
ATOM      7  C   UNL     1       8.112  13.256  22.635  0.00  0.00    +0.000 A 
ATOM      8  N   UNL     1       9.360  12.807  22.253  0.00  0.00    +0.000 N 
ATOM      9  N   UNL     1       7.737  13.087  23.975  0.00  0.00    +0.000 N 
ATOM     10  N   UNL     1       8.479  12.441  24.910  0.00  0.00    +0.000 NA
ATOM     11  C   UNL     1       7.657  12.431  25.971  0.00  0.00    +0.000 A 
ATOM     12  C   UNL     1       6.429  13.083  25.726  0.00  0.00    +0.000 A 
ATOM     13  C   UNL     1       6.519  13.524  24.424  0.00  0.00    +0.000 A 
ATOM     14  N   UNL     1       5.704  14.206  23.592  0.00  0.00    +0.000 NA
ATOM     15  C   UNL     1       4.268  16.004  21.964  0.00  0.00    +0.000 C 
ATOM     16  C   UNL     1       2.897  15.633  21.369  0.00  0.00    +0.000 C 
ATOM     17  H   UNL     1       9.980  12.502  22.999  0.00  0.00    +0.000 HD
ENDROOT
BRANCH   8  18
ATOM     18  C   UNL     1       9.714  12.341  20.973  0.00  0.00    +0.000 A 
ATOM     19  C   UNL     1      10.480  13.161  20.133  0.00  0.00    +0.000 A 
ATOM     20  C   UNL     1      10.854  12.733  18.854  0.00  0.00    +0.000 A 
ATOM     21  C   UNL     1      10.478  11.471  18.402  0.00  0.00    +0.000 A 
ATOM     22  C   UNL     1       9.705  10.649  19.218  0.00  0.00    +0.000 A 
ATOM     23  C   UNL     1       9.312  11.090  20.486  0.00  0.00    +0.000 A 
ENDBRANCH   8  18
BRANCH   1  25
ATOM     24  C   UNL     1       3.027  16.732  17.689  0.00  0.00    +0.000 C 
ATOM     25  C   UNL     1       3.074  16.824  19.210  0.00  0.00    +0.000 C 
ENDBRANCH   1  25
BRANCH  12  26
ATOM     26  C   UNL     1       5.327  13.261  26.612  0.00  0.00    +0.000 C 
ATOM     27  N   UNL     1       4.415  13.367  27.323  0.00  0.00    +0.000 NA
ENDBRANCH  12  26
TORSDOF 3
ENDMDL
MODEL 9
REMARK VINA RESULT:      -5.7      8.559     10.474
REMARK  Name = 
REMARK  4 active torsions:
REMARK  status: ('A' for Active; 'I' for Inactive)
REMARK    1  A    between atoms: C_1  and  C_2
REMARK    2  A    between atoms: C_2  and  N_3
REMARK    3  A    between atoms: N_10  and  C_11
REMARK    4  A    between atoms: C_20  and  C_21
REMARK                            x       y       z     vdW  Elec       q    Type
REMARK                         _______ _______ _______ _____ _____    ______ ____
ROOT
ATOM      1  N   UNL     1      -3.605  15.373  24.044  0.00  0.00    +0.000 NA
ATOM      2  C   UNL     1      -2.538  15.706  23.061  0.00  0.00    +0.000 C 
ATOM      3  C   UNL     1      -1.740  14.492  22.526  0.00  0.00    +0.000 C 
ATOM      4  N   UNL     1      -2.660  13.478  22.011  0.00  0.00    +0.000 N 
ATOM      5  C   UNL     1      -2.575  12.994  20.732  0.00  0.00    +0.000 A 
ATOM      6  N   UNL     1      -1.346  13.065  20.110  0.00  0.00    +0.000 NA
ATOM      7  C   UNL     1      -1.161  12.514  18.945  0.00  0.00    +0.000 A 
ATOM      8  N   UNL     1       0.053  12.438  18.294  0.00  0.00    +0.000 N 
ATOM      9  N   UNL     1      -2.277  11.938  18.322  0.00  0.00    +0.000 N 
ATOM     10  N   UNL     1      -2.268  11.379  17.085  0.00  0.00    +0.000 NA
ATOM     11  C   UNL     1      -3.566  11.096  16.890  0.00  0.00    +0.000 A 
ATOM     12  C   UNL     1      -4.378  11.439  17.992  0.00  0.00    +0.000 A 
ATOM     13  C   UNL     1      -3.508  11.962  18.922  0.00  0.00    +0.000 A 
ATOM     14  N   UNL     1      -3.636  12.468  20.168  0.00  0.00    +0.000 NA
ATOM     15  C   UNL     1      -3.751  13.101  22.911  0.00  0.00    +0.000 C 
ATOM     16  C   UNL     1      -4.486  14.356  23.418  0.00  0.00    +0.000 C 
ATOM     17  H   UNL     1       0.086  11.852  17.463  0.00  0.00    +0.000 HD
ENDROOT
BRANCH   8  18
ATOM     18  C   UNL     1       1.101  13.372  18.391  0.00  0.00    +0.000 A 
ATOM     19  C   UNL     1       0.802  14.713  18.665  0.00  0.00    +0.000 A 
ATOM     20  C   UNL     1       1.816  15.672  18.771  0.00  0.00    +0.000 A 
ATOM     21  C   UNL     1       3.149  15.298  18.619  0.00  0.00    +0.000 A 
ATOM     22  C   UNL     1       3.463  13.972  18.333  0.00  0.00    +0.000 A 
ATOM     23  C   UNL     1       2.446  13.022  18.203  0.00  0.00    +0.000 A 
ENDBRANCH   8  18
BRANCH   1  25
ATOM     24  C   UNL     1      -1.931  15.869  25.847  0.00  0.00    +0.000 C 
ATOM     25  C   UNL     1      -3.010  14.932  25.316  0.00  0.00    +0.000 C 
ENDBRANCH   1  25
BRANCH  12  26
ATOM     26  C   UNL     1      -5.789  11.287  18.135  0.00  0.00    +0.000 C 
ATOM     27  N   UNL     1      -6.943  11.181  18.215  0.00  0.00    +0.000 NA
ENDBRANCH  12  26
TORSDOF 3
ENDMDL
