MODEL 1
REMARK VINA RESULT:      -9.4      0.000      0.000
REMARK  Name = 
REMARK  7 active torsions:
REMARK  status: ('A' for Active; 'I' for Inactive)
REMARK    1  A    between atoms: C_2  and  O_3
REMARK    2  A    between atoms: C_2  and  C_4
REMARK    3  A    between atoms: C_6  and  S_7
REMARK    4  A    between atoms: S_7  and  N_10
REMARK    5  A    between atoms: N_10  and  N_11
REMARK    6  A    between atoms: C_12  and  C_13
REMARK    7  A    between atoms: C_30  and  O_31
REMARK                            x       y       z     vdW  Elec       q    Type
REMARK                         _______ _______ _______ _____ _____    ______ ____
ROOT
ATOM      1  N   UNL     1       1.913   8.033  20.391  0.00  0.00    +0.000 N 
ATOM      2  H   UNL     1       2.288   7.245  20.920  0.00  0.00    +0.000 HD
ENDROOT
BRANCH   1   3
ATOM      3  S   UNL     1       0.836   8.987  21.321  0.00  0.00    +0.000 S 
ATOM      4  O   UNL     1       1.607   9.584  22.391  0.00  0.00    +0.000 OA
ATOM      5  O   UNL     1      -0.362   8.213  21.607  0.00  0.00    +0.000 OA
BRANCH   3   8
ATOM      6  C   UNL     1      -1.099  11.136  18.519  0.00  0.00    +0.000 A 
ATOM      7  C   UNL     1      -0.703  10.098  19.368  0.00  0.00    +0.000 A 
ATOM      8  C   UNL     1       0.403  10.275  20.194  0.00  0.00    +0.000 A 
ATOM      9  C   UNL     1       1.158  11.454  20.157  0.00  0.00    +0.000 A 
ATOM     10  C   UNL     1       0.773  12.489  19.305  0.00  0.00    +0.000 A 
ATOM     11  C   UNL     1      -0.362  12.332  18.507  0.00  0.00    +0.000 A 
BRANCH   6  13
ATOM     12  O   UNL     1      -2.529   9.809  17.168  0.00  0.00    +0.000 OA
ATOM     13  C   UNL     1      -2.293  10.892  17.675  0.00  0.00    +0.000 C 
BRANCH  13  14
ATOM     14  O   UNL     1      -3.135  11.945  17.589  0.00  0.00    +0.000 OA
ATOM     15  H   UNL     1      -2.728  12.771  17.932  0.00  0.00    +0.000 HD
ENDBRANCH  13  14
ENDBRANCH   6  13
BRANCH  11  16
ATOM     16  O   UNL     1      -0.773  13.376  17.714  0.00  0.00    +0.000 OA
ATOM     17  H   UNL     1      -1.109  14.089  18.284  0.00  0.00    +0.000 HD
ENDBRANCH  11  16
ENDBRANCH   3   8
ENDBRANCH   1   3
BRANCH   1  18
ATOM     18  N   UNL     1       1.830   8.066  18.958  0.00  0.00    +0.000 NA
ATOM     19  C   UNL     1       2.459   7.184  18.231  0.00  0.00    +0.000 C 
BRANCH  19  20
ATOM     20  C   UNL     1       3.231   5.960  18.608  0.00  0.00    +0.000 A 
ATOM     21  C   UNL     1       2.596   4.883  19.277  0.00  0.00    +0.000 A 
ATOM     22  C   UNL     1       1.201   4.773  19.480  0.00  0.00    +0.000 A 
ATOM     23  C   UNL     1       0.639   3.836  20.346  0.00  0.00    +0.000 A 
ATOM     24  C   UNL     1       1.445   2.884  20.940  0.00  0.00    +0.000 A 
ATOM     25  C   UNL     1       2.796   2.845  20.613  0.00  0.00    +0.000 A 
ATOM     26  C   UNL     1       3.385   3.825  19.776  0.00  0.00    +0.000 A 
ATOM     27  N   UNL     1       4.750   3.739  19.428  0.00  0.00    +0.000 N 
ATOM     28  O   UNL     1       5.449   2.735  19.828  0.00  0.00    +0.000 OA
ATOM     29  C   UNL     1       5.346   4.740  18.628  0.00  0.00    +0.000 A 
ATOM     30  C   UNL     1       6.698   4.598  18.233  0.00  0.00    +0.000 A 
ATOM     31  C   UNL     1       7.340   5.565  17.468  0.00  0.00    +0.000 A 
ATOM     32  C   UNL     1       6.647   6.704  17.098  0.00  0.00    +0.000 A 
ATOM     33  C   UNL     1       5.310   6.868  17.480  0.00  0.00    +0.000 A 
ATOM     34  C   UNL     1       4.607   5.884  18.233  0.00  0.00    +0.000 A 
ENDBRANCH  19  20
ENDBRANCH   1  18
TORSDOF 7
ENDMDL
MODEL 2
REMARK VINA RESULT:      -9.2      0.874      1.973
REMARK  Name = 
REMARK  7 active torsions:
REMARK  status: ('A' for Active; 'I' for Inactive)
REMARK    1  A    between atoms: C_2  and  O_3
REMARK    2  A    between atoms: C_2  and  C_4
REMARK    3  A    between atoms: C_6  and  S_7
REMARK    4  A    between atoms: S_7  and  N_10
REMARK    5  A    between atoms: N_10  and  N_11
REMARK    6  A    between atoms: C_12  and  C_13
REMARK    7  A    between atoms: C_30  and  O_31
REMARK                            x       y       z     vdW  Elec       q    Type
REMARK                         _______ _______ _______ _____ _____    ______ ____
ROOT
ATOM      1  N   UNL     1       1.968   8.059  20.390  0.00  0.00    +0.000 N 
ATOM      2  H   UNL     1       2.429   7.314  20.915  0.00  0.00    +0.000 HD
ENDROOT
BRANCH   1   3
ATOM      3  S   UNL     1       0.868   8.950  21.355  0.00  0.00    +0.000 S 
ATOM      4  O   UNL     1       1.644   9.628  22.372  0.00  0.00    +0.000 OA
ATOM      5  O   UNL     1      -0.251   8.095  21.716  0.00  0.00    +0.000 OA
BRANCH   3   8
ATOM      6  C   UNL     1       0.717  12.143  18.906  0.00  0.00    +0.000 A 
ATOM      7  C   UNL     1       1.142  11.204  19.851  0.00  0.00    +0.000 A 
ATOM      8  C   UNL     1       0.283  10.175  20.226  0.00  0.00    +0.000 A 
ATOM      9  C   UNL     1      -1.017  10.088  19.713  0.00  0.00    +0.000 A 
ATOM     10  C   UNL     1      -1.449  11.028  18.777  0.00  0.00    +0.000 A 
ATOM     11  C   UNL     1      -0.576  12.036  18.365  0.00  0.00    +0.000 A 
BRANCH   6  13
ATOM     12  O   UNL     1       1.813  14.229  19.186  0.00  0.00    +0.000 OA
ATOM     13  C   UNL     1       1.682  13.206  18.536  0.00  0.00    +0.000 C 
BRANCH  13  14
ATOM     14  O   UNL     1       2.458  12.905  17.472  0.00  0.00    +0.000 OA
ATOM     15  H   UNL     1       3.287  12.451  17.739  0.00  0.00    +0.000 HD
ENDBRANCH  13  14
ENDBRANCH   6  13
BRANCH  11  16
ATOM     16  O   UNL     1      -0.984  12.922  17.398  0.00  0.00    +0.000 OA
ATOM     17  H   UNL     1      -1.417  13.679  17.829  0.00  0.00    +0.000 HD
ENDBRANCH  11  16
ENDBRANCH   3   8
ENDBRANCH   1   3
BRANCH   1  18
ATOM     18  N   UNL     1       1.812   8.051  18.963  0.00  0.00    +0.000 NA
ATOM     19  C   UNL     1       2.406   7.150  18.229  0.00  0.00    +0.000 C 
BRANCH  19  20
ATOM     20  C   UNL     1       3.200   5.938  18.601  0.00  0.00    +0.000 A 
ATOM     21  C   UNL     1       2.585   4.848  19.268  0.00  0.00    +0.000 A 
ATOM     22  C   UNL     1       1.193   4.712  19.473  0.00  0.00    +0.000 A 
ATOM     23  C   UNL     1       0.648   3.763  20.337  0.00  0.00    +0.000 A 
ATOM     24  C   UNL     1       1.473   2.824  20.926  0.00  0.00    +0.000 A 
ATOM     25  C   UNL     1       2.823   2.809  20.596  0.00  0.00    +0.000 A 
ATOM     26  C   UNL     1       3.393   3.802  19.761  0.00  0.00    +0.000 A 
ATOM     27  N   UNL     1       4.759   3.741  19.411  0.00  0.00    +0.000 N 
ATOM     28  O   UNL     1       5.476   2.748  19.806  0.00  0.00    +0.000 OA
ATOM     29  C   UNL     1       5.336   4.755  18.613  0.00  0.00    +0.000 A 
ATOM     30  C   UNL     1       6.689   4.638  18.214  0.00  0.00    +0.000 A 
ATOM     31  C   UNL     1       7.313   5.618  17.451  0.00  0.00    +0.000 A 
ATOM     32  C   UNL     1       6.598   6.747  17.086  0.00  0.00    +0.000 A 
ATOM     33  C   UNL     1       5.260   6.885  17.472  0.00  0.00    +0.000 A 
ATOM     34  C   UNL     1       4.576   5.888  18.222  0.00  0.00    +0.000 A 
ENDBRANCH  19  20
ENDBRANCH   1  18
TORSDOF 7
ENDMDL
MODEL 3
REMARK VINA RESULT:      -9.0      0.439      3.348
REMARK  Name = 
REMARK  7 active torsions:
REMARK  status: ('A' for Active; 'I' for Inactive)
REMARK    1  A    between atoms: C_2  and  O_3
REMARK    2  A    between atoms: C_2  and  C_4
REMARK    3  A    between atoms: C_6  and  S_7
REMARK    4  A    between atoms: S_7  and  N_10
REMARK    5  A    between atoms: N_10  and  N_11
REMARK    6  A    between atoms: C_12  and  C_13
REMARK    7  A    between atoms: C_30  and  O_31
REMARK                            x       y       z     vdW  Elec       q    Type
REMARK                         _______ _______ _______ _____ _____    ______ ____
ROOT
ATOM      1  N   UNL     1       2.004   8.258  20.186  0.00  0.00    +0.000 N 
ATOM      2  H   UNL     1       2.611   7.643  20.730  0.00  0.00    +0.000 HD
ENDROOT
BRANCH   1   3
ATOM      3  S   UNL     1       0.832   9.042  21.158  0.00  0.00    +0.000 S 
ATOM      4  O   UNL     1       1.517   9.547  22.330  0.00  0.00    +0.000 OA
ATOM      5  O   UNL     1      -0.333   8.181  21.288  0.00  0.00    +0.000 OA
BRANCH   3   8
ATOM      6  C   UNL     1      -1.127  11.430  18.576  0.00  0.00    +0.000 A 
ATOM      7  C   UNL     1      -0.718  10.318  19.319  0.00  0.00    +0.000 A 
ATOM      8  C   UNL     1       0.383  10.428  20.163  0.00  0.00    +0.000 A 
ATOM      9  C   UNL     1       1.121  11.617  20.246  0.00  0.00    +0.000 A 
ATOM     10  C   UNL     1       0.722  12.725  19.499  0.00  0.00    +0.000 A 
ATOM     11  C   UNL     1      -0.408  12.632  18.685  0.00  0.00    +0.000 A 
BRANCH   6  13
ATOM     12  O   UNL     1      -3.408  10.938  18.144  0.00  0.00    +0.000 OA
ATOM     13  C   UNL     1      -2.315  11.254  17.707  0.00  0.00    +0.000 C 
BRANCH  13  14
ATOM     14  O   UNL     1      -2.102  11.557  16.408  0.00  0.00    +0.000 OA
ATOM     15  H   UNL     1      -1.429  12.265  16.301  0.00  0.00    +0.000 HD
ENDBRANCH  13  14
ENDBRANCH   6  13
BRANCH  11  16
ATOM     16  O   UNL     1      -0.833  13.743  17.999  0.00  0.00    +0.000 OA
ATOM     17  H   UNL     1      -0.878  13.528  17.052  0.00  0.00    +0.000 HD
ENDBRANCH  11  16
ENDBRANCH   3   8
ENDBRANCH   1   3
BRANCH   1  18
ATOM     18  N   UNL     1       1.769   8.104  18.778  0.00  0.00    +0.000 NA
ATOM     19  C   UNL     1       2.339   7.143  18.104  0.00  0.00    +0.000 C 
BRANCH  19  20
ATOM     20  C   UNL     1       3.178   5.987  18.547  0.00  0.00    +0.000 A 
ATOM     21  C   UNL     1       4.564   5.945  18.252  0.00  0.00    +0.000 A 
ATOM     22  C   UNL     1       5.303   7.019  17.704  0.00  0.00    +0.000 A 
ATOM     23  C   UNL     1       6.595   6.866  17.202  0.00  0.00    +0.000 A 
ATOM     24  C   UNL     1       7.247   5.657  17.355  0.00  0.00    +0.000 A 
ATOM     25  C   UNL     1       6.620   4.636  18.060  0.00  0.00    +0.000 A 
ATOM     26  C   UNL     1       5.288   4.765  18.526  0.00  0.00    +0.000 A 
ATOM     27  N   UNL     1       4.690   3.729  19.272  0.00  0.00    +0.000 N 
ATOM     28  O   UNL     1       5.377   2.684  19.580  0.00  0.00    +0.000 OA
ATOM     29  C   UNL     1       3.347   3.842  19.700  0.00  0.00    +0.000 A 
ATOM     30  C   UNL     1       2.788   2.822  20.508  0.00  0.00    +0.000 A 
ATOM     31  C   UNL     1       1.467   2.871  20.935  0.00  0.00    +0.000 A 
ATOM     32  C   UNL     1       0.670   3.934  20.546  0.00  0.00    +0.000 A 
ATOM     33  C   UNL     1       1.200   4.952  19.744  0.00  0.00    +0.000 A 
ATOM     34  C   UNL     1       2.558   4.956  19.317  0.00  0.00    +0.000 A 
ENDBRANCH  19  20
ENDBRANCH   1  18
TORSDOF 7
ENDMDL
MODEL 4
REMARK VINA RESULT:      -8.8      0.911      3.856
REMARK  Name = 
REMARK  7 active torsions:
REMARK  status: ('A' for Active; 'I' for Inactive)
REMARK    1  A    between atoms: C_2  and  O_3
REMARK    2  A    between atoms: C_2  and  C_4
REMARK    3  A    between atoms: C_6  and  S_7
REMARK    4  A    between atoms: S_7  and  N_10
REMARK    5  A    between atoms: N_10  and  N_11
REMARK    6  A    between atoms: C_12  and  C_13
REMARK    7  A    between atoms: C_30  and  O_31
REMARK                            x       y       z     vdW  Elec       q    Type
REMARK                         _______ _______ _______ _____ _____    ______ ____
ROOT
ATOM      1  N   UNL     1       2.065   8.136  20.278  0.00  0.00    +0.000 N 
ATOM      2  H   UNL     1       2.658   7.498  20.811  0.00  0.00    +0.000 HD
ENDROOT
BRANCH   1   3
ATOM      3  S   UNL     1       0.922   8.942  21.268  0.00  0.00    +0.000 S 
ATOM      4  O   UNL     1       1.659   9.592  22.331  0.00  0.00    +0.000 OA
ATOM      5  O   UNL     1      -0.174   8.035  21.567  0.00  0.00    +0.000 OA
BRANCH   3   8
ATOM      6  C   UNL     1       0.754  12.119  18.800  0.00  0.00    +0.000 A 
ATOM      7  C   UNL     1       1.206  11.155  19.707  0.00  0.00    +0.000 A 
ATOM      8  C   UNL     1       0.315  10.203  20.192  0.00  0.00    +0.000 A 
ATOM      9  C   UNL     1      -1.038  10.220  19.829  0.00  0.00    +0.000 A 
ATOM     10  C   UNL     1      -1.495  11.186  18.933  0.00  0.00    +0.000 A 
ATOM     11  C   UNL     1      -0.596  12.115  18.409  0.00  0.00    +0.000 A 
BRANCH   6  13
ATOM     12  O   UNL     1       1.733  14.274  18.625  0.00  0.00    +0.000 OA
ATOM     13  C   UNL     1       1.754  13.097  18.307  0.00  0.00    +0.000 C 
BRANCH  13  14
ATOM     14  O   UNL     1       2.734  12.555  17.551  0.00  0.00    +0.000 OA
ATOM     15  H   UNL     1       2.868  11.602  17.751  0.00  0.00    +0.000 HD
ENDBRANCH  13  14
ENDBRANCH   6  13
BRANCH  11  16
ATOM     16  O   UNL     1      -1.037  13.026  17.480  0.00  0.00    +0.000 OA
ATOM     17  H   UNL     1      -1.582  12.562  16.821  0.00  0.00    +0.000 HD
ENDBRANCH  11  16
ENDBRANCH   3   8
ENDBRANCH   1   3
BRANCH   1  18
ATOM     18  N   UNL     1       1.814   8.004  18.870  0.00  0.00    +0.000 NA
ATOM     19  C   UNL     1       2.374   7.052  18.176  0.00  0.00    +0.000 C 
BRANCH  19  20
ATOM     20  C   UNL     1       3.214   5.887  18.594  0.00  0.00    +0.000 A 
ATOM     21  C   UNL     1       4.598   5.847  18.290  0.00  0.00    +0.000 A 
ATOM     22  C   UNL     1       5.336   6.930  17.757  0.00  0.00    +0.000 A 
ATOM     23  C   UNL     1       6.625   6.783  17.246  0.00  0.00    +0.000 A 
ATOM     24  C   UNL     1       7.276   5.571  17.373  0.00  0.00    +0.000 A 
ATOM     25  C   UNL     1       6.651   4.538  18.063  0.00  0.00    +0.000 A 
ATOM     26  C   UNL     1       5.322   4.662  18.538  0.00  0.00    +0.000 A 
ATOM     27  N   UNL     1       4.725   3.613  19.269  0.00  0.00    +0.000 N 
ATOM     28  O   UNL     1       5.412   2.561  19.554  0.00  0.00    +0.000 OA
ATOM     29  C   UNL     1       3.385   3.720  19.707  0.00  0.00    +0.000 A 
ATOM     30  C   UNL     1       2.829   2.687  20.499  0.00  0.00    +0.000 A 
ATOM     31  C   UNL     1       1.510   2.731  20.934  0.00  0.00    +0.000 A 
ATOM     32  C   UNL     1       0.713   3.802  20.569  0.00  0.00    +0.000 A 
ATOM     33  C   UNL     1       1.241   4.833  19.783  0.00  0.00    +0.000 A 
ATOM     34  C   UNL     1       2.596   4.843  19.348  0.00  0.00    +0.000 A 
ENDBRANCH  19  20
ENDBRANCH   1  18
TORSDOF 7
ENDMDL
MODEL 5
REMARK VINA RESULT:      -8.5      3.094      9.191
REMARK  Name = 
REMARK  7 active torsions:
REMARK  status: ('A' for Active; 'I' for Inactive)
REMARK    1  A    between atoms: C_2  and  O_3
REMARK    2  A    between atoms: C_2  and  C_4
REMARK    3  A    between atoms: C_6  and  S_7
REMARK    4  A    between atoms: S_7  and  N_10
REMARK    5  A    between atoms: N_10  and  N_11
REMARK    6  A    between atoms: C_12  and  C_13
REMARK    7  A    between atoms: C_30  and  O_31
REMARK                            x       y       z     vdW  Elec       q    Type
REMARK                         _______ _______ _______ _____ _____    ______ ____
ROOT
ATOM      1  N   UNL     1      -0.197   9.683  20.147  0.00  0.00    +0.000 N 
ATOM      2  H   UNL     1      -1.141   9.360  19.926  0.00  0.00    +0.000 HD
ENDROOT
BRANCH   1   3
ATOM      3  S   UNL     1       0.494   8.824  21.458  0.00  0.00    +0.000 S 
ATOM      4  O   UNL     1      -0.596   8.237  22.208  0.00  0.00    +0.000 OA
ATOM      5  O   UNL     1       1.481   9.667  22.113  0.00  0.00    +0.000 OA
BRANCH   3   8
ATOM      6  C   UNL     1       1.827   5.158  20.460  0.00  0.00    +0.000 A 
ATOM      7  C   UNL     1       1.213   6.218  21.136  0.00  0.00    +0.000 A 
ATOM      8  C   UNL     1       1.347   7.512  20.642  0.00  0.00    +0.000 A 
ATOM      9  C   UNL     1       2.125   7.782  19.508  0.00  0.00    +0.000 A 
ATOM     10  C   UNL     1       2.746   6.730  18.837  0.00  0.00    +0.000 A 
ATOM     11  C   UNL     1       2.579   5.425  19.303  0.00  0.00    +0.000 A 
BRANCH   6  13
ATOM     12  O   UNL     1       2.183   3.435  22.052  0.00  0.00    +0.000 OA
ATOM     13  C   UNL     1       1.636   3.802  21.026  0.00  0.00    +0.000 C 
BRANCH  13  14
ATOM     14  O   UNL     1       0.740   3.043  20.358  0.00  0.00    +0.000 OA
ATOM     15  H   UNL     1       1.030   2.857  19.437  0.00  0.00    +0.000 HD
ENDBRANCH  13  14
ENDBRANCH   6  13
BRANCH  11  16
ATOM     16  O   UNL     1       3.142   4.386  18.604  0.00  0.00    +0.000 OA
ATOM     17  H   UNL     1       3.171   4.621  17.661  0.00  0.00    +0.000 HD
ENDBRANCH  11  16
ENDBRANCH   3   8
ENDBRANCH   1   3
BRANCH   1  18
ATOM     18  N   UNL     1       0.296  10.991  19.818  0.00  0.00    +0.000 NA
ATOM     19  C   UNL     1      -0.510  11.923  19.391  0.00  0.00    +0.000 C 
BRANCH  19  20
ATOM     20  C   UNL     1      -2.000  11.961  19.265  0.00  0.00    +0.000 A 
ATOM     21  C   UNL     1      -2.642  11.429  18.118  0.00  0.00    +0.000 A 
ATOM     22  C   UNL     1      -1.995  10.677  17.110  0.00  0.00    +0.000 A 
ATOM     23  C   UNL     1      -2.597  10.383  15.887  0.00  0.00    +0.000 A 
ATOM     24  C   UNL     1      -3.922  10.718  15.680  0.00  0.00    +0.000 A 
ATOM     25  C   UNL     1      -4.644  11.289  16.721  0.00  0.00    +0.000 A 
ATOM     26  C   UNL     1      -4.027  11.639  17.948  0.00  0.00    +0.000 A 
ATOM     27  N   UNL     1      -4.792  12.181  19.002  0.00  0.00    +0.000 N 
ATOM     28  O   UNL     1      -6.066  12.306  18.869  0.00  0.00    +0.000 OA
ATOM     29  C   UNL     1      -4.167  12.569  20.210  0.00  0.00    +0.000 A 
ATOM     30  C   UNL     1      -4.962  13.045  21.280  0.00  0.00    +0.000 A 
ATOM     31  C   UNL     1      -4.398  13.463  22.479  0.00  0.00    +0.000 A 
ATOM     32  C   UNL     1      -3.022  13.431  22.625  0.00  0.00    +0.000 A 
ATOM     33  C   UNL     1      -2.215  12.968  21.579  0.00  0.00    +0.000 A 
ATOM     34  C   UNL     1      -2.758  12.497  20.349  0.00  0.00    +0.000 A 
ENDBRANCH  19  20
ENDBRANCH   1  18
TORSDOF 7
ENDMDL
MODEL 6
REMARK VINA RESULT:      -8.5      5.410      8.263
REMARK  Name = 
REMARK  7 active torsions:
REMARK  status: ('A' for Active; 'I' for Inactive)
REMARK    1  A    between atoms: C_2  and  O_3
REMARK    2  A    between atoms: C_2  and  C_4
REMARK    3  A    between atoms: C_6  and  S_7
REMARK    4  A    between atoms: S_7  and  N_10
REMARK    5  A    between atoms: N_10  and  N_11
REMARK    6  A    between atoms: C_12  and  C_13
REMARK    7  A    between atoms: C_30  and  O_31
REMARK                            x       y       z     vdW  Elec       q    Type
REMARK                         _______ _______ _______ _____ _____    ______ ____
ROOT
ATOM      1  N   UNL     1      -3.958  12.296  22.604  0.00  0.00    +0.000 N 
ATOM      2  H   UNL     1      -3.612  11.494  22.074  0.00  0.00    +0.000 HD
ENDROOT
BRANCH   1   3
ATOM      3  S   UNL     1      -5.338  13.007  21.880  0.00  0.00    +0.000 S 
ATOM      4  O   UNL     1      -5.169  14.443  21.954  0.00  0.00    +0.000 OA
ATOM      5  O   UNL     1      -6.535  12.369  22.406  0.00  0.00    +0.000 OA
BRANCH   3   8
ATOM      6  C   UNL     1      -3.767  11.695  18.413  0.00  0.00    +0.000 A 
ATOM      7  C   UNL     1      -3.909  12.137  19.732  0.00  0.00    +0.000 A 
ATOM      8  C   UNL     1      -5.161  12.535  20.189  0.00  0.00    +0.000 A 
ATOM      9  C   UNL     1      -6.275  12.550  19.339  0.00  0.00    +0.000 A 
ATOM     10  C   UNL     1      -6.136  12.119  18.019  0.00  0.00    +0.000 A 
ATOM     11  C   UNL     1      -4.891  11.677  17.570  0.00  0.00    +0.000 A 
BRANCH   6  13
ATOM     12  O   UNL     1      -1.918  10.209  18.334  0.00  0.00    +0.000 OA
ATOM     13  C   UNL     1      -2.411  11.270  17.991  0.00  0.00    +0.000 C 
BRANCH  13  14
ATOM     14  O   UNL     1      -1.808  12.117  17.128  0.00  0.00    +0.000 OA
ATOM     15  H   UNL     1      -1.015  12.542  17.524  0.00  0.00    +0.000 HD
ENDBRANCH  13  14
ENDBRANCH   6  13
BRANCH  11  16
ATOM     16  O   UNL     1      -4.772  11.197  16.289  0.00  0.00    +0.000 OA
ATOM     17  H   UNL     1      -5.618  11.325  15.826  0.00  0.00    +0.000 HD
ENDBRANCH  11  16
ENDBRANCH   3   8
ENDBRANCH   1   3
BRANCH   1  18
ATOM     18  N   UNL     1      -3.145  13.075  23.495  0.00  0.00    +0.000 NA
ATOM     19  C   UNL     1      -1.878  13.266  23.252  0.00  0.00    +0.000 C 
BRANCH  19  20
ATOM     20  C   UNL     1      -1.033  12.908  22.071  0.00  0.00    +0.000 A 
ATOM     21  C   UNL     1      -0.705  13.883  21.094  0.00  0.00    +0.000 A 
ATOM     22  C   UNL     1      -0.966  15.267  21.221  0.00  0.00    +0.000 A 
ATOM     23  C   UNL     1      -0.856  16.154  20.151  0.00  0.00    +0.000 A 
ATOM     24  C   UNL     1      -0.349  15.709  18.944  0.00  0.00    +0.000 A 
ATOM     25  C   UNL     1       0.097  14.397  18.843  0.00  0.00    +0.000 A 
ATOM     26  C   UNL     1      -0.060  13.475  19.907  0.00  0.00    +0.000 A 
ATOM     27  N   UNL     1       0.437  12.160  19.792  0.00  0.00    +0.000 N 
ATOM     28  O   UNL     1       1.086  11.812  18.736  0.00  0.00    +0.000 OA
ATOM     29  C   UNL     1       0.242  11.229  20.838  0.00  0.00    +0.000 A 
ATOM     30  C   UNL     1       0.809   9.937  20.732  0.00  0.00    +0.000 A 
ATOM     31  C   UNL     1       0.627   8.976  21.719  0.00  0.00    +0.000 A 
ATOM     32  C   UNL     1      -0.144   9.283  22.827  0.00  0.00    +0.000 A 
ATOM     33  C   UNL     1      -0.718  10.554  22.952  0.00  0.00    +0.000 A 
ATOM     34  C   UNL     1      -0.525  11.576  21.980  0.00  0.00    +0.000 A 
ENDBRANCH  19  20
ENDBRANCH   1  18
TORSDOF 7
ENDMDL
MODEL 7
REMARK VINA RESULT:      -8.3      1.120      3.980
REMARK  Name = 
REMARK  7 active torsions:
REMARK  status: ('A' for Active; 'I' for Inactive)
REMARK    1  A    between atoms: C_2  and  O_3
REMARK    2  A    between atoms: C_2  and  C_4
REMARK    3  A    between atoms: C_6  and  S_7
REMARK    4  A    between atoms: S_7  and  N_10
REMARK    5  A    between atoms: N_10  and  N_11
REMARK    6  A    between atoms: C_12  and  C_13
REMARK    7  A    between atoms: C_30  and  O_31
REMARK                            x       y       z     vdW  Elec       q    Type
REMARK                         _______ _______ _______ _____ _____    ______ ____
ROOT
ATOM      1  N   UNL     1       2.149   8.284  20.262  0.00  0.00    +0.000 N 
ATOM      2  H   UNL     1       2.884   7.765  20.744  0.00  0.00    +0.000 HD
ENDROOT
BRANCH   1   3
ATOM      3  S   UNL     1       0.961   8.883  21.341  0.00  0.00    +0.000 S 
ATOM      4  O   UNL     1       1.647   9.294  22.548  0.00  0.00    +0.000 OA
ATOM      5  O   UNL     1      -0.149   7.944  21.397  0.00  0.00    +0.000 OA
BRANCH   3   8
ATOM      6  C   UNL     1       0.693  12.690  20.059  0.00  0.00    +0.000 A 
ATOM      7  C   UNL     1       1.077  11.539  20.754  0.00  0.00    +0.000 A 
ATOM      8  C   UNL     1       0.406  10.343  20.520  0.00  0.00    +0.000 A 
ATOM      9  C   UNL     1      -0.680  10.279  19.637  0.00  0.00    +0.000 A 
ATOM     10  C   UNL     1      -1.073  11.426  18.949  0.00  0.00    +0.000 A 
ATOM     11  C   UNL     1      -0.374  12.617  19.148  0.00  0.00    +0.000 A 
BRANCH   6  13
ATOM     12  O   UNL     1       1.633  14.797  19.503  0.00  0.00    +0.000 OA
ATOM     13  C   UNL     1       1.456  13.929  20.341  0.00  0.00    +0.000 C 
BRANCH  13  14
ATOM     14  O   UNL     1       1.861  14.051  21.624  0.00  0.00    +0.000 OA
ATOM     15  H   UNL     1       1.160  13.783  22.258  0.00  0.00    +0.000 HD
ENDBRANCH  13  14
ENDBRANCH   6  13
BRANCH  11  16
ATOM     16  O   UNL     1      -0.725  13.730  18.422  0.00  0.00    +0.000 OA
ATOM     17  H   UNL     1      -0.247  13.716  17.576  0.00  0.00    +0.000 HD
ENDBRANCH  11  16
ENDBRANCH   3   8
ENDBRANCH   1   3
BRANCH   1  18
ATOM     18  N   UNL     1       1.820   8.101  18.877  0.00  0.00    +0.000 NA
ATOM     19  C   UNL     1       2.331   7.117  18.191  0.00  0.00    +0.000 C 
BRANCH  19  20
ATOM     20  C   UNL     1       3.182   5.959  18.606  0.00  0.00    +0.000 A 
ATOM     21  C   UNL     1       4.564   5.928  18.292  0.00  0.00    +0.000 A 
ATOM     22  C   UNL     1       5.290   7.014  17.751  0.00  0.00    +0.000 A 
ATOM     23  C   UNL     1       6.577   6.874  17.230  0.00  0.00    +0.000 A 
ATOM     24  C   UNL     1       7.237   5.667  17.357  0.00  0.00    +0.000 A 
ATOM     25  C   UNL     1       6.625   4.633  18.055  0.00  0.00    +0.000 A 
ATOM     26  C   UNL     1       5.298   4.748  18.540  0.00  0.00    +0.000 A 
ATOM     27  N   UNL     1       4.714   3.698  19.279  0.00  0.00    +0.000 N 
ATOM     28  O   UNL     1       5.410   2.653  19.563  0.00  0.00    +0.000 OA
ATOM     29  C   UNL     1       3.377   3.798  19.726  0.00  0.00    +0.000 A 
ATOM     30  C   UNL     1       2.834   2.764  20.526  0.00  0.00    +0.000 A 
ATOM     31  C   UNL     1       1.517   2.800  20.970  0.00  0.00    +0.000 A 
ATOM     32  C   UNL     1       0.710   3.864  20.607  0.00  0.00    +0.000 A 
ATOM     33  C   UNL     1       1.225   4.896  19.813  0.00  0.00    +0.000 A 
ATOM     34  C   UNL     1       2.577   4.914  19.369  0.00  0.00    +0.000 A 
ENDBRANCH  19  20
ENDBRANCH   1  18
TORSDOF 7
ENDMDL
MODEL 8
REMARK VINA RESULT:      -8.2      3.111      9.035
REMARK  Name = 
REMARK  7 active torsions:
REMARK  status: ('A' for Active; 'I' for Inactive)
REMARK    1  A    between atoms: C_2  and  O_3
REMARK    2  A    between atoms: C_2  and  C_4
REMARK    3  A    between atoms: C_6  and  S_7
REMARK    4  A    between atoms: S_7  and  N_10
REMARK    5  A    between atoms: N_10  and  N_11
REMARK    6  A    between atoms: C_12  and  C_13
REMARK    7  A    between atoms: C_30  and  O_31
REMARK                            x       y       z     vdW  Elec       q    Type
REMARK                         _______ _______ _______ _____ _____    ______ ____
ROOT
ATOM      1  N   UNL     1      -0.128   9.684  20.089  0.00  0.00    +0.000 N 
ATOM      2  H   UNL     1      -1.064   9.383  19.813  0.00  0.00    +0.000 HD
ENDROOT
BRANCH   1   3
ATOM      3  S   UNL     1       0.499   8.755  21.385  0.00  0.00    +0.000 S 
ATOM      4  O   UNL     1      -0.626   8.120  22.040  0.00  0.00    +0.000 OA
ATOM      5  O   UNL     1       1.443   9.563  22.139  0.00  0.00    +0.000 OA
BRANCH   3   8
ATOM      6  C   UNL     1       2.017   5.174  20.342  0.00  0.00    +0.000 A 
ATOM      7  C   UNL     1       1.361   6.195  21.036  0.00  0.00    +0.000 A 
ATOM      8  C   UNL     1       1.404   7.495  20.542  0.00  0.00    +0.000 A 
ATOM      9  C   UNL     1       2.133   7.811  19.389  0.00  0.00    +0.000 A 
ATOM     10  C   UNL     1       2.797   6.798  18.698  0.00  0.00    +0.000 A 
ATOM     11  C   UNL     1       2.719   5.485  19.165  0.00  0.00    +0.000 A 
BRANCH   6  13
ATOM     12  O   UNL     1       2.186   3.561  22.074  0.00  0.00    +0.000 OA
ATOM     13  C   UNL     1       1.921   3.808  20.910  0.00  0.00    +0.000 C 
BRANCH  13  14
ATOM     14  O   UNL     1       1.435   2.884  20.053  0.00  0.00    +0.000 OA
ATOM     15  H   UNL     1       1.958   2.052  20.073  0.00  0.00    +0.000 HD
ENDBRANCH  13  14
ENDBRANCH   6  13
BRANCH  11  16
ATOM     16  O   UNL     1       3.323   4.481  18.448  0.00  0.00    +0.000 OA
ATOM     17  H   UNL     1       2.701   3.740  18.361  0.00  0.00    +0.000 HD
ENDBRANCH  11  16
ENDBRANCH   3   8
ENDBRANCH   1   3
BRANCH   1  18
ATOM     18  N   UNL     1       0.392  11.000  19.846  0.00  0.00    +0.000 NA
ATOM     19  C   UNL     1      -0.407  11.995  19.572  0.00  0.00    +0.000 C 
BRANCH  19  20
ATOM     20  C   UNL     1      -1.899  12.093  19.568  0.00  0.00    +0.000 A 
ATOM     21  C   UNL     1      -2.591  12.629  20.683  0.00  0.00    +0.000 A 
ATOM     22  C   UNL     1      -1.972  13.270  21.782  0.00  0.00    +0.000 A 
ATOM     23  C   UNL     1      -2.652  13.562  22.963  0.00  0.00    +0.000 A 
ATOM     24  C   UNL     1      -4.015  13.345  23.038  0.00  0.00    +0.000 A 
ATOM     25  C   UNL     1      -4.690  12.895  21.909  0.00  0.00    +0.000 A 
ATOM     26  C   UNL     1      -3.999  12.545  20.723  0.00  0.00    +0.000 A 
ATOM     27  N   UNL     1      -4.712  12.127  19.579  0.00  0.00    +0.000 N 
ATOM     28  O   UNL     1      -5.999  12.118  19.596  0.00  0.00    +0.000 OA
ATOM     29  C   UNL     1      -4.019  11.738  18.410  0.00  0.00    +0.000 A 
ATOM     30  C   UNL     1      -4.754  11.391  17.251  0.00  0.00    +0.000 A 
ATOM     31  C   UNL     1      -4.125  10.977  16.084  0.00  0.00    +0.000 A 
ATOM     32  C   UNL     1      -2.744  10.884  16.057  0.00  0.00    +0.000 A 
ATOM     33  C   UNL     1      -1.996  11.220  17.192  0.00  0.00    +0.000 A 
ATOM     34  C   UNL     1      -2.602  11.682  18.395  0.00  0.00    +0.000 A 
ENDBRANCH  19  20
ENDBRANCH   1  18
TORSDOF 7
ENDMDL
MODEL 9
REMARK VINA RESULT:      -7.9      4.114      9.642
REMARK  Name = 
REMARK  7 active torsions:
REMARK  status: ('A' for Active; 'I' for Inactive)
REMARK    1  A    between atoms: C_2  and  O_3
REMARK    2  A    between atoms: C_2  and  C_4
REMARK    3  A    between atoms: C_6  and  S_7
REMARK    4  A    between atoms: S_7  and  N_10
REMARK    5  A    between atoms: N_10  and  N_11
REMARK    6  A    between atoms: C_12  and  C_13
REMARK    7  A    between atoms: C_30  and  O_31
REMARK                            x       y       z     vdW  Elec       q    Type
REMARK                         _______ _______ _______ _____ _____    ______ ____
ROOT
ATOM      1  N   UNL     1      -1.010  10.695  20.107  0.00  0.00    +0.000 N 
ATOM      2  H   UNL     1      -1.886  10.191  20.255  0.00  0.00    +0.000 HD
ENDROOT
BRANCH   1   3
ATOM      3  S   UNL     1       0.242  10.137  21.134  0.00  0.00    +0.000 S 
ATOM      4  O   UNL     1      -0.375   9.316  22.155  0.00  0.00    +0.000 OA
ATOM      5  O   UNL     1       1.099  11.256  21.493  0.00  0.00    +0.000 OA
BRANCH   3   8
ATOM      6  C   UNL     1       2.241   6.946  19.708  0.00  0.00    +0.000 A 
ATOM      7  C   UNL     1       1.577   7.834  20.560  0.00  0.00    +0.000 A 
ATOM      8  C   UNL     1       1.154   9.066  20.069  0.00  0.00    +0.000 A 
ATOM      9  C   UNL     1       1.424   9.455  18.750  0.00  0.00    +0.000 A 
ATOM     10  C   UNL     1       2.095   8.576  17.900  0.00  0.00    +0.000 A 
ATOM     11  C   UNL     1       2.481   7.322  18.375  0.00  0.00    +0.000 A 
BRANCH   6  13
ATOM     12  O   UNL     1       1.878   4.916  20.883  0.00  0.00    +0.000 OA
ATOM     13  C   UNL     1       2.652   5.644  20.285  0.00  0.00    +0.000 C 
BRANCH  13  14
ATOM     14  O   UNL     1       3.930   5.298  20.018  0.00  0.00    +0.000 OA
ATOM     15  H   UNL     1       4.070   5.119  19.062  0.00  0.00    +0.000 HD
ENDBRANCH  13  14
ENDBRANCH   6  13
BRANCH  11  16
ATOM     16  O   UNL     1       3.086   6.437  17.517  0.00  0.00    +0.000 OA
ATOM     17  H   UNL     1       2.682   5.560  17.635  0.00  0.00    +0.000 HD
ENDBRANCH  11  16
ENDBRANCH   3   8
ENDBRANCH   1   3
BRANCH   1  18
ATOM     18  N   UNL     1      -0.933  12.016  19.550  0.00  0.00    +0.000 NA
ATOM     19  C   UNL     1      -1.952  12.829  19.611  0.00  0.00    +0.000 C 
BRANCH  19  20
ATOM     20  C   UNL     1      -3.272  12.710  20.303  0.00  0.00    +0.000 A 
ATOM     21  C   UNL     1      -3.419  13.114  21.655  0.00  0.00    +0.000 A 
ATOM     22  C   UNL     1      -2.437  13.811  22.397  0.00  0.00    +0.000 A 
ATOM     23  C   UNL     1      -2.514  13.974  23.780  0.00  0.00    +0.000 A 
ATOM     24  C   UNL     1      -3.648  13.560  24.454  0.00  0.00    +0.000 A 
ATOM     25  C   UNL     1      -4.714  13.043  23.728  0.00  0.00    +0.000 A 
ATOM     26  C   UNL     1      -4.624  12.825  22.330  0.00  0.00    +0.000 A 
ATOM     27  N   UNL     1      -5.734  12.335  21.611  0.00  0.00    +0.000 N 
ATOM     28  O   UNL     1      -6.852  12.139  22.218  0.00  0.00    +0.000 OA
ATOM     29  C   UNL     1      -5.629  12.078  20.225  0.00  0.00    +0.000 A 
ATOM     30  C   UNL     1      -6.775  11.655  19.509  0.00  0.00    +0.000 A 
ATOM     31  C   UNL     1      -6.721  11.364  18.151  0.00  0.00    +0.000 A 
ATOM     32  C   UNL     1      -5.513  11.474  17.484  0.00  0.00    +0.000 A 
ATOM     33  C   UNL     1      -4.366  11.888  18.172  0.00  0.00    +0.000 A 
ATOM     34  C   UNL     1      -4.388  12.229  19.554  0.00  0.00    +0.000 A 
ENDBRANCH  19  20
ENDBRANCH   1  18
TORSDOF 7
ENDMDL
