MODEL 1
REMARK VINA RESULT:      -8.2      0.000      0.000
REMARK  Name = 
REMARK  5 active torsions:
REMARK  status: ('A' for Active; 'I' for Inactive)
REMARK    1  A    between atoms: C_2  and  C_3
REMARK    2  A    between atoms: C_3  and  S_4
REMARK    3  A    between atoms: S_4  and  C_5
REMARK    4  A    between atoms: C_15  and  C_17
REMARK    5  A    between atoms: C_21  and  N_22
REMARK                            x       y       z     vdW  Elec       q    Type
REMARK                         _______ _______ _______ _____ _____    ______ ____
ROOT
ATOM      1  O   UNL     1       5.799   6.304  18.352  0.00  0.00    +0.000 OA
ATOM      2  C   UNL     1       5.114   6.430  17.340  0.00  0.00    +0.000 C 
ATOM      3  N   UNL     1       5.378   5.856  16.104  0.00  0.00    +0.000 N 
ATOM      4  C   UNL     1       6.517   5.130  15.801  0.00  0.00    +0.000 C 
ATOM      5  O   UNL     1       7.371   4.773  16.602  0.00  0.00    +0.000 OA
ATOM      6  H   UNL     1       4.846   6.231  15.326  0.00  0.00    +0.000 HD
ENDROOT
BRANCH   4   7
ATOM      7  C   UNL     1       6.704   4.767  14.364  0.00  0.00    +0.000 A 
ATOM      8  C   UNL     1       7.746   5.392  13.659  0.00  0.00    +0.000 A 
ATOM      9  C   UNL     1       7.966   5.112  12.310  0.00  0.00    +0.000 A 
ATOM     10  C   UNL     1       7.149   4.199  11.646  0.00  0.00    +0.000 A 
ATOM     11  C   UNL     1       6.123   3.555  12.351  0.00  0.00    +0.000 A 
ATOM     12  C   UNL     1       5.901   3.824  13.712  0.00  0.00    +0.000 A 
BRANCH  11  13
ATOM     13  N   UNL     1       5.265   2.586  11.656  0.00  0.00    +0.000 N 
ATOM     14  O   UNL     1       5.742   1.472  11.400  0.00  0.00    +0.000 OA
ATOM     15  O   UNL     1       4.113   2.943  11.371  0.00  0.00    +0.000 OA
ENDBRANCH  11  13
ENDBRANCH   4   7
BRANCH   2  16
ATOM     16  C   UNL     1       3.844   7.264  17.360  0.00  0.00    +0.000 C 
BRANCH  16  17
ATOM     17  S   UNL     1       2.938   7.014  18.912  0.00  0.00    +0.000 S 
BRANCH  17  18
ATOM     18  C   UNL     1       2.264   5.442  18.661  0.00  0.00    +0.000 A 
ATOM     19  N   UNL     1       1.794   4.977  17.523  0.00  0.00    +0.000 NA
ATOM     20  N   UNL     1       1.320   3.704  17.758  0.00  0.00    +0.000 NA
ATOM     21  C   UNL     1       1.517   3.426  19.033  0.00  0.00    +0.000 A 
ATOM     22  C   UNL     1       1.228   2.287  19.830  0.00  0.00    +0.000 A 
ATOM     23  C   UNL     1       1.502   2.309  21.152  0.00  0.00    +0.000 A 
ATOM     24  C   UNL     1       2.098   3.475  21.786  0.00  0.00    +0.000 A 
ATOM     25  C   UNL     1       2.392   4.547  21.031  0.00  0.00    +0.000 A 
ATOM     26  N   UNL     1       2.106   4.517  19.664  0.00  0.00    +0.000 N 
ENDBRANCH  17  18
ENDBRANCH  16  17
ENDBRANCH   2  16
TORSDOF 5
ENDMDL
MODEL 2
REMARK VINA RESULT:      -8.0      1.065      1.246
REMARK  Name = 
REMARK  5 active torsions:
REMARK  status: ('A' for Active; 'I' for Inactive)
REMARK    1  A    between atoms: C_2  and  C_3
REMARK    2  A    between atoms: C_3  and  S_4
REMARK    3  A    between atoms: S_4  and  C_5
REMARK    4  A    between atoms: C_15  and  C_17
REMARK    5  A    between atoms: C_21  and  N_22
REMARK                            x       y       z     vdW  Elec       q    Type
REMARK                         _______ _______ _______ _____ _____    ______ ____
ROOT
ATOM      1  O   UNL     1       6.845   5.061  19.106  0.00  0.00    +0.000 OA
ATOM      2  C   UNL     1       5.987   5.351  18.277  0.00  0.00    +0.000 C 
ATOM      3  N   UNL     1       6.053   5.096  16.915  0.00  0.00    +0.000 N 
ATOM      4  C   UNL     1       7.154   4.559  16.268  0.00  0.00    +0.000 C 
ATOM      5  O   UNL     1       8.152   4.106  16.813  0.00  0.00    +0.000 OA
ATOM      6  H   UNL     1       5.374   5.589  16.345  0.00  0.00    +0.000 HD
ENDROOT
BRANCH   4   7
ATOM      7  C   UNL     1       7.099   4.547  14.775  0.00  0.00    +0.000 A 
ATOM      8  C   UNL     1       7.967   5.405  14.080  0.00  0.00    +0.000 A 
ATOM      9  C   UNL     1       7.956   5.458  12.685  0.00  0.00    +0.000 A 
ATOM     10  C   UNL     1       7.079   4.648  11.965  0.00  0.00    +0.000 A 
ATOM     11  C   UNL     1       6.229   3.773  12.654  0.00  0.00    +0.000 A 
ATOM     12  C   UNL     1       6.240   3.707  14.057  0.00  0.00    +0.000 A 
BRANCH  11  13
ATOM     13  N   UNL     1       5.309   2.912  11.897  0.00  0.00    +0.000 N 
ATOM     14  O   UNL     1       4.179   3.353  11.648  0.00  0.00    +0.000 OA
ATOM     15  O   UNL     1       5.723   1.797  11.550  0.00  0.00    +0.000 OA
ENDBRANCH  11  13
ENDBRANCH   4   7
BRANCH   2  16
ATOM     16  C   UNL     1       4.702   6.045  18.700  0.00  0.00    +0.000 C 
BRANCH  16  17
ATOM     17  S   UNL     1       3.430   5.873  17.418  0.00  0.00    +0.000 S 
BRANCH  17  18
ATOM     18  C   UNL     1       2.710   4.363  17.856  0.00  0.00    +0.000 A 
ATOM     19  N   UNL     1       2.348   3.411  17.023  0.00  0.00    +0.000 NA
ATOM     20  N   UNL     1       1.787   2.397  17.770  0.00  0.00    +0.000 NA
ATOM     21  C   UNL     1       1.825   2.758  19.038  0.00  0.00    +0.000 A 
ATOM     22  C   UNL     1       1.391   2.129  20.236  0.00  0.00    +0.000 A 
ATOM     23  C   UNL     1       1.514   2.777  21.414  0.00  0.00    +0.000 A 
ATOM     24  C   UNL     1       2.093   4.110  21.492  0.00  0.00    +0.000 A 
ATOM     25  C   UNL     1       2.525   4.699  20.364  0.00  0.00    +0.000 A 
ATOM     26  N   UNL     1       2.393   4.022  19.149  0.00  0.00    +0.000 N 
ENDBRANCH  17  18
ENDBRANCH  16  17
ENDBRANCH   2  16
TORSDOF 5
ENDMDL
MODEL 3
REMARK VINA RESULT:      -8.0      3.173      4.786
REMARK  Name = 
REMARK  5 active torsions:
REMARK  status: ('A' for Active; 'I' for Inactive)
REMARK    1  A    between atoms: C_2  and  C_3
REMARK    2  A    between atoms: C_3  and  S_4
REMARK    3  A    between atoms: S_4  and  C_5
REMARK    4  A    between atoms: C_15  and  C_17
REMARK    5  A    between atoms: C_21  and  N_22
REMARK                            x       y       z     vdW  Elec       q    Type
REMARK                         _______ _______ _______ _____ _____    ______ ____
ROOT
ATOM      1  O   UNL     1       1.555   2.022  19.277  0.00  0.00    +0.000 OA
ATOM      2  C   UNL     1       1.867   3.209  19.327  0.00  0.00    +0.000 C 
ATOM      3  N   UNL     1       2.922   3.801  18.647  0.00  0.00    +0.000 N 
ATOM      4  C   UNL     1       3.848   3.115  17.879  0.00  0.00    +0.000 C 
ATOM      5  O   UNL     1       3.787   1.930  17.577  0.00  0.00    +0.000 OA
ATOM      6  H   UNL     1       3.179   4.730  18.964  0.00  0.00    +0.000 HD
ENDROOT
BRANCH   4   7
ATOM      7  C   UNL     1       5.017   3.907  17.393  0.00  0.00    +0.000 A 
ATOM      8  C   UNL     1       5.739   4.657  18.336  0.00  0.00    +0.000 A 
ATOM      9  C   UNL     1       6.832   5.434  17.948  0.00  0.00    +0.000 A 
ATOM     10  C   UNL     1       7.221   5.468  16.610  0.00  0.00    +0.000 A 
ATOM     11  C   UNL     1       6.518   4.702  15.669  0.00  0.00    +0.000 A 
ATOM     12  C   UNL     1       5.424   3.911  16.054  0.00  0.00    +0.000 A 
BRANCH  11  13
ATOM     13  N   UNL     1       6.931   4.730  14.260  0.00  0.00    +0.000 N 
ATOM     14  O   UNL     1       7.832   5.517  13.938  0.00  0.00    +0.000 OA
ATOM     15  O   UNL     1       6.354   3.961  13.479  0.00  0.00    +0.000 OA
ENDBRANCH  11  13
ENDBRANCH   4   7
BRANCH   2  16
ATOM     16  C   UNL     1       1.074   4.185  20.181  0.00  0.00    +0.000 C 
BRANCH  16  17
ATOM     17  S   UNL     1       2.177   5.393  20.964  0.00  0.00    +0.000 S 
BRANCH  17  18
ATOM     18  C   UNL     1       2.095   6.705  19.840  0.00  0.00    +0.000 A 
ATOM     19  N   UNL     1       2.554   6.695  18.607  0.00  0.00    +0.000 NA
ATOM     20  N   UNL     1       2.322   7.941  18.066  0.00  0.00    +0.000 NA
ATOM     21  C   UNL     1       1.725   8.677  18.984  0.00  0.00    +0.000 A 
ATOM     22  C   UNL     1       1.262  10.020  18.996  0.00  0.00    +0.000 A 
ATOM     23  C   UNL     1       0.725  10.533  20.124  0.00  0.00    +0.000 A 
ATOM     24  C   UNL     1       0.598   9.736  21.336  0.00  0.00    +0.000 A 
ATOM     25  C   UNL     1       1.014   8.459  21.321  0.00  0.00    +0.000 A 
ATOM     26  N   UNL     1       1.570   7.936  20.151  0.00  0.00    +0.000 N 
ENDBRANCH  17  18
ENDBRANCH  16  17
ENDBRANCH   2  16
TORSDOF 5
ENDMDL
MODEL 4
REMARK VINA RESULT:      -7.9      2.169      3.159
REMARK  Name = 
REMARK  5 active torsions:
REMARK  status: ('A' for Active; 'I' for Inactive)
REMARK    1  A    between atoms: C_2  and  C_3
REMARK    2  A    between atoms: C_3  and  S_4
REMARK    3  A    between atoms: S_4  and  C_5
REMARK    4  A    between atoms: C_15  and  C_17
REMARK    5  A    between atoms: C_21  and  N_22
REMARK                            x       y       z     vdW  Elec       q    Type
REMARK                         _______ _______ _______ _____ _____    ______ ____
ROOT
ATOM      1  O   UNL     1       6.130   4.732  18.997  0.00  0.00    +0.000 OA
ATOM      2  C   UNL     1       5.381   4.295  18.128  0.00  0.00    +0.000 C 
ATOM      3  N   UNL     1       5.695   4.147  16.784  0.00  0.00    +0.000 N 
ATOM      4  C   UNL     1       6.879   4.566  16.202  0.00  0.00    +0.000 C 
ATOM      5  O   UNL     1       7.860   4.987  16.802  0.00  0.00    +0.000 OA
ATOM      6  H   UNL     1       4.906   3.985  16.167  0.00  0.00    +0.000 HD
ENDROOT
BRANCH   4   7
ATOM      7  C   UNL     1       6.942   4.494  14.712  0.00  0.00    +0.000 A 
ATOM      8  C   UNL     1       7.876   5.313  14.054  0.00  0.00    +0.000 A 
ATOM      9  C   UNL     1       7.976   5.309  12.662  0.00  0.00    +0.000 A 
ATOM     10  C   UNL     1       7.145   4.482  11.907  0.00  0.00    +0.000 A 
ATOM     11  C   UNL     1       6.229   3.646  12.560  0.00  0.00    +0.000 A 
ATOM     12  C   UNL     1       6.129   3.637  13.960  0.00  0.00    +0.000 A 
BRANCH  11  13
ATOM     13  N   UNL     1       5.359   2.768  11.767  0.00  0.00    +0.000 N 
ATOM     14  O   UNL     1       4.186   3.125  11.590  0.00  0.00    +0.000 OA
ATOM     15  O   UNL     1       5.853   1.724  11.320  0.00  0.00    +0.000 OA
ENDBRANCH  11  13
ENDBRANCH   4   7
BRANCH   2  16
ATOM     16  C   UNL     1       3.969   3.847  18.471  0.00  0.00    +0.000 C 
BRANCH  16  17
ATOM     17  S   UNL     1       3.295   4.841  19.831  0.00  0.00    +0.000 S 
BRANCH  17  18
ATOM     18  C   UNL     1       2.959   6.333  19.025  0.00  0.00    +0.000 A 
ATOM     19  N   UNL     1       3.407   6.687  17.839  0.00  0.00    +0.000 NA
ATOM     20  N   UNL     1       2.939   7.958  17.580  0.00  0.00    +0.000 NA
ATOM     21  C   UNL     1       2.216   8.343  18.614  0.00  0.00    +0.000 A 
ATOM     22  C   UNL     1       1.506   9.538  18.907  0.00  0.00    +0.000 A 
ATOM     23  C   UNL     1       0.886   9.674  20.098  0.00  0.00    +0.000 A 
ATOM     24  C   UNL     1       0.918   8.615  21.097  0.00  0.00    +0.000 A 
ATOM     25  C   UNL     1       1.571   7.475  20.815  0.00  0.00    +0.000 A 
ATOM     26  N   UNL     1       2.210   7.343  19.580  0.00  0.00    +0.000 N 
ENDBRANCH  17  18
ENDBRANCH  16  17
ENDBRANCH   2  16
TORSDOF 5
ENDMDL
MODEL 5
REMARK VINA RESULT:      -7.9      3.141      5.708
REMARK  Name = 
REMARK  5 active torsions:
REMARK  status: ('A' for Active; 'I' for Inactive)
REMARK    1  A    between atoms: C_2  and  C_3
REMARK    2  A    between atoms: C_3  and  S_4
REMARK    3  A    between atoms: S_4  and  C_5
REMARK    4  A    between atoms: C_15  and  C_17
REMARK    5  A    between atoms: C_21  and  N_22
REMARK                            x       y       z     vdW  Elec       q    Type
REMARK                         _______ _______ _______ _____ _____    ______ ____
ROOT
ATOM      1  O   UNL     1       0.770   2.689  18.420  0.00  0.00    +0.000 OA
ATOM      2  C   UNL     1       1.420   3.595  18.935  0.00  0.00    +0.000 C 
ATOM      3  N   UNL     1       2.635   4.084  18.478  0.00  0.00    +0.000 N 
ATOM      4  C   UNL     1       3.349   3.551  17.418  0.00  0.00    +0.000 C 
ATOM      5  O   UNL     1       2.952   2.681  16.655  0.00  0.00    +0.000 OA
ATOM      6  H   UNL     1       3.143   4.671  19.132  0.00  0.00    +0.000 HD
ENDROOT
BRANCH   4   7
ATOM      7  C   UNL     1       4.725   4.096  17.211  0.00  0.00    +0.000 A 
ATOM      8  C   UNL     1       5.296   3.968  15.934  0.00  0.00    +0.000 A 
ATOM      9  C   UNL     1       6.584   4.440  15.675  0.00  0.00    +0.000 A 
ATOM     10  C   UNL     1       7.318   5.051  16.690  0.00  0.00    +0.000 A 
ATOM     11  C   UNL     1       6.743   5.203  17.959  0.00  0.00    +0.000 A 
ATOM     12  C   UNL     1       5.444   4.740  18.225  0.00  0.00    +0.000 A 
BRANCH  11  13
ATOM     13  N   UNL     1       7.512   5.854  19.028  0.00  0.00    +0.000 N 
ATOM     14  O   UNL     1       8.161   6.868  18.737  0.00  0.00    +0.000 OA
ATOM     15  O   UNL     1       7.460   5.351  20.159  0.00  0.00    +0.000 OA
ENDBRANCH  11  13
ENDBRANCH   4   7
BRANCH   2  16
ATOM     16  C   UNL     1       0.915   4.301  20.183  0.00  0.00    +0.000 C 
BRANCH  16  17
ATOM     17  S   UNL     1       2.241   5.272  20.951  0.00  0.00    +0.000 S 
BRANCH  17  18
ATOM     18  C   UNL     1       1.635   6.880  20.762  0.00  0.00    +0.000 A 
ATOM     19  N   UNL     1       0.845   7.510  21.605  0.00  0.00    +0.000 NA
ATOM     20  N   UNL     1       0.569   8.750  21.069  0.00  0.00    +0.000 NA
ATOM     21  C   UNL     1       1.200   8.841  19.913  0.00  0.00    +0.000 A 
ATOM     22  C   UNL     1       1.275   9.866  18.932  0.00  0.00    +0.000 A 
ATOM     23  C   UNL     1       1.973   9.653  17.795  0.00  0.00    +0.000 A 
ATOM     24  C   UNL     1       2.662   8.395  17.551  0.00  0.00    +0.000 A 
ATOM     25  C   UNL     1       2.611   7.432  18.487  0.00  0.00    +0.000 A 
ATOM     26  N   UNL     1       1.887   7.660  19.659  0.00  0.00    +0.000 N 
ENDBRANCH  17  18
ENDBRANCH  16  17
ENDBRANCH   2  16
TORSDOF 5
ENDMDL
MODEL 6
REMARK VINA RESULT:      -7.9      3.930      7.404
REMARK  Name = 
REMARK  5 active torsions:
REMARK  status: ('A' for Active; 'I' for Inactive)
REMARK    1  A    between atoms: C_2  and  C_3
REMARK    2  A    between atoms: C_3  and  S_4
REMARK    3  A    between atoms: S_4  and  C_5
REMARK    4  A    between atoms: C_15  and  C_17
REMARK    5  A    between atoms: C_21  and  N_22
REMARK                            x       y       z     vdW  Elec       q    Type
REMARK                         _______ _______ _______ _____ _____    ______ ____
ROOT
ATOM      1  O   UNL     1       4.787   6.836  16.365  0.00  0.00    +0.000 OA
ATOM      2  C   UNL     1       4.515   6.402  17.481  0.00  0.00    +0.000 C 
ATOM      3  N   UNL     1       3.509   6.871  18.313  0.00  0.00    +0.000 N 
ATOM      4  C   UNL     1       2.718   7.976  18.046  0.00  0.00    +0.000 C 
ATOM      5  O   UNL     1       2.694   8.599  16.992  0.00  0.00    +0.000 OA
ATOM      6  H   UNL     1       3.558   6.558  19.277  0.00  0.00    +0.000 HD
ENDROOT
BRANCH   4   7
ATOM      7  C   UNL     1       1.830   8.434  19.155  0.00  0.00    +0.000 A 
ATOM      8  C   UNL     1       1.806   7.671  20.335  0.00  0.00    +0.000 A 
ATOM      9  C   UNL     1       0.986   8.032  21.405  0.00  0.00    +0.000 A 
ATOM     10  C   UNL     1       0.179   9.165  21.312  0.00  0.00    +0.000 A 
ATOM     11  C   UNL     1       0.218   9.943  20.146  0.00  0.00    +0.000 A 
ATOM     12  C   UNL     1       1.048   9.592  19.069  0.00  0.00    +0.000 A 
BRANCH  11  13
ATOM     13  N   UNL     1      -0.625  11.143  20.049  0.00  0.00    +0.000 N 
ATOM     14  O   UNL     1      -0.222  12.177  20.599  0.00  0.00    +0.000 OA
ATOM     15  O   UNL     1      -1.687  11.047  19.418  0.00  0.00    +0.000 OA
ENDBRANCH  11  13
ENDBRANCH   4   7
BRANCH   2  16
ATOM     16  C   UNL     1       5.297   5.241  18.074  0.00  0.00    +0.000 C 
BRANCH  16  17
ATOM     17  S   UNL     1       4.823   3.678  17.284  0.00  0.00    +0.000 S 
BRANCH  17  18
ATOM     18  C   UNL     1       3.165   3.550  17.758  0.00  0.00    +0.000 A 
ATOM     19  N   UNL     1       2.122   3.739  16.978  0.00  0.00    +0.000 NA
ATOM     20  N   UNL     1       0.991   3.576  17.748  0.00  0.00    +0.000 NA
ATOM     21  C   UNL     1       1.376   3.290  18.978  0.00  0.00    +0.000 A 
ATOM     22  C   UNL     1       0.662   3.033  20.179  0.00  0.00    +0.000 A 
ATOM     23  C   UNL     1       1.339   2.817  21.327  0.00  0.00    +0.000 A 
ATOM     24  C   UNL     1       2.794   2.832  21.365  0.00  0.00    +0.000 A 
ATOM     25  C   UNL     1       3.472   3.054  20.227  0.00  0.00    +0.000 A 
ATOM     26  N   UNL     1       2.765   3.277  19.044  0.00  0.00    +0.000 N 
ENDBRANCH  17  18
ENDBRANCH  16  17
ENDBRANCH   2  16
TORSDOF 5
ENDMDL
MODEL 7
REMARK VINA RESULT:      -7.9      1.189      1.211
REMARK  Name = 
REMARK  5 active torsions:
REMARK  status: ('A' for Active; 'I' for Inactive)
REMARK    1  A    between atoms: C_2  and  C_3
REMARK    2  A    between atoms: C_3  and  S_4
REMARK    3  A    between atoms: S_4  and  C_5
REMARK    4  A    between atoms: C_15  and  C_17
REMARK    5  A    between atoms: C_21  and  N_22
REMARK                            x       y       z     vdW  Elec       q    Type
REMARK                         _______ _______ _______ _____ _____    ______ ____
ROOT
ATOM      1  O   UNL     1       5.934   6.392  18.257  0.00  0.00    +0.000 OA
ATOM      2  C   UNL     1       5.219   6.499  17.265  0.00  0.00    +0.000 C 
ATOM      3  N   UNL     1       5.447   5.905  16.031  0.00  0.00    +0.000 N 
ATOM      4  C   UNL     1       6.578   5.176  15.706  0.00  0.00    +0.000 C 
ATOM      5  O   UNL     1       7.456   4.834  16.487  0.00  0.00    +0.000 OA
ATOM      6  H   UNL     1       4.891   6.267  15.263  0.00  0.00    +0.000 HD
ENDROOT
BRANCH   4   7
ATOM      7  C   UNL     1       6.722   4.790  14.270  0.00  0.00    +0.000 A 
ATOM      8  C   UNL     1       7.746   5.398  13.526  0.00  0.00    +0.000 A 
ATOM      9  C   UNL     1       7.926   5.096  12.175  0.00  0.00    +0.000 A 
ATOM     10  C   UNL     1       7.086   4.177  11.550  0.00  0.00    +0.000 A 
ATOM     11  C   UNL     1       6.078   3.549  12.294  0.00  0.00    +0.000 A 
ATOM     12  C   UNL     1       5.897   3.840  13.656  0.00  0.00    +0.000 A 
BRANCH  11  13
ATOM     13  N   UNL     1       5.197   2.573  11.640  0.00  0.00    +0.000 N 
ATOM     14  O   UNL     1       5.670   1.461  11.364  0.00  0.00    +0.000 OA
ATOM     15  O   UNL     1       4.031   2.921  11.406  0.00  0.00    +0.000 OA
ENDBRANCH  11  13
ENDBRANCH   4   7
BRANCH   2  16
ATOM     16  C   UNL     1       3.948   7.331  17.309  0.00  0.00    +0.000 C 
BRANCH  16  17
ATOM     17  S   UNL     1       2.909   6.839  18.712  0.00  0.00    +0.000 S 
BRANCH  17  18
ATOM     18  C   UNL     1       2.425   5.249  18.233  0.00  0.00    +0.000 A 
ATOM     19  N   UNL     1       1.392   4.954  17.473  0.00  0.00    +0.000 NA
ATOM     20  N   UNL     1       1.337   3.581  17.362  0.00  0.00    +0.000 NA
ATOM     21  C   UNL     1       2.340   3.077  18.056  0.00  0.00    +0.000 A 
ATOM     22  C   UNL     1       2.771   1.747  18.306  0.00  0.00    +0.000 A 
ATOM     23  C   UNL     1       3.826   1.527  19.119  0.00  0.00    +0.000 A 
ATOM     24  C   UNL     1       4.546   2.627  19.745  0.00  0.00    +0.000 A 
ATOM     25  C   UNL     1       4.155   3.887  19.493  0.00  0.00    +0.000 A 
ATOM     26  N   UNL     1       3.062   4.106  18.652  0.00  0.00    +0.000 N 
ENDBRANCH  17  18
ENDBRANCH  16  17
ENDBRANCH   2  16
TORSDOF 5
ENDMDL
MODEL 8
REMARK VINA RESULT:      -7.9      3.116      5.345
REMARK  Name = 
REMARK  5 active torsions:
REMARK  status: ('A' for Active; 'I' for Inactive)
REMARK    1  A    between atoms: C_2  and  C_3
REMARK    2  A    between atoms: C_3  and  S_4
REMARK    3  A    between atoms: S_4  and  C_5
REMARK    4  A    between atoms: C_15  and  C_17
REMARK    5  A    between atoms: C_21  and  N_22
REMARK                            x       y       z     vdW  Elec       q    Type
REMARK                         _______ _______ _______ _____ _____    ______ ____
ROOT
ATOM      1  O   UNL     1       1.658   2.183  19.367  0.00  0.00    +0.000 OA
ATOM      2  C   UNL     1       1.949   3.371  19.261  0.00  0.00    +0.000 C 
ATOM      3  N   UNL     1       2.940   3.896  18.443  0.00  0.00    +0.000 N 
ATOM      4  C   UNL     1       3.822   3.138  17.691  0.00  0.00    +0.000 C 
ATOM      5  O   UNL     1       3.764   1.926  17.529  0.00  0.00    +0.000 OA
ATOM      6  H   UNL     1       3.200   4.858  18.634  0.00  0.00    +0.000 HD
ENDROOT
BRANCH   4   7
ATOM      7  C   UNL     1       4.937   3.885  17.035  0.00  0.00    +0.000 A 
ATOM      8  C   UNL     1       5.268   3.542  15.714  0.00  0.00    +0.000 A 
ATOM      9  C   UNL     1       6.311   4.187  15.046  0.00  0.00    +0.000 A 
ATOM     10  C   UNL     1       7.034   5.189  15.691  0.00  0.00    +0.000 A 
ATOM     11  C   UNL     1       6.692   5.552  17.000  0.00  0.00    +0.000 A 
ATOM     12  C   UNL     1       5.638   4.914  17.675  0.00  0.00    +0.000 A 
BRANCH  11  13
ATOM     13  N   UNL     1       7.447   6.613  17.679  0.00  0.00    +0.000 N 
ATOM     14  O   UNL     1       7.853   6.389  18.828  0.00  0.00    +0.000 OA
ATOM     15  O   UNL     1       7.636   7.668  17.057  0.00  0.00    +0.000 OA
ENDBRANCH  11  13
ENDBRANCH   4   7
BRANCH   2  16
ATOM     16  C   UNL     1       1.199   4.428  20.056  0.00  0.00    +0.000 C 
BRANCH  16  17
ATOM     17  S   UNL     1       2.354   5.633  20.768  0.00  0.00    +0.000 S 
BRANCH  17  18
ATOM     18  C   UNL     1       2.223   6.935  19.638  0.00  0.00    +0.000 A 
ATOM     19  N   UNL     1       2.720   6.952  18.419  0.00  0.00    +0.000 NA
ATOM     20  N   UNL     1       2.426   8.180  17.867  0.00  0.00    +0.000 NA
ATOM     21  C   UNL     1       1.755   8.878  18.764  0.00  0.00    +0.000 A 
ATOM     22  C   UNL     1       1.207  10.189  18.757  0.00  0.00    +0.000 A 
ATOM     23  C   UNL     1       0.603  10.667  19.866  0.00  0.00    +0.000 A 
ATOM     24  C   UNL     1       0.489   9.866  21.076  0.00  0.00    +0.000 A 
ATOM     25  C   UNL     1       0.987   8.618  21.078  0.00  0.00    +0.000 A 
ATOM     26  N   UNL     1       1.611   8.130  19.928  0.00  0.00    +0.000 N 
ENDBRANCH  17  18
ENDBRANCH  16  17
ENDBRANCH   2  16
TORSDOF 5
ENDMDL
MODEL 9
REMARK VINA RESULT:      -7.9      2.706      3.640
REMARK  Name = 
REMARK  5 active torsions:
REMARK  status: ('A' for Active; 'I' for Inactive)
REMARK    1  A    between atoms: C_2  and  C_3
REMARK    2  A    between atoms: C_3  and  S_4
REMARK    3  A    between atoms: S_4  and  C_5
REMARK    4  A    between atoms: C_15  and  C_17
REMARK    5  A    between atoms: C_21  and  N_22
REMARK                            x       y       z     vdW  Elec       q    Type
REMARK                         _______ _______ _______ _____ _____    ______ ____
ROOT
ATOM      1  O   UNL     1       5.242   4.969  18.817  0.00  0.00    +0.000 OA
ATOM      2  C   UNL     1       4.521   4.933  17.824  0.00  0.00    +0.000 C 
ATOM      3  N   UNL     1       4.933   4.649  16.530  0.00  0.00    +0.000 N 
ATOM      4  C   UNL     1       6.251   4.459  16.148  0.00  0.00    +0.000 C 
ATOM      5  O   UNL     1       7.209   4.372  16.906  0.00  0.00    +0.000 OA
ATOM      6  H   UNL     1       4.266   4.874  15.799  0.00  0.00    +0.000 HD
ENDROOT
BRANCH   4   7
ATOM      7  C   UNL     1       6.503   4.361  14.679  0.00  0.00    +0.000 A 
ATOM      8  C   UNL     1       7.509   5.174  14.130  0.00  0.00    +0.000 A 
ATOM      9  C   UNL     1       7.786   5.145  12.762  0.00  0.00    +0.000 A 
ATOM     10  C   UNL     1       7.063   4.298  11.924  0.00  0.00    +0.000 A 
ATOM     11  C   UNL     1       6.075   3.467  12.471  0.00  0.00    +0.000 A 
ATOM     12  C   UNL     1       5.797   3.483  13.847  0.00  0.00    +0.000 A 
BRANCH  11  13
ATOM     13  N   UNL     1       5.317   2.568  11.591  0.00  0.00    +0.000 N 
ATOM     14  O   UNL     1       5.815   1.464  11.327  0.00  0.00    +0.000 OA
ATOM     15  O   UNL     1       4.223   2.967  11.169  0.00  0.00    +0.000 OA
ENDBRANCH  11  13
ENDBRANCH   4   7
BRANCH   2  16
ATOM     16  C   UNL     1       3.029   5.203  17.936  0.00  0.00    +0.000 C 
BRANCH  16  17
ATOM     17  S   UNL     1       2.655   6.108  19.463  0.00  0.00    +0.000 S 
BRANCH  17  18
ATOM     18  C   UNL     1       2.232   7.664  18.838  0.00  0.00    +0.000 A 
ATOM     19  N   UNL     1       2.518   8.116  17.636  0.00  0.00    +0.000 NA
ATOM     20  N   UNL     1       2.036   9.405  17.551  0.00  0.00    +0.000 NA
ATOM     21  C   UNL     1       1.467   9.702  18.704  0.00  0.00    +0.000 A 
ATOM     22  C   UNL     1       0.820  10.870  19.190  0.00  0.00    +0.000 A 
ATOM     23  C   UNL     1       0.372  10.905  20.463  0.00  0.00    +0.000 A 
ATOM     24  C   UNL     1       0.526   9.766  21.356  0.00  0.00    +0.000 A 
ATOM     25  C   UNL     1       1.118   8.652  20.892  0.00  0.00    +0.000 A 
ATOM     26  N   UNL     1       1.580   8.624  19.575  0.00  0.00    +0.000 N 
ENDBRANCH  17  18
ENDBRANCH  16  17
ENDBRANCH   2  16
TORSDOF 5
ENDMDL
