MODEL 1
REMARK VINA RESULT:      -8.3      0.000      0.000
REMARK  Name = 
REMARK  9 active torsions:
REMARK  status: ('A' for Active; 'I' for Inactive)
REMARK    1  A    between atoms: C_1  and  O_2
REMARK    2  A    between atoms: O_2  and  C_3
REMARK    3  A    between atoms: C_6  and  C_7
REMARK    4  A    between atoms: C_8  and  C_9
REMARK    5  A    between atoms: C_12  and  O_13
REMARK    6  A    between atoms: C_15  and  C_16
REMARK    7  A    between atoms: C_16  and  C_17
REMARK    8  A    between atoms: C_26  and  O_27
REMARK    9  A    between atoms: O_27  and  C_28
REMARK                            x       y       z     vdW  Elec       q    Type
REMARK                         _______ _______ _______ _____ _____    ______ ____
ROOT
ATOM      1  C   UNL     1       2.358   5.589  18.870  0.00  0.00    +0.000 A 
ATOM      2  C   UNL     1       1.799   4.419  19.465  0.00  0.00    +0.000 A 
ATOM      3  C   UNL     1       0.697   4.293  20.455  0.00  0.00    +0.000 C 
ATOM      4  N   UNL     1       2.398   3.297  19.034  0.00  0.00    +0.000 NA
ATOM      5  N   UNL     1       3.364   3.734  18.186  0.00  0.00    +0.000 N 
ATOM      6  C   UNL     1       4.303   2.939  17.525  0.00  0.00    +0.000 A 
ATOM      7  C   UNL     1       5.223   3.511  16.729  0.00  0.00    +0.000 A 
ATOM      8  C   UNL     1       5.124   4.997  16.584  0.00  0.00    +0.000 A 
ATOM      9  N   UNL     1       4.258   5.743  17.211  0.00  0.00    +0.000 NA
ATOM     10  C   UNL     1       3.365   5.114  18.042  0.00  0.00    +0.000 A 
ENDROOT
BRANCH   1  14
ATOM     11  C   UNL     1       1.274   9.688  19.420  0.00  0.00    +0.000 A 
ATOM     12  C   UNL     1       1.682   9.212  18.166  0.00  0.00    +0.000 A 
ATOM     13  C   UNL     1       2.011   7.874  17.981  0.00  0.00    +0.000 A 
ATOM     14  C   UNL     1       2.071   7.002  19.065  0.00  0.00    +0.000 A 
ATOM     15  C   UNL     1       1.800   7.521  20.337  0.00  0.00    +0.000 A 
ATOM     16  C   UNL     1       1.379   8.844  20.533  0.00  0.00    +0.000 A 
BRANCH  11  18
ATOM     17  C   UNL     1      -0.572  11.105  19.053  0.00  0.00    +0.000 C 
ATOM     18  O   UNL     1       0.768  10.955  19.537  0.00  0.00    +0.000 OA
ENDBRANCH  11  18
BRANCH  16  19
ATOM     19  O   UNL     1       1.090   9.079  21.847  0.00  0.00    +0.000 OA
ATOM     20  C   UNL     1      -0.256   9.093  22.277  0.00  0.00    +0.000 C 
ENDBRANCH  16  19
ENDBRANCH   1  14
BRANCH   6  21
ATOM     21  O   UNL     1       4.273   1.567  17.715  0.00  0.00    +0.000 OA
ATOM     22  H   UNL     1       4.909   1.398  18.435  0.00  0.00    +0.000 HD
ENDBRANCH   6  21
BRANCH   8  23
ATOM     23  C   UNL     1       6.065   5.670  15.592  0.00  0.00    +0.000 C 
BRANCH  23  24
ATOM     24  C   UNL     1       6.315   4.894  14.321  0.00  0.00    +0.000 A 
ATOM     25  C   UNL     1       5.343   4.011  13.829  0.00  0.00    +0.000 A 
ATOM     26  C   UNL     1       5.519   3.372  12.598  0.00  0.00    +0.000 A 
ATOM     27  C   UNL     1       6.663   3.615  11.842  0.00  0.00    +0.000 A 
ATOM     28  C   UNL     1       7.641   4.483  12.326  0.00  0.00    +0.000 A 
ATOM     29  C   UNL     1       7.472   5.114  13.561  0.00  0.00    +0.000 A 
ENDBRANCH  23  24
ENDBRANCH   8  23
TORSDOF 6
ENDMDL
MODEL 2
REMARK VINA RESULT:      -8.2      2.326      7.764
REMARK  Name = 
REMARK  9 active torsions:
REMARK  status: ('A' for Active; 'I' for Inactive)
REMARK    1  A    between atoms: C_1  and  O_2
REMARK    2  A    between atoms: O_2  and  C_3
REMARK    3  A    between atoms: C_6  and  C_7
REMARK    4  A    between atoms: C_8  and  C_9
REMARK    5  A    between atoms: C_12  and  O_13
REMARK    6  A    between atoms: C_15  and  C_16
REMARK    7  A    between atoms: C_16  and  C_17
REMARK    8  A    between atoms: C_26  and  O_27
REMARK    9  A    between atoms: O_27  and  C_28
REMARK                            x       y       z     vdW  Elec       q    Type
REMARK                         _______ _______ _______ _____ _____    ______ ____
ROOT
ATOM      1  C   UNL     1       4.158   3.771  18.030  0.00  0.00    +0.000 A 
ATOM      2  C   UNL     1       3.719   2.501  18.514  0.00  0.00    +0.000 A 
ATOM      3  C   UNL     1       4.215   1.139  18.184  0.00  0.00    +0.000 C 
ATOM      4  N   UNL     1       2.707   2.616  19.389  0.00  0.00    +0.000 NA
ATOM      5  N   UNL     1       2.464   3.950  19.451  0.00  0.00    +0.000 N 
ATOM      6  C   UNL     1       1.452   4.570  20.188  0.00  0.00    +0.000 A 
ATOM      7  C   UNL     1       1.311   5.906  20.140  0.00  0.00    +0.000 A 
ATOM      8  C   UNL     1       2.316   6.636  19.306  0.00  0.00    +0.000 A 
ATOM      9  N   UNL     1       3.253   6.059  18.607  0.00  0.00    +0.000 NA
ATOM     10  C   UNL     1       3.330   4.690  18.660  0.00  0.00    +0.000 A 
ENDROOT
BRANCH   1  14
ATOM     11  C   UNL     1       6.982   5.013  15.070  0.00  0.00    +0.000 A 
ATOM     12  C   UNL     1       6.150   3.905  14.855  0.00  0.00    +0.000 A 
ATOM     13  C   UNL     1       5.214   3.516  15.806  0.00  0.00    +0.000 A 
ATOM     14  C   UNL     1       5.171   4.134  17.053  0.00  0.00    +0.000 A 
ATOM     15  C   UNL     1       6.104   5.146  17.312  0.00  0.00    +0.000 A 
ATOM     16  C   UNL     1       6.994   5.615  16.336  0.00  0.00    +0.000 A 
BRANCH  11  18
ATOM     17  C   UNL     1       7.438   4.956  12.760  0.00  0.00    +0.000 C 
ATOM     18  O   UNL     1       7.753   5.497  14.049  0.00  0.00    +0.000 OA
ENDBRANCH  11  18
BRANCH  16  19
ATOM     19  O   UNL     1       7.733   6.664  16.804  0.00  0.00    +0.000 OA
ATOM     20  C   UNL     1       7.777   6.927  18.192  0.00  0.00    +0.000 C 
ENDBRANCH  16  19
ENDBRANCH   1  14
BRANCH   6  21
ATOM     21  O   UNL     1       0.600   3.786  20.950  0.00  0.00    +0.000 OA
ATOM     22  H   UNL     1       0.036   3.323  20.302  0.00  0.00    +0.000 HD
ENDBRANCH   6  21
BRANCH   8  23
ATOM     23  C   UNL     1       2.272   8.159  19.326  0.00  0.00    +0.000 C 
BRANCH  23  24
ATOM     24  C   UNL     1       1.292   8.758  20.307  0.00  0.00    +0.000 A 
ATOM     25  C   UNL     1       1.472   8.574  21.686  0.00  0.00    +0.000 A 
ATOM     26  C   UNL     1       0.634   9.213  22.605  0.00  0.00    +0.000 A 
ATOM     27  C   UNL     1      -0.385  10.049  22.156  0.00  0.00    +0.000 A 
ATOM     28  C   UNL     1      -0.579  10.232  20.788  0.00  0.00    +0.000 A 
ATOM     29  C   UNL     1       0.250   9.585  19.868  0.00  0.00    +0.000 A 
ENDBRANCH  23  24
ENDBRANCH   8  23
TORSDOF 6
ENDMDL
MODEL 3
REMARK VINA RESULT:      -8.1      2.285      7.471
REMARK  Name = 
REMARK  9 active torsions:
REMARK  status: ('A' for Active; 'I' for Inactive)
REMARK    1  A    between atoms: C_1  and  O_2
REMARK    2  A    between atoms: O_2  and  C_3
REMARK    3  A    between atoms: C_6  and  C_7
REMARK    4  A    between atoms: C_8  and  C_9
REMARK    5  A    between atoms: C_12  and  O_13
REMARK    6  A    between atoms: C_15  and  C_16
REMARK    7  A    between atoms: C_16  and  C_17
REMARK    8  A    between atoms: C_26  and  O_27
REMARK    9  A    between atoms: O_27  and  C_28
REMARK                            x       y       z     vdW  Elec       q    Type
REMARK                         _______ _______ _______ _____ _____    ______ ____
ROOT
ATOM      1  C   UNL     1       4.153   3.878  17.839  0.00  0.00    +0.000 A 
ATOM      2  C   UNL     1       3.644   2.629  18.308  0.00  0.00    +0.000 A 
ATOM      3  C   UNL     1       4.050   1.245  17.947  0.00  0.00    +0.000 C 
ATOM      4  N   UNL     1       2.654   2.790  19.201  0.00  0.00    +0.000 NA
ATOM      5  N   UNL     1       2.494   4.135  19.290  0.00  0.00    +0.000 N 
ATOM      6  C   UNL     1       1.533   4.803  20.052  0.00  0.00    +0.000 A 
ATOM      7  C   UNL     1       1.474   6.146  20.029  0.00  0.00    +0.000 A 
ATOM      8  C   UNL     1       2.511   6.827  19.192  0.00  0.00    +0.000 A 
ATOM      9  N   UNL     1       3.399   6.206  18.468  0.00  0.00    +0.000 NA
ATOM     10  C   UNL     1       3.393   4.834  18.497  0.00  0.00    +0.000 A 
ENDROOT
BRANCH   1  14
ATOM     11  C   UNL     1       7.001   4.991  14.851  0.00  0.00    +0.000 A 
ATOM     12  C   UNL     1       6.125   3.915  14.648  0.00  0.00    +0.000 A 
ATOM     13  C   UNL     1       5.182   3.568  15.609  0.00  0.00    +0.000 A 
ATOM     14  C   UNL     1       5.173   4.195  16.852  0.00  0.00    +0.000 A 
ATOM     15  C   UNL     1       6.146   5.172  17.098  0.00  0.00    +0.000 A 
ATOM     16  C   UNL     1       7.046   5.599  16.113  0.00  0.00    +0.000 A 
BRANCH  11  18
ATOM     17  C   UNL     1       7.507   4.823  12.557  0.00  0.00    +0.000 C 
ATOM     18  O   UNL     1       7.783   5.438  13.821  0.00  0.00    +0.000 OA
ENDBRANCH  11  18
BRANCH  16  19
ATOM     19  O   UNL     1       7.828   6.621  16.569  0.00  0.00    +0.000 OA
ATOM     20  C   UNL     1       7.349   7.468  17.594  0.00  0.00    +0.000 C 
ENDBRANCH  16  19
ENDBRANCH   1  14
BRANCH   6  21
ATOM     21  O   UNL     1       0.646   4.059  20.814  0.00  0.00    +0.000 OA
ATOM     22  H   UNL     1       1.177   3.325  21.175  0.00  0.00    +0.000 HD
ENDBRANCH   6  21
BRANCH   8  23
ATOM     23  C   UNL     1       2.561   8.350  19.238  0.00  0.00    +0.000 C 
BRANCH  23  24
ATOM     24  C   UNL     1       1.218   9.036  19.156  0.00  0.00    +0.000 A 
ATOM     25  C   UNL     1       0.615   9.549  20.314  0.00  0.00    +0.000 A 
ATOM     26  C   UNL     1      -0.574  10.280  20.234  0.00  0.00    +0.000 A 
ATOM     27  C   UNL     1      -1.167  10.515  18.996  0.00  0.00    +0.000 A 
ATOM     28  C   UNL     1      -0.582  10.002  17.839  0.00  0.00    +0.000 A 
ATOM     29  C   UNL     1       0.600   9.262  17.919  0.00  0.00    +0.000 A 
ENDBRANCH  23  24
ENDBRANCH   8  23
TORSDOF 6
ENDMDL
MODEL 4
REMARK VINA RESULT:      -7.9      6.573     10.603
REMARK  Name = 
REMARK  9 active torsions:
REMARK  status: ('A' for Active; 'I' for Inactive)
REMARK    1  A    between atoms: C_1  and  O_2
REMARK    2  A    between atoms: O_2  and  C_3
REMARK    3  A    between atoms: C_6  and  C_7
REMARK    4  A    between atoms: C_8  and  C_9
REMARK    5  A    between atoms: C_12  and  O_13
REMARK    6  A    between atoms: C_15  and  C_16
REMARK    7  A    between atoms: C_16  and  C_17
REMARK    8  A    between atoms: C_26  and  O_27
REMARK    9  A    between atoms: O_27  and  C_28
REMARK                            x       y       z     vdW  Elec       q    Type
REMARK                         _______ _______ _______ _____ _____    ______ ____
ROOT
ATOM      1  C   UNL     1      -1.305  11.005  18.905  0.00  0.00    +0.000 A 
ATOM      2  C   UNL     1      -0.460  10.167  18.116  0.00  0.00    +0.000 A 
ATOM      3  C   UNL     1       0.934   9.718  18.370  0.00  0.00    +0.000 C 
ATOM      4  N   UNL     1      -1.066   9.756  16.990  0.00  0.00    +0.000 NA
ATOM      5  N   UNL     1      -2.287  10.350  17.027  0.00  0.00    +0.000 N 
ATOM      6  C   UNL     1      -3.269  10.277  16.037  0.00  0.00    +0.000 A 
ATOM      7  C   UNL     1      -4.430  10.936  16.196  0.00  0.00    +0.000 A 
ATOM      8  C   UNL     1      -4.585  11.679  17.486  0.00  0.00    +0.000 A 
ATOM      9  N   UNL     1      -3.663  11.760  18.405  0.00  0.00    +0.000 NA
ATOM     10  C   UNL     1      -2.482  11.100  18.177  0.00  0.00    +0.000 A 
ENDROOT
BRANCH   1  14
ATOM     11  C   UNL     1      -0.853  13.051  22.632  0.00  0.00    +0.000 A 
ATOM     12  C   UNL     1      -0.993  13.760  21.431  0.00  0.00    +0.000 A 
ATOM     13  C   UNL     1      -1.165  13.096  20.222  0.00  0.00    +0.000 A 
ATOM     14  C   UNL     1      -1.069  11.709  20.155  0.00  0.00    +0.000 A 
ATOM     15  C   UNL     1      -0.785  11.016  21.339  0.00  0.00    +0.000 A 
ATOM     16  C   UNL     1      -0.699  11.658  22.582  0.00  0.00    +0.000 A 
BRANCH  11  18
ATOM     17  C   UNL     1      -2.090  14.451  24.066  0.00  0.00    +0.000 C 
ATOM     18  O   UNL     1      -0.883  13.717  23.827  0.00  0.00    +0.000 OA
ENDBRANCH  11  18
BRANCH  16  19
ATOM     19  O   UNL     1      -0.508  10.758  23.591  0.00  0.00    +0.000 OA
ATOM     20  C   UNL     1      -0.009   9.469  23.296  0.00  0.00    +0.000 C 
ENDBRANCH  16  19
ENDBRANCH   1  14
BRANCH   6  21
ATOM     21  O   UNL     1      -3.020   9.528  14.898  0.00  0.00    +0.000 OA
ATOM     22  H   UNL     1      -2.112   9.191  15.011  0.00  0.00    +0.000 HD
ENDBRANCH   6  21
BRANCH   8  23
ATOM     23  C   UNL     1      -5.932  12.334  17.762  0.00  0.00    +0.000 C 
BRANCH  23  24
ATOM     24  C   UNL     1      -6.697  11.755  18.929  0.00  0.00    +0.000 A 
ATOM     25  C   UNL     1      -6.890  10.370  19.030  0.00  0.00    +0.000 A 
ATOM     26  C   UNL     1      -7.500   9.816  20.160  0.00  0.00    +0.000 A 
ATOM     27  C   UNL     1      -7.916  10.640  21.203  0.00  0.00    +0.000 A 
ATOM     28  C   UNL     1      -7.739  12.020  21.109  0.00  0.00    +0.000 A 
ATOM     29  C   UNL     1      -7.139  12.575  19.976  0.00  0.00    +0.000 A 
ENDBRANCH  23  24
ENDBRANCH   8  23
TORSDOF 6
ENDMDL
MODEL 5
REMARK VINA RESULT:      -7.9      2.713      4.467
REMARK  Name = 
REMARK  9 active torsions:
REMARK  status: ('A' for Active; 'I' for Inactive)
REMARK    1  A    between atoms: C_1  and  O_2
REMARK    2  A    between atoms: O_2  and  C_3
REMARK    3  A    between atoms: C_6  and  C_7
REMARK    4  A    between atoms: C_8  and  C_9
REMARK    5  A    between atoms: C_12  and  O_13
REMARK    6  A    between atoms: C_15  and  C_16
REMARK    7  A    between atoms: C_16  and  C_17
REMARK    8  A    between atoms: C_26  and  O_27
REMARK    9  A    between atoms: O_27  and  C_28
REMARK                            x       y       z     vdW  Elec       q    Type
REMARK                         _______ _______ _______ _____ _____    ______ ____
ROOT
ATOM      1  C   UNL     1       0.914   9.322  20.040  0.00  0.00    +0.000 A 
ATOM      2  C   UNL     1       0.473   8.710  21.252  0.00  0.00    +0.000 A 
ATOM      3  C   UNL     1      -0.420   9.245  22.313  0.00  0.00    +0.000 C 
ATOM      4  N   UNL     1       0.971   7.472  21.404  0.00  0.00    +0.000 NA
ATOM      5  N   UNL     1       1.760   7.289  20.314  0.00  0.00    +0.000 N 
ATOM      6  C   UNL     1       2.550   6.169  20.046  0.00  0.00    +0.000 A 
ATOM      7  C   UNL     1       3.304   6.131  18.934  0.00  0.00    +0.000 A 
ATOM      8  C   UNL     1       3.188   7.318  18.029  0.00  0.00    +0.000 A 
ATOM      9  N   UNL     1       2.462   8.370  18.284  0.00  0.00    +0.000 NA
ATOM     10  C   UNL     1       1.741   8.376  19.452  0.00  0.00    +0.000 A 
ENDROOT
BRANCH   1  14
ATOM     11  C   UNL     1       0.150  13.288  18.637  0.00  0.00    +0.000 A 
ATOM     12  C   UNL     1      -0.797  12.268  18.471  0.00  0.00    +0.000 A 
ATOM     13  C   UNL     1      -0.560  10.984  18.949  0.00  0.00    +0.000 A 
ATOM     14  C   UNL     1       0.679  10.645  19.486  0.00  0.00    +0.000 A 
ATOM     15  C   UNL     1       1.670  11.635  19.517  0.00  0.00    +0.000 A 
ATOM     16  C   UNL     1       1.422  12.957  19.124  0.00  0.00    +0.000 A 
BRANCH  11  18
ATOM     17  C   UNL     1      -0.613  15.357  19.463  0.00  0.00    +0.000 C 
ATOM     18  O   UNL     1      -0.179  14.582  18.339  0.00  0.00    +0.000 OA
ENDBRANCH  11  18
BRANCH  16  19
ATOM     19  O   UNL     1       2.516  13.748  19.335  0.00  0.00    +0.000 OA
ATOM     20  C   UNL     1       3.295  14.175  18.237  0.00  0.00    +0.000 C 
ENDBRANCH  16  19
ENDBRANCH   1  14
BRANCH   6  21
ATOM     21  O   UNL     1       2.549   5.116  20.948  0.00  0.00    +0.000 OA
ATOM     22  H   UNL     1       2.168   5.485  21.766  0.00  0.00    +0.000 HD
ENDBRANCH   6  21
BRANCH   8  23
ATOM     23  C   UNL     1       3.925   7.260  16.697  0.00  0.00    +0.000 C 
BRANCH  23  24
ATOM     24  C   UNL     1       5.147   6.373  16.681  0.00  0.00    +0.000 A 
ATOM     25  C   UNL     1       6.293   6.733  17.406  0.00  0.00    +0.000 A 
ATOM     26  C   UNL     1       7.387   5.868  17.486  0.00  0.00    +0.000 A 
ATOM     27  C   UNL     1       7.346   4.630  16.849  0.00  0.00    +0.000 A 
ATOM     28  C   UNL     1       6.217   4.264  16.117  0.00  0.00    +0.000 A 
ATOM     29  C   UNL     1       5.127   5.133  16.028  0.00  0.00    +0.000 A 
ENDBRANCH  23  24
ENDBRANCH   8  23
TORSDOF 6
ENDMDL
MODEL 6
REMARK VINA RESULT:      -7.7      2.793      4.525
REMARK  Name = 
REMARK  9 active torsions:
REMARK  status: ('A' for Active; 'I' for Inactive)
REMARK    1  A    between atoms: C_1  and  O_2
REMARK    2  A    between atoms: O_2  and  C_3
REMARK    3  A    between atoms: C_6  and  C_7
REMARK    4  A    between atoms: C_8  and  C_9
REMARK    5  A    between atoms: C_12  and  O_13
REMARK    6  A    between atoms: C_15  and  C_16
REMARK    7  A    between atoms: C_16  and  C_17
REMARK    8  A    between atoms: C_26  and  O_27
REMARK    9  A    between atoms: O_27  and  C_28
REMARK                            x       y       z     vdW  Elec       q    Type
REMARK                         _______ _______ _______ _____ _____    ______ ____
ROOT
ATOM      1  C   UNL     1       0.710   9.273  20.351  0.00  0.00    +0.000 A 
ATOM      2  C   UNL     1       0.340   8.609  21.559  0.00  0.00    +0.000 A 
ATOM      3  C   UNL     1      -0.531   9.077  22.669  0.00  0.00    +0.000 C 
ATOM      4  N   UNL     1       0.893   7.388  21.655  0.00  0.00    +0.000 NA
ATOM      5  N   UNL     1       1.645   7.269  20.531  0.00  0.00    +0.000 N 
ATOM      6  C   UNL     1       2.467   6.190  20.200  0.00  0.00    +0.000 A 
ATOM      7  C   UNL     1       3.178   6.214  19.059  0.00  0.00    +0.000 A 
ATOM      8  C   UNL     1       2.980   7.421  18.196  0.00  0.00    +0.000 A 
ATOM      9  N   UNL     1       2.225   8.436  18.509  0.00  0.00    +0.000 NA
ATOM     10  C   UNL     1       1.550   8.378  19.703  0.00  0.00    +0.000 A 
ENDROOT
BRANCH   1  14
ATOM     11  C   UNL     1      -0.049  13.131  18.673  0.00  0.00    +0.000 A 
ATOM     12  C   UNL     1       0.908  12.959  19.683  0.00  0.00    +0.000 A 
ATOM     13  C   UNL     1       1.173  11.701  20.211  0.00  0.00    +0.000 A 
ATOM     14  C   UNL     1       0.401  10.601  19.846  0.00  0.00    +0.000 A 
ATOM     15  C   UNL     1      -0.648  10.811  18.942  0.00  0.00    +0.000 A 
ATOM     16  C   UNL     1      -0.873  12.052  18.329  0.00  0.00    +0.000 A 
BRANCH  11  18
ATOM     17  C   UNL     1       0.069  15.476  18.869  0.00  0.00    +0.000 C 
ATOM     18  O   UNL     1      -0.155  14.335  18.031  0.00  0.00    +0.000 OA
ENDBRANCH  11  18
BRANCH  16  19
ATOM     19  O   UNL     1      -1.891  11.976  17.422  0.00  0.00    +0.000 OA
ATOM     20  C   UNL     1      -2.314  10.715  16.945  0.00  0.00    +0.000 C 
ENDBRANCH  16  19
ENDBRANCH   1  14
BRANCH   6  21
ATOM     21  O   UNL     1       2.542   5.112  21.068  0.00  0.00    +0.000 OA
ATOM     22  H   UNL     1       2.481   4.324  20.497  0.00  0.00    +0.000 HD
ENDBRANCH   6  21
BRANCH   8  23
ATOM     23  C   UNL     1       3.667   7.431  16.836  0.00  0.00    +0.000 C 
BRANCH  23  24
ATOM     24  C   UNL     1       4.908   6.576  16.740  0.00  0.00    +0.000 A 
ATOM     25  C   UNL     1       6.125   7.034  17.267  0.00  0.00    +0.000 A 
ATOM     26  C   UNL     1       7.251   6.206  17.280  0.00  0.00    +0.000 A 
ATOM     27  C   UNL     1       7.172   4.910  16.775  0.00  0.00    +0.000 A 
ATOM     28  C   UNL     1       5.971   4.448  16.240  0.00  0.00    +0.000 A 
ATOM     29  C   UNL     1       4.847   5.277  16.216  0.00  0.00    +0.000 A 
ENDBRANCH  23  24
ENDBRANCH   8  23
TORSDOF 6
ENDMDL
MODEL 7
REMARK VINA RESULT:      -7.7      7.732     10.400
REMARK  Name = 
REMARK  9 active torsions:
REMARK  status: ('A' for Active; 'I' for Inactive)
REMARK    1  A    between atoms: C_1  and  O_2
REMARK    2  A    between atoms: O_2  and  C_3
REMARK    3  A    between atoms: C_6  and  C_7
REMARK    4  A    between atoms: C_8  and  C_9
REMARK    5  A    between atoms: C_12  and  O_13
REMARK    6  A    between atoms: C_15  and  C_16
REMARK    7  A    between atoms: C_16  and  C_17
REMARK    8  A    between atoms: C_26  and  O_27
REMARK    9  A    between atoms: O_27  and  C_28
REMARK                            x       y       z     vdW  Elec       q    Type
REMARK                         _______ _______ _______ _____ _____    ______ ____
ROOT
ATOM      1  C   UNL     1      -4.898  12.406  18.998  0.00  0.00    +0.000 A 
ATOM      2  C   UNL     1      -5.734  12.000  17.915  0.00  0.00    +0.000 A 
ATOM      3  C   UNL     1      -7.181  12.255  17.689  0.00  0.00    +0.000 C 
ATOM      4  N   UNL     1      -5.063  11.284  16.999  0.00  0.00    +0.000 NA
ATOM      5  N   UNL     1      -3.803  11.194  17.497  0.00  0.00    +0.000 N 
ATOM      6  C   UNL     1      -2.741  10.487  16.930  0.00  0.00    +0.000 A 
ATOM      7  C   UNL     1      -1.546  10.465  17.545  0.00  0.00    +0.000 A 
ATOM      8  C   UNL     1      -1.449  11.266  18.805  0.00  0.00    +0.000 A 
ATOM      9  N   UNL     1      -2.443  11.915  19.345  0.00  0.00    +0.000 NA
ATOM     10  C   UNL     1      -3.652  11.875  18.696  0.00  0.00    +0.000 A 
ENDROOT
BRANCH   1  14
ATOM     11  C   UNL     1      -5.985  14.482  22.575  0.00  0.00    +0.000 A 
ATOM     12  C   UNL     1      -5.955  15.141  21.338  0.00  0.00    +0.000 A 
ATOM     13  C   UNL     1      -5.626  14.461  20.171  0.00  0.00    +0.000 A 
ATOM     14  C   UNL     1      -5.188  13.141  20.219  0.00  0.00    +0.000 A 
ATOM     15  C   UNL     1      -5.083  12.533  21.477  0.00  0.00    +0.000 A 
ATOM     16  C   UNL     1      -5.496  13.170  22.655  0.00  0.00    +0.000 A 
BRANCH  11  18
ATOM     17  C   UNL     1      -7.888  14.855  23.911  0.00  0.00    +0.000 C 
ATOM     18  O   UNL     1      -6.499  15.114  23.674  0.00  0.00    +0.000 OA
ENDBRANCH  11  18
BRANCH  16  19
ATOM     19  O   UNL     1      -5.381  12.339  23.732  0.00  0.00    +0.000 OA
ATOM     20  C   UNL     1      -4.275  12.468  24.603  0.00  0.00    +0.000 C 
ENDBRANCH  16  19
ENDBRANCH   1  14
BRANCH   6  21
ATOM     21  O   UNL     1      -2.946   9.808  15.739  0.00  0.00    +0.000 OA
ATOM     22  H   UNL     1      -2.796   8.869  15.955  0.00  0.00    +0.000 HD
ENDBRANCH   6  21
BRANCH   8  23
ATOM     23  C   UNL     1      -0.081  11.373  19.467  0.00  0.00    +0.000 C 
BRANCH  23  24
ATOM     24  C   UNL     1       0.019  10.742  20.835  0.00  0.00    +0.000 A 
ATOM     25  C   UNL     1      -0.799  11.190  21.882  0.00  0.00    +0.000 A 
ATOM     26  C   UNL     1      -0.792  10.541  23.120  0.00  0.00    +0.000 A 
ATOM     27  C   UNL     1       0.026   9.432  23.322  0.00  0.00    +0.000 A 
ATOM     28  C   UNL     1       0.851   8.983  22.293  0.00  0.00    +0.000 A 
ATOM     29  C   UNL     1       0.853   9.637  21.058  0.00  0.00    +0.000 A 
ENDBRANCH  23  24
ENDBRANCH   8  23
TORSDOF 6
ENDMDL
MODEL 8
REMARK VINA RESULT:      -7.7      5.921      9.402
REMARK  Name = 
REMARK  9 active torsions:
REMARK  status: ('A' for Active; 'I' for Inactive)
REMARK    1  A    between atoms: C_1  and  O_2
REMARK    2  A    between atoms: O_2  and  C_3
REMARK    3  A    between atoms: C_6  and  C_7
REMARK    4  A    between atoms: C_8  and  C_9
REMARK    5  A    between atoms: C_12  and  O_13
REMARK    6  A    between atoms: C_15  and  C_16
REMARK    7  A    between atoms: C_16  and  C_17
REMARK    8  A    between atoms: C_26  and  O_27
REMARK    9  A    between atoms: O_27  and  C_28
REMARK                            x       y       z     vdW  Elec       q    Type
REMARK                         _______ _______ _______ _____ _____    ______ ____
ROOT
ATOM      1  C   UNL     1      -4.574  12.303  19.304  0.00  0.00    +0.000 A 
ATOM      2  C   UNL     1      -5.601  11.934  18.383  0.00  0.00    +0.000 A 
ATOM      3  C   UNL     1      -7.055  12.239  18.414  0.00  0.00    +0.000 C 
ATOM      4  N   UNL     1      -5.124  11.204  17.361  0.00  0.00    +0.000 NA
ATOM      5  N   UNL     1      -3.800  11.068  17.631  0.00  0.00    +0.000 N 
ATOM      6  C   UNL     1      -2.878  10.332  16.885  0.00  0.00    +0.000 A 
ATOM      7  C   UNL     1      -1.596  10.265  17.282  0.00  0.00    +0.000 A 
ATOM      8  C   UNL     1      -1.253  11.052  18.509  0.00  0.00    +0.000 A 
ATOM      9  N   UNL     1      -2.115  11.729  19.215  0.00  0.00    +0.000 NA
ATOM     10  C   UNL     1      -3.420  11.734  18.788  0.00  0.00    +0.000 A 
ENDROOT
BRANCH   1  14
ATOM     11  C   UNL     1      -4.937  14.546  22.926  0.00  0.00    +0.000 A 
ATOM     12  C   UNL     1      -4.207  15.045  21.838  0.00  0.00    +0.000 A 
ATOM     13  C   UNL     1      -4.109  14.328  20.652  0.00  0.00    +0.000 A 
ATOM     14  C   UNL     1      -4.622  13.037  20.559  0.00  0.00    +0.000 A 
ATOM     15  C   UNL     1      -5.225  12.490  21.699  0.00  0.00    +0.000 A 
ATOM     16  C   UNL     1      -5.414  13.229  22.875  0.00  0.00    +0.000 A 
BRANCH  11  18
ATOM     17  C   UNL     1      -5.909  16.546  23.702  0.00  0.00    +0.000 C 
ATOM     18  O   UNL     1      -5.186  15.348  24.007  0.00  0.00    +0.000 OA
ENDBRANCH  11  18
BRANCH  16  19
ATOM     19  O   UNL     1      -6.106  12.507  23.806  0.00  0.00    +0.000 OA
ATOM     20  C   UNL     1      -7.487  12.271  23.624  0.00  0.00    +0.000 C 
ENDBRANCH  16  19
ENDBRANCH   1  14
BRANCH   6  21
ATOM     21  O   UNL     1      -3.311   9.670  15.747  0.00  0.00    +0.000 OA
ATOM     22  H   UNL     1      -2.550   9.131  15.463  0.00  0.00    +0.000 HD
ENDBRANCH   6  21
BRANCH   8  23
ATOM     23  C   UNL     1       0.213  11.108  18.921  0.00  0.00    +0.000 C 
BRANCH  23  24
ATOM     24  C   UNL     1       0.891   9.765  19.053  0.00  0.00    +0.000 A 
ATOM     25  C   UNL     1       1.589   9.215  17.968  0.00  0.00    +0.000 A 
ATOM     26  C   UNL     1       2.310   8.027  18.113  0.00  0.00    +0.000 A 
ATOM     27  C   UNL     1       2.349   7.380  19.346  0.00  0.00    +0.000 A 
ATOM     28  C   UNL     1       1.652   7.912  20.430  0.00  0.00    +0.000 A 
ATOM     29  C   UNL     1       0.921   9.094  20.283  0.00  0.00    +0.000 A 
ENDBRANCH  23  24
ENDBRANCH   8  23
TORSDOF 6
ENDMDL
MODEL 9
REMARK VINA RESULT:      -7.6      5.908      9.336
REMARK  Name = 
REMARK  9 active torsions:
REMARK  status: ('A' for Active; 'I' for Inactive)
REMARK    1  A    between atoms: C_1  and  O_2
REMARK    2  A    between atoms: O_2  and  C_3
REMARK    3  A    between atoms: C_6  and  C_7
REMARK    4  A    between atoms: C_8  and  C_9
REMARK    5  A    between atoms: C_12  and  O_13
REMARK    6  A    between atoms: C_15  and  C_16
REMARK    7  A    between atoms: C_16  and  C_17
REMARK    8  A    between atoms: C_26  and  O_27
REMARK    9  A    between atoms: O_27  and  C_28
REMARK                            x       y       z     vdW  Elec       q    Type
REMARK                         _______ _______ _______ _____ _____    ______ ____
ROOT
ATOM      1  C   UNL     1      -4.673  12.306  19.046  0.00  0.00    +0.000 A 
ATOM      2  C   UNL     1      -5.557  11.887  18.006  0.00  0.00    +0.000 A 
ATOM      3  C   UNL     1      -7.005  12.166  17.824  0.00  0.00    +0.000 C 
ATOM      4  N   UNL     1      -4.934  11.131  17.087  0.00  0.00    +0.000 NA
ATOM      5  N   UNL     1      -3.658  11.029  17.543  0.00  0.00    +0.000 N 
ATOM      6  C   UNL     1      -2.632  10.284  16.959  0.00  0.00    +0.000 A 
ATOM      7  C   UNL     1      -1.416  10.254  17.531  0.00  0.00    +0.000 A 
ATOM      8  C   UNL     1      -1.258  11.089  18.763  0.00  0.00    +0.000 A 
ATOM      9  N   UNL     1      -2.218  11.774  19.318  0.00  0.00    +0.000 NA
ATOM     10  C   UNL     1      -3.450  11.740  18.715  0.00  0.00    +0.000 A 
ENDROOT
BRANCH   1  14
ATOM     11  C   UNL     1      -5.594  14.534  22.577  0.00  0.00    +0.000 A 
ATOM     12  C   UNL     1      -5.430  15.175  21.341  0.00  0.00    +0.000 A 
ATOM     13  C   UNL     1      -5.155  14.449  20.188  0.00  0.00    +0.000 A 
ATOM     14  C   UNL     1      -4.904  13.082  20.255  0.00  0.00    +0.000 A 
ATOM     15  C   UNL     1      -4.929  12.473  21.516  0.00  0.00    +0.000 A 
ATOM     16  C   UNL     1      -5.293  13.169  22.677  0.00  0.00    +0.000 A 
BRANCH  11  18
ATOM     17  C   UNL     1      -5.649  16.611  23.686  0.00  0.00    +0.000 C 
ATOM     18  O   UNL     1      -6.056  15.238  23.656  0.00  0.00    +0.000 OA
ENDBRANCH  11  18
BRANCH  16  19
ATOM     19  O   UNL     1      -5.332  12.336  23.759  0.00  0.00    +0.000 OA
ATOM     20  C   UNL     1      -4.340  12.440  24.760  0.00  0.00    +0.000 C 
ENDBRANCH  16  19
ENDBRANCH   1  14
BRANCH   6  21
ATOM     21  O   UNL     1      -2.894   9.575  15.797  0.00  0.00    +0.000 OA
ATOM     22  H   UNL     1      -2.216   8.874  15.770  0.00  0.00    +0.000 HD
ENDBRANCH   6  21
BRANCH   8  23
ATOM     23  C   UNL     1       0.136  11.186  19.372  0.00  0.00    +0.000 C 
BRANCH  23  24
ATOM     24  C   UNL     1       0.986   9.946  19.223  0.00  0.00    +0.000 A 
ATOM     25  C   UNL     1       1.030   8.992  20.250  0.00  0.00    +0.000 A 
ATOM     26  C   UNL     1       1.726   7.791  20.078  0.00  0.00    +0.000 A 
ATOM     27  C   UNL     1       2.377   7.528  18.876  0.00  0.00    +0.000 A 
ATOM     28  C   UNL     1       2.348   8.473  17.851  0.00  0.00    +0.000 A 
ATOM     29  C   UNL     1       1.663   9.678  18.026  0.00  0.00    +0.000 A 
ENDBRANCH  23  24
ENDBRANCH   8  23
TORSDOF 6
ENDMDL
