MODEL 1
REMARK VINA RESULT:      -8.0      0.000      0.000
REMARK  Name = 
REMARK  3 active torsions:
REMARK  status: ('A' for Active; 'I' for Inactive)
REMARK    1  A    between atoms: C_1  and  C_2
REMARK    2  A    between atoms: C_6  and  N_7
REMARK    3  A    between atoms: C_10  and  C_11
REMARK                            x       y       z     vdW  Elec       q    Type
REMARK                         _______ _______ _______ _____ _____    ______ ____
ROOT
ATOM      1  N   UNL     1       4.021   3.838  18.560  0.00  0.00    +0.000 N 
ATOM      2  C   UNL     1       3.218   4.796  19.087  0.00  0.00    +0.000 A 
ATOM      3  N   UNL     1       2.993   5.988  18.586  0.00  0.00    +0.000 NA
ATOM      4  C   UNL     1       2.238   6.761  19.435  0.00  0.00    +0.000 A 
ATOM      5  C   UNL     1       1.841   6.135  20.594  0.00  0.00    +0.000 A 
ATOM      6  S   UNL     1       2.401   4.510  20.585  0.00  0.00    +0.000 S 
ATOM      7  H   UNL     1       4.103   2.985  19.097  0.00  0.00    +0.000 HD
ENDROOT
BRANCH   4   8
ATOM      8  C   UNL     1       1.958   8.127  19.014  0.00  0.00    +0.000 A 
ATOM      9  C   UNL     1       2.325   8.723  17.797  0.00  0.00    +0.000 A 
ATOM     10  N   UNL     1       1.913   9.989  17.694  0.00  0.00    +0.000 NA
ATOM     11  N   UNL     1       1.253  10.231  18.861  0.00  0.00    +0.000 N 
ATOM     12  C   UNL     1       0.638  11.424  19.250  0.00  0.00    +0.000 A 
ATOM     13  C   UNL     1       0.031  11.513  20.444  0.00  0.00    +0.000 A 
ATOM     14  C   UNL     1       0.025  10.354  21.317  0.00  0.00    +0.000 A 
ATOM     15  C   UNL     1       0.613   9.199  20.955  0.00  0.00    +0.000 A 
ATOM     16  C   UNL     1       1.262   9.104  19.686  0.00  0.00    +0.000 A 
ENDBRANCH   4   8
BRANCH   1  22
ATOM     17  C   UNL     1       6.009   3.990  13.990  0.00  0.00    +0.000 C 
ATOM     18  C   UNL     1       6.147   4.186  15.470  0.00  0.00    +0.000 A 
ATOM     19  C   UNL     1       7.320   4.685  16.037  0.00  0.00    +0.000 A 
ATOM     20  C   UNL     1       7.408   4.853  17.418  0.00  0.00    +0.000 A 
ATOM     21  C   UNL     1       6.321   4.540  18.238  0.00  0.00    +0.000 A 
ATOM     22  C   UNL     1       5.116   4.067  17.696  0.00  0.00    +0.000 A 
ATOM     23  C   UNL     1       5.065   3.873  16.307  0.00  0.00    +0.000 A 
ENDBRANCH   1  22
TORSDOF 2
ENDMDL
MODEL 2
REMARK VINA RESULT:      -8.0      1.151      1.531
REMARK  Name = 
REMARK  3 active torsions:
REMARK  status: ('A' for Active; 'I' for Inactive)
REMARK    1  A    between atoms: C_1  and  C_2
REMARK    2  A    between atoms: C_6  and  N_7
REMARK    3  A    between atoms: C_10  and  C_11
REMARK                            x       y       z     vdW  Elec       q    Type
REMARK                         _______ _______ _______ _____ _____    ______ ____
ROOT
ATOM      1  N   UNL     1       4.823   3.354  17.216  0.00  0.00    +0.000 N 
ATOM      2  C   UNL     1       4.099   4.152  18.041  0.00  0.00    +0.000 A 
ATOM      3  N   UNL     1       3.623   5.342  17.758  0.00  0.00    +0.000 NA
ATOM      4  C   UNL     1       3.052   5.935  18.858  0.00  0.00    +0.000 A 
ATOM      5  C   UNL     1       3.054   5.168  20.000  0.00  0.00    +0.000 A 
ATOM      6  S   UNL     1       3.756   3.637  19.658  0.00  0.00    +0.000 S 
ATOM      7  H   UNL     1       5.137   2.478  17.612  0.00  0.00    +0.000 HD
ENDROOT
BRANCH   4   8
ATOM      8  C   UNL     1       2.527   7.283  18.685  0.00  0.00    +0.000 A 
ATOM      9  C   UNL     1       2.619   8.079  17.533  0.00  0.00    +0.000 A 
ATOM     10  N   UNL     1       2.027   9.268  17.675  0.00  0.00    +0.000 NA
ATOM     11  N   UNL     1       1.525   9.252  18.942  0.00  0.00    +0.000 N 
ATOM     12  C   UNL     1       0.819  10.274  19.580  0.00  0.00    +0.000 A 
ATOM     13  C   UNL     1       0.394  10.114  20.844  0.00  0.00    +0.000 A 
ATOM     14  C   UNL     1       0.679   8.866  21.528  0.00  0.00    +0.000 A 
ATOM     15  C   UNL     1       1.358   7.874  20.924  0.00  0.00    +0.000 A 
ATOM     16  C   UNL     1       1.813   8.045  19.581  0.00  0.00    +0.000 A 
ENDBRANCH   4   8
BRANCH   1  22
ATOM     17  C   UNL     1       5.826   3.496  12.335  0.00  0.00    +0.000 C 
ATOM     18  C   UNL     1       6.142   3.928  13.735  0.00  0.00    +0.000 A 
ATOM     19  C   UNL     1       7.157   4.845  14.008  0.00  0.00    +0.000 A 
ATOM     20  C   UNL     1       7.420   5.222  15.325  0.00  0.00    +0.000 A 
ATOM     21  C   UNL     1       6.659   4.696  16.373  0.00  0.00    +0.000 A 
ATOM     22  C   UNL     1       5.610   3.797  16.129  0.00  0.00    +0.000 A 
ATOM     23  C   UNL     1       5.390   3.408  14.800  0.00  0.00    +0.000 A 
ENDBRANCH   1  22
TORSDOF 2
ENDMDL
MODEL 3
REMARK VINA RESULT:      -7.9      3.264      4.772
REMARK  Name = 
REMARK  3 active torsions:
REMARK  status: ('A' for Active; 'I' for Inactive)
REMARK    1  A    between atoms: C_1  and  C_2
REMARK    2  A    between atoms: C_6  and  N_7
REMARK    3  A    between atoms: C_10  and  C_11
REMARK                            x       y       z     vdW  Elec       q    Type
REMARK                         _______ _______ _______ _____ _____    ______ ____
ROOT
ATOM      1  N   UNL     1       2.686   6.388  18.314  0.00  0.00    +0.000 N 
ATOM      2  C   UNL     1       2.250   7.603  18.732  0.00  0.00    +0.000 A 
ATOM      3  N   UNL     1       1.728   7.886  19.901  0.00  0.00    +0.000 NA
ATOM      4  C   UNL     1       1.268   9.180  19.952  0.00  0.00    +0.000 A 
ATOM      5  C   UNL     1       1.481   9.919  18.811  0.00  0.00    +0.000 A 
ATOM      6  S   UNL     1       2.325   8.961  17.661  0.00  0.00    +0.000 S 
ATOM      7  H   UNL     1       3.034   6.344  17.366  0.00  0.00    +0.000 HD
ENDROOT
BRANCH   4   8
ATOM      8  C   UNL     1       0.621   9.604  21.186  0.00  0.00    +0.000 A 
ATOM      9  C   UNL     1       0.888   9.131  22.480  0.00  0.00    +0.000 A 
ATOM     10  N   UNL     1       0.138   9.723  23.414  0.00  0.00    +0.000 NA
ATOM     11  N   UNL     1      -0.631  10.611  22.725  0.00  0.00    +0.000 N 
ATOM     12  C   UNL     1      -1.595  11.476  23.249  0.00  0.00    +0.000 A 
ATOM     13  C   UNL     1      -2.285  12.292  22.436  0.00  0.00    +0.000 A 
ATOM     14  C   UNL     1      -2.009  12.260  21.011  0.00  0.00    +0.000 A 
ATOM     15  C   UNL     1      -1.083  11.433  20.493  0.00  0.00    +0.000 A 
ATOM     16  C   UNL     1      -0.351  10.562  21.357  0.00  0.00    +0.000 A 
ENDBRANCH   4   8
BRANCH   1  22
ATOM     17  C   UNL     1       2.124   3.128  22.045  0.00  0.00    +0.000 C 
ATOM     18  C   UNL     1       1.909   3.504  20.609  0.00  0.00    +0.000 A 
ATOM     19  C   UNL     1       1.188   2.687  19.737  0.00  0.00    +0.000 A 
ATOM     20  C   UNL     1       1.011   3.072  18.409  0.00  0.00    +0.000 A 
ATOM     21  C   UNL     1       1.538   4.282  17.950  0.00  0.00    +0.000 A 
ATOM     22  C   UNL     1       2.240   5.142  18.809  0.00  0.00    +0.000 A 
ATOM     23  C   UNL     1       2.435   4.714  20.131  0.00  0.00    +0.000 A 
ENDBRANCH   1  22
TORSDOF 2
ENDMDL
MODEL 4
REMARK VINA RESULT:      -7.8      1.966      7.058
REMARK  Name = 
REMARK  3 active torsions:
REMARK  status: ('A' for Active; 'I' for Inactive)
REMARK    1  A    between atoms: C_1  and  C_2
REMARK    2  A    between atoms: C_6  and  N_7
REMARK    3  A    between atoms: C_10  and  C_11
REMARK                            x       y       z     vdW  Elec       q    Type
REMARK                         _______ _______ _______ _____ _____    ______ ____
ROOT
ATOM      1  N   UNL     1       2.040   5.656  20.979  0.00  0.00    +0.000 N 
ATOM      2  C   UNL     1       2.947   4.869  20.348  0.00  0.00    +0.000 A 
ATOM      3  N   UNL     1       3.963   5.274  19.623  0.00  0.00    +0.000 NA
ATOM      4  C   UNL     1       4.606   4.222  19.017  0.00  0.00    +0.000 A 
ATOM      5  C   UNL     1       4.097   2.979  19.317  0.00  0.00    +0.000 A 
ATOM      6  S   UNL     1       2.800   3.146  20.431  0.00  0.00    +0.000 S 
ATOM      7  H   UNL     1       1.300   5.173  21.470  0.00  0.00    +0.000 HD
ENDROOT
BRANCH   4   8
ATOM      8  C   UNL     1       5.726   4.545  18.143  0.00  0.00    +0.000 A 
ATOM      9  C   UNL     1       7.000   4.981  18.538  0.00  0.00    +0.000 A 
ATOM     10  N   UNL     1       7.821   5.185  17.505  0.00  0.00    +0.000 NA
ATOM     11  N   UNL     1       7.078   4.868  16.407  0.00  0.00    +0.000 N 
ATOM     12  C   UNL     1       7.483   4.924  15.071  0.00  0.00    +0.000 A 
ATOM     13  C   UNL     1       6.627   4.588  14.092  0.00  0.00    +0.000 A 
ATOM     14  C   UNL     1       5.284   4.166  14.447  0.00  0.00    +0.000 A 
ATOM     15  C   UNL     1       4.883   4.108  15.730  0.00  0.00    +0.000 A 
ATOM     16  C   UNL     1       5.791   4.468  16.771  0.00  0.00    +0.000 A 
ENDBRANCH   4   8
BRANCH   1  22
ATOM     17  C   UNL     1       2.010   9.379  17.662  0.00  0.00    +0.000 C 
ATOM     18  C   UNL     1       1.629   8.841  19.009  0.00  0.00    +0.000 A 
ATOM     19  C   UNL     1       0.854   9.580  19.901  0.00  0.00    +0.000 A 
ATOM     20  C   UNL     1       0.522   9.044  21.145  0.00  0.00    +0.000 A 
ATOM     21  C   UNL     1       0.947   7.760  21.495  0.00  0.00    +0.000 A 
ATOM     22  C   UNL     1       1.699   6.977  20.606  0.00  0.00    +0.000 A 
ATOM     23  C   UNL     1       2.051   7.553  19.377  0.00  0.00    +0.000 A 
ENDBRANCH   1  22
TORSDOF 2
ENDMDL
MODEL 5
REMARK VINA RESULT:      -7.8      3.460      4.757
REMARK  Name = 
REMARK  3 active torsions:
REMARK  status: ('A' for Active; 'I' for Inactive)
REMARK    1  A    between atoms: C_1  and  C_2
REMARK    2  A    between atoms: C_6  and  N_7
REMARK    3  A    between atoms: C_10  and  C_11
REMARK                            x       y       z     vdW  Elec       q    Type
REMARK                         _______ _______ _______ _____ _____    ______ ____
ROOT
ATOM      1  N   UNL     1       2.612   6.444  18.894  0.00  0.00    +0.000 N 
ATOM      2  C   UNL     1       2.113   7.678  19.157  0.00  0.00    +0.000 A 
ATOM      3  N   UNL     1       1.538   8.066  20.271  0.00  0.00    +0.000 NA
ATOM      4  C   UNL     1       1.024   9.336  20.161  0.00  0.00    +0.000 A 
ATOM      5  C   UNL     1       1.246   9.950  18.950  0.00  0.00    +0.000 A 
ATOM      6  S   UNL     1       2.169   8.909  17.942  0.00  0.00    +0.000 S 
ATOM      7  H   UNL     1       2.994   6.310  17.968  0.00  0.00    +0.000 HD
ENDROOT
BRANCH   4   8
ATOM      8  C   UNL     1       0.318   9.867  21.319  0.00  0.00    +0.000 A 
ATOM      9  C   UNL     1       0.507   9.499  22.660  0.00  0.00    +0.000 A 
ATOM     10  N   UNL     1      -0.283  10.173  23.499  0.00  0.00    +0.000 NA
ATOM     11  N   UNL     1      -1.001  11.009  22.699  0.00  0.00    +0.000 N 
ATOM     12  C   UNL     1      -1.979  11.924  23.097  0.00  0.00    +0.000 A 
ATOM     13  C   UNL     1      -2.612  12.677  22.183  0.00  0.00    +0.000 A 
ATOM     14  C   UNL     1      -2.260  12.526  20.783  0.00  0.00    +0.000 A 
ATOM     15  C   UNL     1      -1.319  11.649  20.386  0.00  0.00    +0.000 A 
ATOM     16  C   UNL     1      -0.649  10.845  21.357  0.00  0.00    +0.000 A 
ENDBRANCH   4   8
BRANCH   1  22
ATOM     17  C   UNL     1       0.550   1.910  18.673  0.00  0.00    +0.000 C 
ATOM     18  C   UNL     1       1.219   2.992  19.467  0.00  0.00    +0.000 A 
ATOM     19  C   UNL     1       1.539   2.821  20.814  0.00  0.00    +0.000 A 
ATOM     20  C   UNL     1       2.160   3.852  21.518  0.00  0.00    +0.000 A 
ATOM     21  C   UNL     1       2.479   5.051  20.876  0.00  0.00    +0.000 A 
ATOM     22  C   UNL     1       2.200   5.242  19.514  0.00  0.00    +0.000 A 
ATOM     23  C   UNL     1       1.543   4.204  18.838  0.00  0.00    +0.000 A 
ENDBRANCH   1  22
TORSDOF 2
ENDMDL
MODEL 6
REMARK VINA RESULT:      -7.8      3.986      5.899
REMARK  Name = 
REMARK  3 active torsions:
REMARK  status: ('A' for Active; 'I' for Inactive)
REMARK    1  A    between atoms: C_1  and  C_2
REMARK    2  A    between atoms: C_6  and  N_7
REMARK    3  A    between atoms: C_10  and  C_11
REMARK                            x       y       z     vdW  Elec       q    Type
REMARK                         _______ _______ _______ _____ _____    ______ ____
ROOT
ATOM      1  N   UNL     1       6.793   4.330  14.209  0.00  0.00    +0.000 N 
ATOM      2  C   UNL     1       6.313   4.446  15.472  0.00  0.00    +0.000 A 
ATOM      3  N   UNL     1       5.417   3.674  16.042  0.00  0.00    +0.000 NA
ATOM      4  C   UNL     1       5.054   4.146  17.280  0.00  0.00    +0.000 A 
ATOM      5  C   UNL     1       5.716   5.282  17.687  0.00  0.00    +0.000 A 
ATOM      6  S   UNL     1       6.860   5.736  16.488  0.00  0.00    +0.000 S 
ATOM      7  H   UNL     1       7.460   5.034  13.922  0.00  0.00    +0.000 HD
ENDROOT
BRANCH   4   8
ATOM      8  C   UNL     1       4.029   3.401  17.998  0.00  0.00    +0.000 A 
ATOM      9  C   UNL     1       3.785   2.021  17.921  0.00  0.00    +0.000 A 
ATOM     10  N   UNL     1       2.781   1.627  18.710  0.00  0.00    +0.000 NA
ATOM     11  N   UNL     1       2.361   2.767  19.327  0.00  0.00    +0.000 N 
ATOM     12  C   UNL     1       1.320   2.891  20.250  0.00  0.00    +0.000 A 
ATOM     13  C   UNL     1       1.016   4.092  20.767  0.00  0.00    +0.000 A 
ATOM     14  C   UNL     1       1.785   5.251  20.352  0.00  0.00    +0.000 A 
ATOM     15  C   UNL     1       2.790   5.145  19.464  0.00  0.00    +0.000 A 
ATOM     16  C   UNL     1       3.113   3.868  18.911  0.00  0.00    +0.000 A 
ENDBRANCH   4   8
BRANCH   1  22
ATOM     17  C   UNL     1       6.353   0.665  10.857  0.00  0.00    +0.000 C 
ATOM     18  C   UNL     1       5.831   1.930  11.469  0.00  0.00    +0.000 A 
ATOM     19  C   UNL     1       4.624   2.499  11.061  0.00  0.00    +0.000 A 
ATOM     20  C   UNL     1       4.173   3.677  11.655  0.00  0.00    +0.000 A 
ATOM     21  C   UNL     1       4.917   4.283  12.671  0.00  0.00    +0.000 A 
ATOM     22  C   UNL     1       6.118   3.719  13.127  0.00  0.00    +0.000 A 
ATOM     23  C   UNL     1       6.567   2.553  12.488  0.00  0.00    +0.000 A 
ENDBRANCH   1  22
TORSDOF 2
ENDMDL
MODEL 7
REMARK VINA RESULT:      -7.7      1.828      7.271
REMARK  Name = 
REMARK  3 active torsions:
REMARK  status: ('A' for Active; 'I' for Inactive)
REMARK    1  A    between atoms: C_1  and  C_2
REMARK    2  A    between atoms: C_6  and  N_7
REMARK    3  A    between atoms: C_10  and  C_11
REMARK                            x       y       z     vdW  Elec       q    Type
REMARK                         _______ _______ _______ _____ _____    ______ ____
ROOT
ATOM      1  N   UNL     1       2.096   5.904  20.786  0.00  0.00    +0.000 N 
ATOM      2  C   UNL     1       3.003   5.048  20.252  0.00  0.00    +0.000 A 
ATOM      3  N   UNL     1       4.024   5.366  19.492  0.00  0.00    +0.000 NA
ATOM      4  C   UNL     1       4.665   4.250  19.010  0.00  0.00    +0.000 A 
ATOM      5  C   UNL     1       4.150   3.050  19.444  0.00  0.00    +0.000 A 
ATOM      6  S   UNL     1       2.849   3.346  20.527  0.00  0.00    +0.000 S 
ATOM      7  H   UNL     1       1.352   5.481  21.325  0.00  0.00    +0.000 HD
ENDROOT
BRANCH   4   8
ATOM      8  C   UNL     1       5.791   4.469  18.112  0.00  0.00    +0.000 A 
ATOM      9  C   UNL     1       7.119   4.732  18.478  0.00  0.00    +0.000 A 
ATOM     10  N   UNL     1       7.929   4.876  17.426  0.00  0.00    +0.000 NA
ATOM     11  N   UNL     1       7.122   4.694  16.344  0.00  0.00    +0.000 N 
ATOM     12  C   UNL     1       7.491   4.752  14.998  0.00  0.00    +0.000 A 
ATOM     13  C   UNL     1       6.574   4.560  14.037  0.00  0.00    +0.000 A 
ATOM     14  C   UNL     1       5.200   4.289  14.421  0.00  0.00    +0.000 A 
ATOM     15  C   UNL     1       4.832   4.230  15.713  0.00  0.00    +0.000 A 
ATOM     16  C   UNL     1       5.806   4.438  16.736  0.00  0.00    +0.000 A 
ENDBRANCH   4   8
BRANCH   1  22
ATOM     17  C   UNL     1       0.213  10.486  21.352  0.00  0.00    +0.000 C 
ATOM     18  C   UNL     1       0.873   9.454  20.486  0.00  0.00    +0.000 A 
ATOM     19  C   UNL     1       1.263   9.736  19.178  0.00  0.00    +0.000 A 
ATOM     20  C   UNL     1       1.875   8.749  18.406  0.00  0.00    +0.000 A 
ATOM     21  C   UNL     1       2.114   7.481  18.943  0.00  0.00    +0.000 A 
ATOM     22  C   UNL     1       1.764   7.176  20.267  0.00  0.00    +0.000 A 
ATOM     23  C   UNL     1       1.118   8.175  21.010  0.00  0.00    +0.000 A 
ENDBRANCH   1  22
TORSDOF 2
ENDMDL
MODEL 8
REMARK VINA RESULT:      -7.7      4.601      5.397
REMARK  Name = 
REMARK  3 active torsions:
REMARK  status: ('A' for Active; 'I' for Inactive)
REMARK    1  A    between atoms: C_1  and  C_2
REMARK    2  A    between atoms: C_6  and  N_7
REMARK    3  A    between atoms: C_10  and  C_11
REMARK                            x       y       z     vdW  Elec       q    Type
REMARK                         _______ _______ _______ _____ _____    ______ ____
ROOT
ATOM      1  N   UNL     1       7.741   4.808  15.770  0.00  0.00    +0.000 N 
ATOM      2  C   UNL     1       6.861   4.818  16.803  0.00  0.00    +0.000 A 
ATOM      3  N   UNL     1       5.668   4.272  16.818  0.00  0.00    +0.000 NA
ATOM      4  C   UNL     1       4.983   4.580  17.969  0.00  0.00    +0.000 A 
ATOM      5  C   UNL     1       5.682   5.344  18.875  0.00  0.00    +0.000 A 
ATOM      6  S   UNL     1       7.263   5.641  18.271  0.00  0.00    +0.000 S 
ATOM      7  H   UNL     1       8.607   5.307  15.922  0.00  0.00    +0.000 HD
ENDROOT
BRANCH   4   8
ATOM      8  C   UNL     1       3.623   4.071  18.086  0.00  0.00    +0.000 A 
ATOM      9  C   UNL     1       2.736   3.796  17.035  0.00  0.00    +0.000 A 
ATOM     10  N   UNL     1       1.560   3.325  17.458  0.00  0.00    +0.000 NA
ATOM     11  N   UNL     1       1.677   3.278  18.815  0.00  0.00    +0.000 N 
ATOM     12  C   UNL     1       0.708   2.861  19.730  0.00  0.00    +0.000 A 
ATOM     13  C   UNL     1       0.969   2.880  21.047  0.00  0.00    +0.000 A 
ATOM     14  C   UNL     1       2.271   3.339  21.497  0.00  0.00    +0.000 A 
ATOM     15  C   UNL     1       3.213   3.743  20.626  0.00  0.00    +0.000 A 
ATOM     16  C   UNL     1       2.934   3.725  19.226  0.00  0.00    +0.000 A 
ENDBRANCH   4   8
BRANCH   1  22
ATOM     17  C   UNL     1       4.883   2.891  12.162  0.00  0.00    +0.000 C 
ATOM     18  C   UNL     1       6.016   3.779  12.583  0.00  0.00    +0.000 A 
ATOM     19  C   UNL     1       6.713   4.563  11.665  0.00  0.00    +0.000 A 
ATOM     20  C   UNL     1       7.761   5.375  12.097  0.00  0.00    +0.000 A 
ATOM     21  C   UNL     1       8.105   5.420  13.451  0.00  0.00    +0.000 A 
ATOM     22  C   UNL     1       7.402   4.669  14.405  0.00  0.00    +0.000 A 
ATOM     23  C   UNL     1       6.376   3.833  13.939  0.00  0.00    +0.000 A 
ENDBRANCH   1  22
TORSDOF 2
ENDMDL
MODEL 9
REMARK VINA RESULT:      -7.6      2.997      4.547
REMARK  Name = 
REMARK  3 active torsions:
REMARK  status: ('A' for Active; 'I' for Inactive)
REMARK    1  A    between atoms: C_1  and  C_2
REMARK    2  A    between atoms: C_6  and  N_7
REMARK    3  A    between atoms: C_10  and  C_11
REMARK                            x       y       z     vdW  Elec       q    Type
REMARK                         _______ _______ _______ _____ _____    ______ ____
ROOT
ATOM      1  N   UNL     1       2.903   6.288  18.728  0.00  0.00    +0.000 N 
ATOM      2  C   UNL     1       2.320   7.482  19.006  0.00  0.00    +0.000 A 
ATOM      3  N   UNL     1       1.827   7.860  20.161  0.00  0.00    +0.000 NA
ATOM      4  C   UNL     1       1.190   9.074  20.068  0.00  0.00    +0.000 A 
ATOM      5  C   UNL     1       1.231   9.659  18.824  0.00  0.00    +0.000 A 
ATOM      6  S   UNL     1       2.140   8.665  17.756  0.00  0.00    +0.000 S 
ATOM      7  H   UNL     1       3.200   6.153  17.772  0.00  0.00    +0.000 HD
ENDROOT
BRANCH   4   8
ATOM      8  C   UNL     1       0.557   9.584  21.277  0.00  0.00    +0.000 A 
ATOM      9  C   UNL     1       0.833   9.196  22.597  0.00  0.00    +0.000 A 
ATOM     10  N   UNL     1       0.096   9.854  23.496  0.00  0.00    +0.000 NA
ATOM     11  N   UNL     1      -0.675  10.699  22.756  0.00  0.00    +0.000 N 
ATOM     12  C   UNL     1      -1.629  11.603  23.231  0.00  0.00    +0.000 A 
ATOM     13  C   UNL     1      -2.321  12.368  22.371  0.00  0.00    +0.000 A 
ATOM     14  C   UNL     1      -2.059  12.239  20.949  0.00  0.00    +0.000 A 
ATOM     15  C   UNL     1      -1.143  11.373  20.479  0.00  0.00    +0.000 A 
ATOM     16  C   UNL     1      -0.408  10.557  21.393  0.00  0.00    +0.000 A 
ENDBRANCH   4   8
BRANCH   1  22
ATOM     17  C   UNL     1       4.480   1.903  20.501  0.00  0.00    +0.000 C 
ATOM     18  C   UNL     1       3.389   2.920  20.343  0.00  0.00    +0.000 A 
ATOM     19  C   UNL     1       2.141   2.756  20.944  0.00  0.00    +0.000 A 
ATOM     20  C   UNL     1       1.153   3.724  20.772  0.00  0.00    +0.000 A 
ATOM     21  C   UNL     1       1.412   4.869  20.013  0.00  0.00    +0.000 A 
ATOM     22  C   UNL     1       2.668   5.079  19.422  0.00  0.00    +0.000 A 
ATOM     23  C   UNL     1       3.632   4.073  19.580  0.00  0.00    +0.000 A 
ENDBRANCH   1  22
TORSDOF 2
ENDMDL
