MODEL 1
REMARK VINA RESULT:      -7.3      0.000      0.000
REMARK  Name = 
REMARK  8 active torsions:
REMARK  status: ('A' for Active; 'I' for Inactive)
REMARK    1  A    between atoms: C_1  and  O_2
REMARK    2  A    between atoms: O_2  and  C_3
REMARK    3  A    between atoms: N_5  and  N_6
REMARK    4  A    between atoms: N_5  and  C_28
REMARK    5  A    between atoms: C_7  and  C_9
REMARK    6  A    between atoms: C_10  and  O_11
REMARK    7  A    between atoms: O_11  and  C_12
REMARK    8  A    between atoms: C_13  and  C_14
REMARK                            x       y       z     vdW  Elec       q    Type
REMARK                         _______ _______ _______ _____ _____    ______ ____
ROOT
ATOM      1  C   UNL     1      -2.274  11.324  18.987  0.00  0.00    +0.000 A 
ATOM      2  C   UNL     1      -3.146  12.062  19.835  0.00  0.00    +0.000 A 
ATOM      3  C   UNL     1      -4.405  12.422  19.327  0.00  0.00    +0.000 A 
ATOM      4  N   UNL     1      -4.744  12.118  18.040  0.00  0.00    +0.000 NA
ATOM      5  C   UNL     1      -3.937  11.406  17.249  0.00  0.00    +0.000 A 
ATOM      6  C   UNL     1      -4.367  11.141  15.960  0.00  0.00    +0.000 A 
ATOM      7  C   UNL     1      -3.626  10.366  15.088  0.00  0.00    +0.000 A 
ATOM      8  F   UNL     1      -4.070  10.151  13.845  0.00  0.00    +0.000 F 
ATOM      9  C   UNL     1      -2.440   9.798  15.492  0.00  0.00    +0.000 A 
ATOM     10  C   UNL     1      -1.996  10.032  16.793  0.00  0.00    +0.000 A 
ATOM     11  C   UNL     1      -2.691  10.900  17.689  0.00  0.00    +0.000 A 
ENDROOT
BRANCH   3  12
ATOM     12  C   UNL     1      -5.498  13.126  20.047  0.00  0.00    +0.000 A 
ATOM     13  C   UNL     1      -5.855  12.823  21.368  0.00  0.00    +0.000 A 
ATOM     14  C   UNL     1      -7.091  13.218  21.893  0.00  0.00    +0.000 A 
ATOM     15  C   UNL     1      -7.916  14.068  21.167  0.00  0.00    +0.000 A 
ATOM     16  C   UNL     1      -7.480  14.563  19.943  0.00  0.00    +0.000 A 
ATOM     17  C   UNL     1      -6.287  14.088  19.387  0.00  0.00    +0.000 A 
ENDBRANCH   3  12
BRANCH   1  19
ATOM     18  N   UNL     1      -0.669   9.854  20.215  0.00  0.00    +0.000 N 
ATOM     19  C   UNL     1      -0.876  11.042  19.513  0.00  0.00    +0.000 C 
ATOM     20  O   UNL     1       0.042  11.831  19.298  0.00  0.00    +0.000 OA
ATOM     21  H   UNL     1      -1.374   9.128  20.263  0.00  0.00    +0.000 HD
BRANCH  18  24
ATOM     22  C   UNL     1       1.162   9.961  21.862  0.00  0.00    +0.000 C 
ATOM     23  O   UNL     1       2.358   9.998  22.151  0.00  0.00    +0.000 OA
ATOM     24  N   UNL     1       0.638   9.463  20.643  0.00  0.00    +0.000 N 
BRANCH  24  25
ATOM     25  C   UNL     1       1.415   8.632  19.765  0.00  0.00    +0.000 A 
ATOM     26  C   UNL     1       1.844   7.356  20.167  0.00  0.00    +0.000 A 
ATOM     27  C   UNL     1       2.648   6.561  19.346  0.00  0.00    +0.000 A 
ATOM     28  C   UNL     1       3.018   7.018  18.086  0.00  0.00    +0.000 A 
ATOM     29  C   UNL     1       2.555   8.251  17.641  0.00  0.00    +0.000 A 
ATOM     30  C   UNL     1       1.754   9.049  18.469  0.00  0.00    +0.000 A 
ENDBRANCH  24  25
BRANCH  22  32
ATOM     31  C   UNL     1      -0.124   9.405  23.719  0.00  0.00    +0.000 C 
ATOM     32  O   UNL     1       0.202  10.392  22.740  0.00  0.00    +0.000 OA
ENDBRANCH  22  32
ENDBRANCH  18  24
ENDBRANCH   1  19
BRANCH   2  33
ATOM     33  O   UNL     1      -2.627  12.439  21.046  0.00  0.00    +0.000 OA
ATOM     34  C   UNL     1      -2.175  13.749  21.362  0.00  0.00    +0.000 C 
ENDBRANCH   2  33
TORSDOF 6
ENDMDL
MODEL 2
REMARK VINA RESULT:      -7.0      0.799      1.289
REMARK  Name = 
REMARK  8 active torsions:
REMARK  status: ('A' for Active; 'I' for Inactive)
REMARK    1  A    between atoms: C_1  and  O_2
REMARK    2  A    between atoms: O_2  and  C_3
REMARK    3  A    between atoms: N_5  and  N_6
REMARK    4  A    between atoms: N_5  and  C_28
REMARK    5  A    between atoms: C_7  and  C_9
REMARK    6  A    between atoms: C_10  and  O_11
REMARK    7  A    between atoms: O_11  and  C_12
REMARK    8  A    between atoms: C_13  and  C_14
REMARK                            x       y       z     vdW  Elec       q    Type
REMARK                         _______ _______ _______ _____ _____    ______ ____
ROOT
ATOM      1  C   UNL     1      -2.571  11.380  19.005  0.00  0.00    +0.000 A 
ATOM      2  C   UNL     1      -3.483  12.186  19.743  0.00  0.00    +0.000 A 
ATOM      3  C   UNL     1      -4.677  12.571  19.111  0.00  0.00    +0.000 A 
ATOM      4  N   UNL     1      -4.914  12.226  17.812  0.00  0.00    +0.000 NA
ATOM      5  C   UNL     1      -4.072  11.452  17.124  0.00  0.00    +0.000 A 
ATOM      6  C   UNL     1      -4.397  11.150  15.813  0.00  0.00    +0.000 A 
ATOM      7  C   UNL     1      -3.616  10.311  15.041  0.00  0.00    +0.000 A 
ATOM      8  F   UNL     1      -3.959  10.061  13.772  0.00  0.00    +0.000 F 
ATOM      9  C   UNL     1      -2.494   9.716  15.570  0.00  0.00    +0.000 A 
ATOM     10  C   UNL     1      -2.156   9.988  16.895  0.00  0.00    +0.000 A 
ATOM     11  C   UNL     1      -2.891  10.918  17.692  0.00  0.00    +0.000 A 
ENDROOT
BRANCH   3  12
ATOM     12  C   UNL     1      -5.798  13.345  19.704  0.00  0.00    +0.000 A 
ATOM     13  C   UNL     1      -5.727  14.725  19.940  0.00  0.00    +0.000 A 
ATOM     14  C   UNL     1      -6.618  15.357  20.815  0.00  0.00    +0.000 A 
ATOM     15  C   UNL     1      -7.699  14.655  21.335  0.00  0.00    +0.000 A 
ATOM     16  C   UNL     1      -7.916  13.342  20.935  0.00  0.00    +0.000 A 
ATOM     17  C   UNL     1      -6.970  12.693  20.135  0.00  0.00    +0.000 A 
ENDBRANCH   3  12
BRANCH   1  19
ATOM     18  N   UNL     1      -1.050   9.788  20.184  0.00  0.00    +0.000 N 
ATOM     19  C   UNL     1      -1.237  11.068  19.663  0.00  0.00    +0.000 C 
ATOM     20  O   UNL     1      -0.350  11.918  19.707  0.00  0.00    +0.000 OA
ATOM     21  H   UNL     1      -1.708   9.037  20.016  0.00  0.00    +0.000 HD
BRANCH  18  24
ATOM     22  C   UNL     1       0.528   9.645  22.073  0.00  0.00    +0.000 C 
ATOM     23  O   UNL     1       1.667   9.679  22.538  0.00  0.00    +0.000 OA
ATOM     24  N   UNL     1       0.214   9.381  20.717  0.00  0.00    +0.000 N 
BRANCH  24  25
ATOM     25  C   UNL     1       1.165   8.786  19.818  0.00  0.00    +0.000 A 
ATOM     26  C   UNL     1       1.496   9.406  18.601  0.00  0.00    +0.000 A 
ATOM     27  C   UNL     1       2.375   8.812  17.692  0.00  0.00    +0.000 A 
ATOM     28  C   UNL     1       2.966   7.591  17.996  0.00  0.00    +0.000 A 
ATOM     29  C   UNL     1       2.702   6.988  19.221  0.00  0.00    +0.000 A 
ATOM     30  C   UNL     1       1.816   7.583  20.129  0.00  0.00    +0.000 A 
ENDBRANCH  24  25
BRANCH  22  32
ATOM     31  C   UNL     1      -0.819  11.221  23.129  0.00  0.00    +0.000 C 
ATOM     32  O   UNL     1      -0.573   9.839  22.866  0.00  0.00    +0.000 OA
ENDBRANCH  22  32
ENDBRANCH  18  24
ENDBRANCH   1  19
BRANCH   2  33
ATOM     33  O   UNL     1      -3.057  12.593  20.980  0.00  0.00    +0.000 OA
ATOM     34  C   UNL     1      -3.860  12.599  22.153  0.00  0.00    +0.000 C 
ENDBRANCH   2  33
TORSDOF 6
ENDMDL
MODEL 3
REMARK VINA RESULT:      -6.8      1.084      1.479
REMARK  Name = 
REMARK  8 active torsions:
REMARK  status: ('A' for Active; 'I' for Inactive)
REMARK    1  A    between atoms: C_1  and  O_2
REMARK    2  A    between atoms: O_2  and  C_3
REMARK    3  A    between atoms: N_5  and  N_6
REMARK    4  A    between atoms: N_5  and  C_28
REMARK    5  A    between atoms: C_7  and  C_9
REMARK    6  A    between atoms: C_10  and  O_11
REMARK    7  A    between atoms: O_11  and  C_12
REMARK    8  A    between atoms: C_13  and  C_14
REMARK                            x       y       z     vdW  Elec       q    Type
REMARK                         _______ _______ _______ _____ _____    ______ ____
ROOT
ATOM      1  C   UNL     1      -2.642  11.471  18.400  0.00  0.00    +0.000 A 
ATOM      2  C   UNL     1      -3.598  12.072  19.266  0.00  0.00    +0.000 A 
ATOM      3  C   UNL     1      -4.913  12.214  18.793  0.00  0.00    +0.000 A 
ATOM      4  N   UNL     1      -5.235  11.838  17.521  0.00  0.00    +0.000 NA
ATOM      5  C   UNL     1      -4.347  11.253  16.714  0.00  0.00    +0.000 A 
ATOM      6  C   UNL     1      -4.765  10.900  15.442  0.00  0.00    +0.000 A 
ATOM      7  C   UNL     1      -3.934  10.241  14.556  0.00  0.00    +0.000 A 
ATOM      8  F   UNL     1      -4.374   9.936  13.331  0.00  0.00    +0.000 F 
ATOM      9  C   UNL     1      -2.660   9.879  14.930  0.00  0.00    +0.000 A 
ATOM     10  C   UNL     1      -2.222  10.205  16.213  0.00  0.00    +0.000 A 
ATOM     11  C   UNL     1      -3.023  10.963  17.120  0.00  0.00    +0.000 A 
ENDROOT
BRANCH   3  12
ATOM     12  C   UNL     1      -6.084  12.743  19.539  0.00  0.00    +0.000 A 
ATOM     13  C   UNL     1      -6.619  14.018  19.307  0.00  0.00    +0.000 A 
ATOM     14  C   UNL     1      -7.458  14.633  20.244  0.00  0.00    +0.000 A 
ATOM     15  C   UNL     1      -7.915  13.917  21.344  0.00  0.00    +0.000 A 
ATOM     16  C   UNL     1      -7.576  12.576  21.475  0.00  0.00    +0.000 A 
ATOM     17  C   UNL     1      -6.663  12.000  20.585  0.00  0.00    +0.000 A 
ENDBRANCH   3  12
BRANCH   1  19
ATOM     18  N   UNL     1      -0.897  10.584  19.952  0.00  0.00    +0.000 N 
ATOM     19  C   UNL     1      -1.203  11.428  18.884  0.00  0.00    +0.000 C 
ATOM     20  O   UNL     1      -0.337  12.102  18.327  0.00  0.00    +0.000 OA
ATOM     21  H   UNL     1      -1.563   9.912  20.314  0.00  0.00    +0.000 HD
BRANCH  18  24
ATOM     22  C   UNL     1       1.086  11.410  21.160  0.00  0.00    +0.000 C 
ATOM     23  O   UNL     1       2.304  11.538  21.283  0.00  0.00    +0.000 OA
ATOM     24  N   UNL     1       0.451  10.402  20.393  0.00  0.00    +0.000 N 
BRANCH  24  25
ATOM     25  C   UNL     1       1.149   9.222  19.960  0.00  0.00    +0.000 A 
ATOM     26  C   UNL     1       1.317   8.125  20.822  0.00  0.00    +0.000 A 
ATOM     27  C   UNL     1       2.042   6.995  20.435  0.00  0.00    +0.000 A 
ATOM     28  C   UNL     1       2.592   6.927  19.160  0.00  0.00    +0.000 A 
ATOM     29  C   UNL     1       2.387   7.974  18.268  0.00  0.00    +0.000 A 
ATOM     30  C   UNL     1       1.665   9.109  18.661  0.00  0.00    +0.000 A 
ENDBRANCH  24  25
BRANCH  22  32
ATOM     31  C   UNL     1       0.583  13.620  21.684  0.00  0.00    +0.000 C 
ATOM     32  O   UNL     1       0.212  12.247  21.804  0.00  0.00    +0.000 OA
ENDBRANCH  22  32
ENDBRANCH  18  24
ENDBRANCH   1  19
BRANCH   2  33
ATOM     33  O   UNL     1      -3.112  12.548  20.455  0.00  0.00    +0.000 OA
ATOM     34  C   UNL     1      -2.903  13.923  20.753  0.00  0.00    +0.000 C 
ENDBRANCH   2  33
TORSDOF 6
ENDMDL
MODEL 4
REMARK VINA RESULT:      -6.6      2.016      7.211
REMARK  Name = 
REMARK  8 active torsions:
REMARK  status: ('A' for Active; 'I' for Inactive)
REMARK    1  A    between atoms: C_1  and  O_2
REMARK    2  A    between atoms: O_2  and  C_3
REMARK    3  A    between atoms: N_5  and  N_6
REMARK    4  A    between atoms: N_5  and  C_28
REMARK    5  A    between atoms: C_7  and  C_9
REMARK    6  A    between atoms: C_10  and  O_11
REMARK    7  A    between atoms: O_11  and  C_12
REMARK    8  A    between atoms: C_13  and  C_14
REMARK                            x       y       z     vdW  Elec       q    Type
REMARK                         _______ _______ _______ _____ _____    ______ ____
ROOT
ATOM      1  C   UNL     1      -1.141  11.430  19.161  0.00  0.00    +0.000 A 
ATOM      2  C   UNL     1       0.033  10.679  19.442  0.00  0.00    +0.000 A 
ATOM      3  C   UNL     1       0.338   9.598  18.598  0.00  0.00    +0.000 A 
ATOM      4  N   UNL     1      -0.506   9.256  17.581  0.00  0.00    +0.000 NA
ATOM      5  C   UNL     1      -1.597   9.972  17.301  0.00  0.00    +0.000 A 
ATOM      6  C   UNL     1      -2.391   9.552  16.248  0.00  0.00    +0.000 A 
ATOM      7  C   UNL     1      -3.509  10.261  15.848  0.00  0.00    +0.000 A 
ATOM      8  F   UNL     1      -4.258   9.808  14.836  0.00  0.00    +0.000 F 
ATOM      9  C   UNL     1      -3.850  11.438  16.471  0.00  0.00    +0.000 A 
ATOM     10  C   UNL     1      -3.054  11.894  17.521  0.00  0.00    +0.000 A 
ATOM     11  C   UNL     1      -1.946  11.142  18.017  0.00  0.00    +0.000 A 
ENDROOT
BRANCH   3  12
ATOM     12  C   UNL     1       1.538   8.723  18.655  0.00  0.00    +0.000 A 
ATOM     13  C   UNL     1       2.527   8.726  17.662  0.00  0.00    +0.000 A 
ATOM     14  C   UNL     1       3.432   7.665  17.539  0.00  0.00    +0.000 A 
ATOM     15  C   UNL     1       3.476   6.670  18.508  0.00  0.00    +0.000 A 
ATOM     16  C   UNL     1       2.652   6.768  19.623  0.00  0.00    +0.000 A 
ATOM     17  C   UNL     1       1.688   7.780  19.690  0.00  0.00    +0.000 A 
ENDBRANCH   3  12
BRANCH   1  19
ATOM     18  N   UNL     1      -1.782  12.149  21.467  0.00  0.00    +0.000 N 
ATOM     19  C   UNL     1      -1.515  12.523  20.150  0.00  0.00    +0.000 C 
ATOM     20  O   UNL     1      -1.551  13.700  19.794  0.00  0.00    +0.000 OA
ATOM     21  H   UNL     1      -1.603  11.212  21.806  0.00  0.00    +0.000 HD
BRANCH  18  24
ATOM     22  C   UNL     1      -0.942  13.749  23.143  0.00  0.00    +0.000 C 
ATOM     23  O   UNL     1      -1.011  14.307  24.238  0.00  0.00    +0.000 OA
ATOM     24  N   UNL     1      -2.029  13.127  22.481  0.00  0.00    +0.000 N 
BRANCH  24  25
ATOM     25  C   UNL     1      -3.393  13.383  22.853  0.00  0.00    +0.000 A 
ATOM     26  C   UNL     1      -4.116  14.438  22.269  0.00  0.00    +0.000 A 
ATOM     27  C   UNL     1      -5.424  14.734  22.663  0.00  0.00    +0.000 A 
ATOM     28  C   UNL     1      -6.049  13.959  23.633  0.00  0.00    +0.000 A 
ATOM     29  C   UNL     1      -5.376  12.873  24.181  0.00  0.00    +0.000 A 
ATOM     30  C   UNL     1      -4.062  12.581  23.789  0.00  0.00    +0.000 A 
ENDBRANCH  24  25
BRANCH  22  32
ATOM     31  C   UNL     1       0.742  15.008  22.147  0.00  0.00    +0.000 C 
ATOM     32  O   UNL     1       0.233  13.707  22.437  0.00  0.00    +0.000 OA
ENDBRANCH  22  32
ENDBRANCH  18  24
ENDBRANCH   1  19
BRANCH   2  33
ATOM     33  O   UNL     1       0.709  11.028  20.582  0.00  0.00    +0.000 OA
ATOM     34  C   UNL     1       0.777  10.233  21.760  0.00  0.00    +0.000 C 
ENDBRANCH   2  33
TORSDOF 6
ENDMDL
MODEL 5
REMARK VINA RESULT:      -6.4      2.211      7.511
REMARK  Name = 
REMARK  8 active torsions:
REMARK  status: ('A' for Active; 'I' for Inactive)
REMARK    1  A    between atoms: C_1  and  O_2
REMARK    2  A    between atoms: O_2  and  C_3
REMARK    3  A    between atoms: N_5  and  N_6
REMARK    4  A    between atoms: N_5  and  C_28
REMARK    5  A    between atoms: C_7  and  C_9
REMARK    6  A    between atoms: C_10  and  O_11
REMARK    7  A    between atoms: O_11  and  C_12
REMARK    8  A    between atoms: C_13  and  C_14
REMARK                            x       y       z     vdW  Elec       q    Type
REMARK                         _______ _______ _______ _____ _____    ______ ____
ROOT
ATOM      1  C   UNL     1      -0.741  10.930  20.212  0.00  0.00    +0.000 A 
ATOM      2  C   UNL     1       0.435  10.130  20.214  0.00  0.00    +0.000 A 
ATOM      3  C   UNL     1       0.690   9.338  19.082  0.00  0.00    +0.000 A 
ATOM      4  N   UNL     1      -0.200   9.302  18.048  0.00  0.00    +0.000 NA
ATOM      5  C   UNL     1      -1.293  10.068  18.033  0.00  0.00    +0.000 A 
ATOM      6  C   UNL     1      -2.136   9.969  16.940  0.00  0.00    +0.000 A 
ATOM      7  C   UNL     1      -3.261  10.762  16.810  0.00  0.00    +0.000 A 
ATOM      8  F   UNL     1      -4.058  10.619  15.745  0.00  0.00    +0.000 F 
ATOM      9  C   UNL     1      -3.561  11.711  17.760  0.00  0.00    +0.000 A 
ATOM     10  C   UNL     1      -2.716  11.845  18.861  0.00  0.00    +0.000 A 
ATOM     11  C   UNL     1      -1.597  10.983  19.070  0.00  0.00    +0.000 A 
ENDROOT
BRANCH   3  12
ATOM     12  C   UNL     1       1.880   8.484  18.832  0.00  0.00    +0.000 A 
ATOM     13  C   UNL     1       2.740   8.680  17.742  0.00  0.00    +0.000 A 
ATOM     14  C   UNL     1       3.614   7.672  17.319  0.00  0.00    +0.000 A 
ATOM     15  C   UNL     1       3.768   6.519  18.079  0.00  0.00    +0.000 A 
ATOM     16  C   UNL     1       3.089   6.402  19.286  0.00  0.00    +0.000 A 
ATOM     17  C   UNL     1       2.149   7.371  19.652  0.00  0.00    +0.000 A 
ENDBRANCH   3  12
BRANCH   1  19
ATOM     18  N   UNL     1      -1.293  13.064  21.389  0.00  0.00    +0.000 N 
ATOM     19  C   UNL     1      -1.059  11.692  21.488  0.00  0.00    +0.000 C 
ATOM     20  O   UNL     1      -1.130  11.102  22.565  0.00  0.00    +0.000 OA
ATOM     21  H   UNL     1      -1.392  13.529  20.496  0.00  0.00    +0.000 HD
BRANCH  18  24
ATOM     22  C   UNL     1      -0.741  14.477  23.333  0.00  0.00    +0.000 C 
ATOM     23  O   UNL     1      -0.925  14.842  24.493  0.00  0.00    +0.000 OA
ATOM     24  N   UNL     1      -1.708  13.830  22.524  0.00  0.00    +0.000 N 
BRANCH  24  25
ATOM     25  C   UNL     1      -3.107  13.844  22.853  0.00  0.00    +0.000 A 
ATOM     26  C   UNL     1      -3.978  14.782  22.271  0.00  0.00    +0.000 A 
ATOM     27  C   UNL     1      -5.328  14.844  22.624  0.00  0.00    +0.000 A 
ATOM     28  C   UNL     1      -5.845  13.946  23.551  0.00  0.00    +0.000 A 
ATOM     29  C   UNL     1      -5.017  12.969  24.094  0.00  0.00    +0.000 A 
ATOM     30  C   UNL     1      -3.661  12.912  23.743  0.00  0.00    +0.000 A 
ENDBRANCH  24  25
BRANCH  22  32
ATOM     31  C   UNL     1       0.701  16.088  22.473  0.00  0.00    +0.000 C 
ATOM     32  O   UNL     1       0.452  14.700  22.695  0.00  0.00    +0.000 OA
ENDBRANCH  22  32
ENDBRANCH  18  24
ENDBRANCH   1  19
BRANCH   2  33
ATOM     33  O   UNL     1       1.163  10.136  21.375  0.00  0.00    +0.000 OA
ATOM     34  C   UNL     1       1.217   9.061  22.303  0.00  0.00    +0.000 C 
ENDBRANCH   2  33
TORSDOF 6
ENDMDL
MODEL 6
REMARK VINA RESULT:      -6.4      3.236      4.179
REMARK  Name = 
REMARK  8 active torsions:
REMARK  status: ('A' for Active; 'I' for Inactive)
REMARK    1  A    between atoms: C_1  and  O_2
REMARK    2  A    between atoms: O_2  and  C_3
REMARK    3  A    between atoms: N_5  and  N_6
REMARK    4  A    between atoms: N_5  and  C_28
REMARK    5  A    between atoms: C_7  and  C_9
REMARK    6  A    between atoms: C_10  and  O_11
REMARK    7  A    between atoms: O_11  and  C_12
REMARK    8  A    between atoms: C_13  and  C_14
REMARK                            x       y       z     vdW  Elec       q    Type
REMARK                         _______ _______ _______ _____ _____    ______ ____
ROOT
ATOM      1  C   UNL     1      -2.159  12.543  19.819  0.00  0.00    +0.000 A 
ATOM      2  C   UNL     1      -3.245  13.126  20.530  0.00  0.00    +0.000 A 
ATOM      3  C   UNL     1      -4.548  12.799  20.119  0.00  0.00    +0.000 A 
ATOM      4  N   UNL     1      -4.750  11.995  19.035  0.00  0.00    +0.000 NA
ATOM      5  C   UNL     1      -3.734  11.429  18.380  0.00  0.00    +0.000 A 
ATOM      6  C   UNL     1      -4.035  10.623  17.295  0.00  0.00    +0.000 A 
ATOM      7  C   UNL     1      -3.054   9.951  16.590  0.00  0.00    +0.000 A 
ATOM      8  F   UNL     1      -3.389   9.198  15.536  0.00  0.00    +0.000 F 
ATOM      9  C   UNL     1      -1.736  10.036  16.972  0.00  0.00    +0.000 A 
ATOM     10  C   UNL     1      -1.409  10.824  18.075  0.00  0.00    +0.000 A 
ATOM     11  C   UNL     1      -2.384  11.601  18.770  0.00  0.00    +0.000 A 
ENDROOT
BRANCH   3  12
ATOM     12  C   UNL     1      -5.823  13.227  20.750  0.00  0.00    +0.000 A 
ATOM     13  C   UNL     1      -6.684  14.164  20.162  0.00  0.00    +0.000 A 
ATOM     14  C   UNL     1      -7.665  14.820  20.915  0.00  0.00    +0.000 A 
ATOM     15  C   UNL     1      -7.916  14.427  22.224  0.00  0.00    +0.000 A 
ATOM     16  C   UNL     1      -7.224  13.346  22.757  0.00  0.00    +0.000 A 
ATOM     17  C   UNL     1      -6.183  12.760  22.029  0.00  0.00    +0.000 A 
ENDBRANCH   3  12
BRANCH   1  19
ATOM     18  N   UNL     1      -0.454  14.351  20.079  0.00  0.00    +0.000 N 
ATOM     19  C   UNL     1      -0.760  12.996  20.204  0.00  0.00    +0.000 C 
ATOM     20  O   UNL     1       0.060  12.187  20.636  0.00  0.00    +0.000 OA
ATOM     21  H   UNL     1      -1.163  15.046  19.877  0.00  0.00    +0.000 HD
BRANCH  18  24
ATOM     22  C   UNL     1       0.960  15.267  21.878  0.00  0.00    +0.000 C 
ATOM     23  O   UNL     1       1.826  16.040  22.288  0.00  0.00    +0.000 OA
ATOM     24  N   UNL     1       0.800  14.873  20.527  0.00  0.00    +0.000 N 
BRANCH  24  25
ATOM     25  C   UNL     1       1.839  15.060  19.552  0.00  0.00    +0.000 A 
ATOM     26  C   UNL     1       2.881  14.126  19.417  0.00  0.00    +0.000 A 
ATOM     27  C   UNL     1       3.929  14.323  18.514  0.00  0.00    +0.000 A 
ATOM     28  C   UNL     1       3.941  15.451  17.701  0.00  0.00    +0.000 A 
ATOM     29  C   UNL     1       2.889  16.359  17.773  0.00  0.00    +0.000 A 
ATOM     30  C   UNL     1       1.843  16.162  18.684  0.00  0.00    +0.000 A 
ENDBRANCH  24  25
BRANCH  22  32
ATOM     31  C   UNL     1      -0.532  15.623  23.627  0.00  0.00    +0.000 C 
ATOM     32  O   UNL     1       0.063  14.682  22.734  0.00  0.00    +0.000 OA
ENDBRANCH  22  32
ENDBRANCH  18  24
ENDBRANCH   1  19
BRANCH   2  33
ATOM     33  O   UNL     1      -2.908  14.037  21.496  0.00  0.00    +0.000 OA
ATOM     34  C   UNL     1      -3.457  15.345  21.604  0.00  0.00    +0.000 C 
ENDBRANCH   2  33
TORSDOF 6
ENDMDL
MODEL 7
REMARK VINA RESULT:      -6.3      4.722      5.988
REMARK  Name = 
REMARK  8 active torsions:
REMARK  status: ('A' for Active; 'I' for Inactive)
REMARK    1  A    between atoms: C_1  and  O_2
REMARK    2  A    between atoms: O_2  and  C_3
REMARK    3  A    between atoms: N_5  and  N_6
REMARK    4  A    between atoms: N_5  and  C_28
REMARK    5  A    between atoms: C_7  and  C_9
REMARK    6  A    between atoms: C_10  and  O_11
REMARK    7  A    between atoms: O_11  and  C_12
REMARK    8  A    between atoms: C_13  and  C_14
REMARK                            x       y       z     vdW  Elec       q    Type
REMARK                         _______ _______ _______ _____ _____    ______ ____
ROOT
ATOM      1  C   UNL     1       0.647  13.387  19.876  0.00  0.00    +0.000 A 
ATOM      2  C   UNL     1      -0.488  13.610  20.704  0.00  0.00    +0.000 A 
ATOM      3  C   UNL     1      -1.394  12.549  20.873  0.00  0.00    +0.000 A 
ATOM      4  N   UNL     1      -1.209  11.370  20.212  0.00  0.00    +0.000 NA
ATOM      5  C   UNL     1      -0.134  11.149  19.452  0.00  0.00    +0.000 A 
ATOM      6  C   UNL     1      -0.028   9.921  18.824  0.00  0.00    +0.000 A 
ATOM      7  C   UNL     1       1.075   9.581  18.063  0.00  0.00    +0.000 A 
ATOM      8  F   UNL     1       1.127   8.390  17.459  0.00  0.00    +0.000 F 
ATOM      9  C   UNL     1       2.131  10.454  17.935  0.00  0.00    +0.000 A 
ATOM     10  C   UNL     1       2.058  11.690  18.576  0.00  0.00    +0.000 A 
ATOM     11  C   UNL     1       0.897  12.107  19.294  0.00  0.00    +0.000 A 
ENDROOT
BRANCH   3  12
ATOM     12  C   UNL     1      -2.601  12.527  21.739  0.00  0.00    +0.000 A 
ATOM     13  C   UNL     1      -3.864  12.942  21.293  0.00  0.00    +0.000 A 
ATOM     14  C   UNL     1      -4.883  13.262  22.197  0.00  0.00    +0.000 A 
ATOM     15  C   UNL     1      -4.715  13.010  23.554  0.00  0.00    +0.000 A 
ATOM     16  C   UNL     1      -3.552  12.389  23.994  0.00  0.00    +0.000 A 
ATOM     17  C   UNL     1      -2.504  12.159  23.096  0.00  0.00    +0.000 A 
ENDBRANCH   3  12
BRANCH   1  19
ATOM     18  N   UNL     1       2.573  14.837  20.530  0.00  0.00    +0.000 N 
ATOM     19  C   UNL     1       1.554  14.578  19.614  0.00  0.00    +0.000 C 
ATOM     20  O   UNL     1       1.400  15.270  18.608  0.00  0.00    +0.000 OA
ATOM     21  H   UNL     1       2.807  14.188  21.271  0.00  0.00    +0.000 HD
BRANCH  18  24
ATOM     22  C   UNL     1       3.198  17.222  20.542  0.00  0.00    +0.000 C 
ATOM     23  O   UNL     1       3.778  18.191  20.055  0.00  0.00    +0.000 OA
ATOM     24  N   UNL     1       3.537  15.868  20.296  0.00  0.00    +0.000 N 
BRANCH  24  25
ATOM     25  C   UNL     1       4.804  15.492  19.733  0.00  0.00    +0.000 A 
ATOM     26  C   UNL     1       4.922  15.164  18.371  0.00  0.00    +0.000 A 
ATOM     27  C   UNL     1       6.135  14.741  17.822  0.00  0.00    +0.000 A 
ATOM     28  C   UNL     1       7.269  14.665  18.622  0.00  0.00    +0.000 A 
ATOM     29  C   UNL     1       7.192  15.043  19.958  0.00  0.00    +0.000 A 
ATOM     30  C   UNL     1       5.973  15.461  20.508  0.00  0.00    +0.000 A 
ENDBRANCH  24  25
BRANCH  22  32
ATOM     31  C   UNL     1       1.152  18.265  20.914  0.00  0.00    +0.000 C 
ATOM     32  O   UNL     1       2.153  17.379  21.415  0.00  0.00    +0.000 OA
ENDBRANCH  22  32
ENDBRANCH  18  24
ENDBRANCH   1  19
BRANCH   2  33
ATOM     33  O   UNL     1      -0.640  14.884  21.183  0.00  0.00    +0.000 OA
ATOM     34  C   UNL     1      -0.472  15.266  22.542  0.00  0.00    +0.000 C 
ENDBRANCH   2  33
TORSDOF 6
ENDMDL
MODEL 8
REMARK VINA RESULT:      -6.3      3.838      7.993
REMARK  Name = 
REMARK  8 active torsions:
REMARK  status: ('A' for Active; 'I' for Inactive)
REMARK    1  A    between atoms: C_1  and  O_2
REMARK    2  A    between atoms: O_2  and  C_3
REMARK    3  A    between atoms: N_5  and  N_6
REMARK    4  A    between atoms: N_5  and  C_28
REMARK    5  A    between atoms: C_7  and  C_9
REMARK    6  A    between atoms: C_10  and  O_11
REMARK    7  A    between atoms: O_11  and  C_12
REMARK    8  A    between atoms: C_13  and  C_14
REMARK                            x       y       z     vdW  Elec       q    Type
REMARK                         _______ _______ _______ _____ _____    ______ ____
ROOT
ATOM      1  C   UNL     1       0.046  13.345  20.658  0.00  0.00    +0.000 A 
ATOM      2  C   UNL     1       0.069  11.928  20.535  0.00  0.00    +0.000 A 
ATOM      3  C   UNL     1       0.974  11.364  19.619  0.00  0.00    +0.000 A 
ATOM      4  N   UNL     1       1.756  12.165  18.837  0.00  0.00    +0.000 NA
ATOM      5  C   UNL     1       1.753  13.493  18.966  0.00  0.00    +0.000 A 
ATOM      6  C   UNL     1       2.583  14.225  18.135  0.00  0.00    +0.000 A 
ATOM      7  C   UNL     1       2.689  15.599  18.233  0.00  0.00    +0.000 A 
ATOM      8  F   UNL     1       3.490  16.268  17.396  0.00  0.00    +0.000 F 
ATOM      9  C   UNL     1       1.989  16.288  19.196  0.00  0.00    +0.000 A 
ATOM     10  C   UNL     1       1.162  15.572  20.061  0.00  0.00    +0.000 A 
ATOM     11  C   UNL     1       0.961  14.164  19.929  0.00  0.00    +0.000 A 
ENDROOT
BRANCH   3  12
ATOM     12  C   UNL     1       1.222   9.920  19.373  0.00  0.00    +0.000 A 
ATOM     13  C   UNL     1       1.227   8.965  20.399  0.00  0.00    +0.000 A 
ATOM     14  C   UNL     1       1.815   7.708  20.216  0.00  0.00    +0.000 A 
ATOM     15  C   UNL     1       2.251   7.321  18.955  0.00  0.00    +0.000 A 
ATOM     16  C   UNL     1       2.050   8.169  17.872  0.00  0.00    +0.000 A 
ATOM     17  C   UNL     1       1.549   9.458  18.083  0.00  0.00    +0.000 A 
ENDBRANCH   3  12
BRANCH   1  19
ATOM     18  N   UNL     1      -0.895  13.723  22.941  0.00  0.00    +0.000 N 
ATOM     19  C   UNL     1      -1.015  13.940  21.569  0.00  0.00    +0.000 C 
ATOM     20  O   UNL     1      -1.932  14.614  21.101  0.00  0.00    +0.000 OA
ATOM     21  H   UNL     1      -0.066  13.308  23.349  0.00  0.00    +0.000 HD
BRANCH  18  24
ATOM     22  C   UNL     1      -1.294  15.302  24.791  0.00  0.00    +0.000 C 
ATOM     23  O   UNL     1      -1.852  15.623  25.840  0.00  0.00    +0.000 OA
ATOM     24  N   UNL     1      -1.786  14.343  23.872  0.00  0.00    +0.000 N 
BRANCH  24  25
ATOM     25  C   UNL     1      -3.153  13.898  23.896  0.00  0.00    +0.000 A 
ATOM     26  C   UNL     1      -4.198  14.750  23.497  0.00  0.00    +0.000 A 
ATOM     27  C   UNL     1      -5.535  14.352  23.568  0.00  0.00    +0.000 A 
ATOM     28  C   UNL     1      -5.855  13.075  24.016  0.00  0.00    +0.000 A 
ATOM     29  C   UNL     1      -4.836  12.193  24.358  0.00  0.00    +0.000 A 
ATOM     30  C   UNL     1      -3.495  12.597  24.290  0.00  0.00    +0.000 A 
ENDBRANCH  24  25
BRANCH  22  32
ATOM     31  C   UNL     1      -0.322  17.179  23.820  0.00  0.00    +0.000 C 
ATOM     32  O   UNL     1      -0.119  15.890  24.399  0.00  0.00    +0.000 OA
ENDBRANCH  22  32
ENDBRANCH  18  24
ENDBRANCH   1  19
BRANCH   2  33
ATOM     33  O   UNL     1      -0.873  11.247  21.260  0.00  0.00    +0.000 OA
ATOM     34  C   UNL     1      -0.623  10.577  22.488  0.00  0.00    +0.000 C 
ENDBRANCH   2  33
TORSDOF 6
ENDMDL
MODEL 9
REMARK VINA RESULT:      -6.3      1.669      7.260
REMARK  Name = 
REMARK  8 active torsions:
REMARK  status: ('A' for Active; 'I' for Inactive)
REMARK    1  A    between atoms: C_1  and  O_2
REMARK    2  A    between atoms: O_2  and  C_3
REMARK    3  A    between atoms: N_5  and  N_6
REMARK    4  A    between atoms: N_5  and  C_28
REMARK    5  A    between atoms: C_7  and  C_9
REMARK    6  A    between atoms: C_10  and  O_11
REMARK    7  A    between atoms: O_11  and  C_12
REMARK    8  A    between atoms: C_13  and  C_14
REMARK                            x       y       z     vdW  Elec       q    Type
REMARK                         _______ _______ _______ _____ _____    ______ ____
ROOT
ATOM      1  C   UNL     1      -2.021  11.513  19.131  0.00  0.00    +0.000 A 
ATOM      2  C   UNL     1      -0.812  10.864  19.505  0.00  0.00    +0.000 A 
ATOM      3  C   UNL     1      -0.297   9.885  18.639  0.00  0.00    +0.000 A 
ATOM      4  N   UNL     1      -0.978   9.537  17.508  0.00  0.00    +0.000 NA
ATOM      5  C   UNL     1      -2.100  10.159  17.142  0.00  0.00    +0.000 A 
ATOM      6  C   UNL     1      -2.719   9.742  15.976  0.00  0.00    +0.000 A 
ATOM      7  C   UNL     1      -3.854  10.363  15.488  0.00  0.00    +0.000 A 
ATOM      8  F   UNL     1      -4.429   9.915  14.367  0.00  0.00    +0.000 F 
ATOM      9  C   UNL     1      -4.390  11.451  16.138  0.00  0.00    +0.000 A 
ATOM     10  C   UNL     1      -3.773  11.904  17.303  0.00  0.00    +0.000 A 
ATOM     11  C   UNL     1      -2.653  11.232  17.882  0.00  0.00    +0.000 A 
ENDROOT
BRANCH   3  12
ATOM     12  C   UNL     1       0.975   9.133  18.786  0.00  0.00    +0.000 A 
ATOM     13  C   UNL     1       1.971   9.125  17.800  0.00  0.00    +0.000 A 
ATOM     14  C   UNL     1       2.969   8.144  17.786  0.00  0.00    +0.000 A 
ATOM     15  C   UNL     1       3.092   7.260  18.852  0.00  0.00    +0.000 A 
ATOM     16  C   UNL     1       2.251   7.394  19.950  0.00  0.00    +0.000 A 
ATOM     17  C   UNL     1       1.199   8.316  19.912  0.00  0.00    +0.000 A 
ENDBRANCH   3  12
BRANCH   1  19
ATOM     18  N   UNL     1      -3.491  11.978  21.097  0.00  0.00    +0.000 N 
ATOM     19  C   UNL     1      -2.620  12.486  20.133  0.00  0.00    +0.000 C 
ATOM     20  O   UNL     1      -2.319  13.678  20.102  0.00  0.00    +0.000 OA
ATOM     21  H   UNL     1      -3.623  10.983  21.231  0.00  0.00    +0.000 HD
BRANCH  18  24
ATOM     22  C   UNL     1      -3.313  12.907  23.373  0.00  0.00    +0.000 C 
ATOM     23  O   UNL     1      -3.814  13.273  24.436  0.00  0.00    +0.000 OA
ATOM     24  N   UNL     1      -4.007  12.806  22.142  0.00  0.00    +0.000 N 
BRANCH  24  25
ATOM     25  C   UNL     1      -5.276  13.448  21.930  0.00  0.00    +0.000 A 
ATOM     26  C   UNL     1      -6.474  12.716  21.978  0.00  0.00    +0.000 A 
ATOM     27  C   UNL     1      -7.710  13.315  21.718  0.00  0.00    +0.000 A 
ATOM     28  C   UNL     1      -7.774  14.673  21.430  0.00  0.00    +0.000 A 
ATOM     29  C   UNL     1      -6.609  15.432  21.437  0.00  0.00    +0.000 A 
ATOM     30  C   UNL     1      -5.370  14.827  21.693  0.00  0.00    +0.000 A 
ENDBRANCH  24  25
BRANCH  22  32
ATOM     31  C   UNL     1      -1.134  13.723  23.392  0.00  0.00    +0.000 C 
ATOM     32  O   UNL     1      -1.984  12.581  23.285  0.00  0.00    +0.000 OA
ENDBRANCH  22  32
ENDBRANCH  18  24
ENDBRANCH   1  19
BRANCH   2  33
ATOM     33  O   UNL     1      -0.312  11.193  20.738  0.00  0.00    +0.000 OA
ATOM     34  C   UNL     1      -0.339  10.342  21.877  0.00  0.00    +0.000 C 
ENDBRANCH   2  33
TORSDOF 6
ENDMDL
