MODEL 1
REMARK VINA RESULT:      -8.0      0.000      0.000
REMARK  Name = 
REMARK  9 active torsions:
REMARK  status: ('A' for Active; 'I' for Inactive)
REMARK    1  A    between atoms: C_1  and  O_2
REMARK    2  A    between atoms: O_2  and  C_3
REMARK    3  A    between atoms: C_5  and  C_6
REMARK    4  A    between atoms: C_8  and  C_9
REMARK    5  A    between atoms: C_9  and  N_10
REMARK    6  A    between atoms: C_25  and  O_26
REMARK    7  A    between atoms: O_26  and  C_27
REMARK    8  A    between atoms: C_28  and  O_29
REMARK    9  A    between atoms: O_29  and  C_30
REMARK                            x       y       z     vdW  Elec       q    Type
REMARK                         _______ _______ _______ _____ _____    ______ ____
ROOT
ATOM      1  C   UNL     1       8.281   8.956  18.129  0.00  0.00    +0.000 A 
ATOM      2  N   UNL     1       7.724   8.372  17.083  0.00  0.00    +0.000 NA
ATOM      3  C   UNL     1       7.632   7.040  17.431  0.00  0.00    +0.000 A 
ATOM      4  C   UNL     1       8.154   6.877  18.695  0.00  0.00    +0.000 A 
ATOM      5  O   UNL     1       8.567   8.097  19.158  0.00  0.00    +0.000 OA
ENDROOT
BRANCH   1   8
ATOM      6  C   UNL     1      10.035  12.070  19.272  0.00  0.00    +0.000 A 
ATOM      7  C   UNL     1       9.565  10.753  19.189  0.00  0.00    +0.000 A 
ATOM      8  C   UNL     1       8.536  10.383  18.318  0.00  0.00    +0.000 A 
ATOM      9  C   UNL     1       7.878  11.398  17.625  0.00  0.00    +0.000 A 
ATOM     10  C   UNL     1       8.274  12.743  17.761  0.00  0.00    +0.000 A 
ATOM     11  C   UNL     1       9.363  13.102  18.591  0.00  0.00    +0.000 A 
BRANCH   6  13
ATOM     12  C   UNL     1      12.333  11.641  19.631  0.00  0.00    +0.000 C 
ATOM     13  O   UNL     1      11.150  12.342  20.026  0.00  0.00    +0.000 OA
ENDBRANCH   6  13
BRANCH  10  14
ATOM     14  O   UNL     1       7.485  13.598  17.021  0.00  0.00    +0.000 OA
ATOM     15  C   UNL     1       6.439  14.282  17.700  0.00  0.00    +0.000 C 
ENDBRANCH  10  14
BRANCH  11  16
ATOM     16  O   UNL     1       9.646  14.437  18.649  0.00  0.00    +0.000 OA
ATOM     17  C   UNL     1      10.638  15.020  17.826  0.00  0.00    +0.000 C 
ENDBRANCH  11  16
ENDBRANCH   1   8
BRANCH   3  18
ATOM     18  C   UNL     1       7.112   6.041  16.443  0.00  0.00    +0.000 C 
BRANCH  18  19
ATOM     19  N   UNL     1       5.733   6.317  16.002  0.00  0.00    +0.000 NA
ATOM     20  C   UNL     1       5.035   5.115  15.465  0.00  0.00    +0.000 C 
ATOM     21  C   UNL     1       4.525   4.068  16.500  0.00  0.00    +0.000 C 
ATOM     22  N   UNL     1       3.729   4.756  17.527  0.00  0.00    +0.000 N 
ATOM     23  C   UNL     1       2.930   3.954  18.343  0.00  0.00    +0.000 A 
ATOM     24  C   UNL     1       1.880   4.547  19.057  0.00  0.00    +0.000 A 
ATOM     25  C   UNL     1       1.006   3.765  19.809  0.00  0.00    +0.000 A 
ATOM     26  C   UNL     1       1.198   2.395  19.849  0.00  0.00    +0.000 A 
ATOM     27  C   UNL     1       2.255   1.874  19.126  0.00  0.00    +0.000 A 
ATOM     28  N   UNL     1       3.109   2.616  18.377  0.00  0.00    +0.000 NA
ATOM     29  C   UNL     1       4.475   5.827  18.198  0.00  0.00    +0.000 C 
ATOM     30  C   UNL     1       4.930   6.859  17.133  0.00  0.00    +0.000 C 
ENDBRANCH  18  19
ENDBRANCH   3  18
TORSDOF 6
ENDMDL
MODEL 2
REMARK VINA RESULT:      -7.8      1.555      2.149
REMARK  Name = 
REMARK  9 active torsions:
REMARK  status: ('A' for Active; 'I' for Inactive)
REMARK    1  A    between atoms: C_1  and  O_2
REMARK    2  A    between atoms: O_2  and  C_3
REMARK    3  A    between atoms: C_5  and  C_6
REMARK    4  A    between atoms: C_8  and  C_9
REMARK    5  A    between atoms: C_9  and  N_10
REMARK    6  A    between atoms: C_25  and  O_26
REMARK    7  A    between atoms: O_26  and  C_27
REMARK    8  A    between atoms: C_28  and  O_29
REMARK    9  A    between atoms: O_29  and  C_30
REMARK                            x       y       z     vdW  Elec       q    Type
REMARK                         _______ _______ _______ _____ _____    ______ ____
ROOT
ATOM      1  C   UNL     1       8.551   9.102  18.370  0.00  0.00    +0.000 A 
ATOM      2  N   UNL     1       7.706   8.761  17.414  0.00  0.00    +0.000 NA
ATOM      3  C   UNL     1       7.486   7.412  17.603  0.00  0.00    +0.000 A 
ATOM      4  C   UNL     1       8.229   6.991  18.683  0.00  0.00    +0.000 A 
ATOM      5  O   UNL     1       8.910   8.063  19.189  0.00  0.00    +0.000 OA
ENDROOT
BRANCH   1   8
ATOM      6  C   UNL     1       9.796  11.981  20.430  0.00  0.00    +0.000 A 
ATOM      7  C   UNL     1       9.127  10.820  20.018  0.00  0.00    +0.000 A 
ATOM      8  C   UNL     1       9.056  10.440  18.675  0.00  0.00    +0.000 A 
ATOM      9  C   UNL     1       9.549  11.330  17.722  0.00  0.00    +0.000 A 
ATOM     10  C   UNL     1      10.144  12.547  18.107  0.00  0.00    +0.000 A 
ATOM     11  C   UNL     1      10.277  12.894  19.473  0.00  0.00    +0.000 A 
BRANCH   6  13
ATOM     12  C   UNL     1       8.880  12.887  22.413  0.00  0.00    +0.000 C 
ATOM     13  O   UNL     1       9.970  12.219  21.771  0.00  0.00    +0.000 OA
ENDBRANCH   6  13
BRANCH  10  14
ATOM     14  O   UNL     1      10.542  13.301  17.023  0.00  0.00    +0.000 OA
ATOM     15  C   UNL     1      11.905  13.211  16.625  0.00  0.00    +0.000 C 
ENDBRANCH  10  14
BRANCH  11  16
ATOM     16  O   UNL     1      10.864  14.103  19.721  0.00  0.00    +0.000 OA
ATOM     17  C   UNL     1      10.111  15.301  19.742  0.00  0.00    +0.000 C 
ENDBRANCH  11  16
ENDBRANCH   1   8
BRANCH   3  18
ATOM     18  C   UNL     1       6.624   6.652  16.641  0.00  0.00    +0.000 C 
BRANCH  18  19
ATOM     19  N   UNL     1       6.660   5.194  16.848  0.00  0.00    +0.000 NA
ATOM     20  C   UNL     1       6.585   4.800  18.284  0.00  0.00    +0.000 C 
ATOM     21  C   UNL     1       5.192   4.893  18.974  0.00  0.00    +0.000 C 
ATOM     22  N   UNL     1       4.201   4.179  18.154  0.00  0.00    +0.000 N 
ATOM     23  C   UNL     1       2.982   3.879  18.764  0.00  0.00    +0.000 A 
ATOM     24  C   UNL     1       2.168   2.889  18.198  0.00  0.00    +0.000 A 
ATOM     25  C   UNL     1       0.988   2.499  18.828  0.00  0.00    +0.000 A 
ATOM     26  C   UNL     1       0.628   3.111  20.016  0.00  0.00    +0.000 A 
ATOM     27  C   UNL     1       1.474   4.083  20.518  0.00  0.00    +0.000 A 
ATOM     28  N   UNL     1       2.633   4.468  19.927  0.00  0.00    +0.000 NA
ATOM     29  C   UNL     1       4.133   4.688  16.779  0.00  0.00    +0.000 C 
ATOM     30  C   UNL     1       5.533   4.543  16.125  0.00  0.00    +0.000 C 
ENDBRANCH  18  19
ENDBRANCH   3  18
TORSDOF 6
ENDMDL
MODEL 3
REMARK VINA RESULT:      -7.8      1.282      1.662
REMARK  Name = 
REMARK  9 active torsions:
REMARK  status: ('A' for Active; 'I' for Inactive)
REMARK    1  A    between atoms: C_1  and  O_2
REMARK    2  A    between atoms: O_2  and  C_3
REMARK    3  A    between atoms: C_5  and  C_6
REMARK    4  A    between atoms: C_8  and  C_9
REMARK    5  A    between atoms: C_9  and  N_10
REMARK    6  A    between atoms: C_25  and  O_26
REMARK    7  A    between atoms: O_26  and  C_27
REMARK    8  A    between atoms: C_28  and  O_29
REMARK    9  A    between atoms: O_29  and  C_30
REMARK                            x       y       z     vdW  Elec       q    Type
REMARK                         _______ _______ _______ _____ _____    ______ ____
ROOT
ATOM      1  C   UNL     1       8.528   8.732  18.396  0.00  0.00    +0.000 A 
ATOM      2  N   UNL     1       7.951   8.294  17.291  0.00  0.00    +0.000 NA
ATOM      3  C   UNL     1       7.696   6.960  17.533  0.00  0.00    +0.000 A 
ATOM      4  C   UNL     1       8.144   6.647  18.797  0.00  0.00    +0.000 A 
ATOM      5  O   UNL     1       8.673   7.774  19.365  0.00  0.00    +0.000 OA
ENDROOT
BRANCH   1   8
ATOM      6  C   UNL     1       9.576  11.689  20.457  0.00  0.00    +0.000 A 
ATOM      7  C   UNL     1       8.992  10.483  20.046  0.00  0.00    +0.000 A 
ATOM      8  C   UNL     1       8.934  10.103  18.702  0.00  0.00    +0.000 A 
ATOM      9  C   UNL     1       9.349  11.032  17.748  0.00  0.00    +0.000 A 
ATOM     10  C   UNL     1       9.856  12.288  18.132  0.00  0.00    +0.000 A 
ATOM     11  C   UNL     1       9.977  12.638  19.499  0.00  0.00    +0.000 A 
BRANCH   6  13
ATOM     12  C   UNL     1       8.537  12.134  22.534  0.00  0.00    +0.000 C 
ATOM     13  O   UNL     1       9.747  11.933  21.796  0.00  0.00    +0.000 OA
ENDBRANCH   6  13
BRANCH  10  14
ATOM     14  O   UNL     1      10.184  13.074  17.048  0.00  0.00    +0.000 OA
ATOM     15  C   UNL     1      11.564  13.208  16.727  0.00  0.00    +0.000 C 
ENDBRANCH  10  14
BRANCH  11  16
ATOM     16  O   UNL     1      10.475  13.887  19.746  0.00  0.00    +0.000 OA
ATOM     17  C   UNL     1       9.622  14.995  19.960  0.00  0.00    +0.000 C 
ENDBRANCH  11  16
ENDBRANCH   1   8
BRANCH   3  18
ATOM     18  C   UNL     1       7.106   6.102  16.455  0.00  0.00    +0.000 C 
BRANCH  18  19
ATOM     19  N   UNL     1       5.726   6.473  16.100  0.00  0.00    +0.000 NA
ATOM     20  C   UNL     1       4.945   5.349  15.512  0.00  0.00    +0.000 C 
ATOM     21  C   UNL     1       4.428   4.253  16.492  0.00  0.00    +0.000 C 
ATOM     22  N   UNL     1       3.713   4.901  17.602  0.00  0.00    +0.000 N 
ATOM     23  C   UNL     1       2.911   4.079  18.395  0.00  0.00    +0.000 A 
ATOM     24  C   UNL     1       1.923   4.666  19.197  0.00  0.00    +0.000 A 
ATOM     25  C   UNL     1       1.045   3.873  19.932  0.00  0.00    +0.000 A 
ATOM     26  C   UNL     1       1.169   2.497  19.865  0.00  0.00    +0.000 A 
ATOM     27  C   UNL     1       2.167   1.981  19.058  0.00  0.00    +0.000 A 
ATOM     28  N   UNL     1       3.024   2.736  18.325  0.00  0.00    +0.000 NA
ATOM     29  C   UNL     1       4.540   5.884  18.312  0.00  0.00    +0.000 C 
ATOM     30  C   UNL     1       5.001   6.968  17.303  0.00  0.00    +0.000 C 
ENDBRANCH  18  19
ENDBRANCH   3  18
TORSDOF 6
ENDMDL
MODEL 4
REMARK VINA RESULT:      -7.7      6.807      9.580
REMARK  Name = 
REMARK  9 active torsions:
REMARK  status: ('A' for Active; 'I' for Inactive)
REMARK    1  A    between atoms: C_1  and  O_2
REMARK    2  A    between atoms: O_2  and  C_3
REMARK    3  A    between atoms: C_5  and  C_6
REMARK    4  A    between atoms: C_8  and  C_9
REMARK    5  A    between atoms: C_9  and  N_10
REMARK    6  A    between atoms: C_25  and  O_26
REMARK    7  A    between atoms: O_26  and  C_27
REMARK    8  A    between atoms: C_28  and  O_29
REMARK    9  A    between atoms: O_29  and  C_30
REMARK                            x       y       z     vdW  Elec       q    Type
REMARK                         _______ _______ _______ _____ _____    ______ ____
ROOT
ATOM      1  C   UNL     1       2.414   7.514  18.678  0.00  0.00    +0.000 A 
ATOM      2  N   UNL     1       1.847   8.616  18.220  0.00  0.00    +0.000 NA
ATOM      3  C   UNL     1       1.222   9.173  19.317  0.00  0.00    +0.000 A 
ATOM      4  C   UNL     1       1.440   8.361  20.407  0.00  0.00    +0.000 A 
ATOM      5  O   UNL     1       2.208   7.299  20.016  0.00  0.00    +0.000 OA
ENDROOT
BRANCH   1   8
ATOM      6  C   UNL     1       5.427   6.260  16.825  0.00  0.00    +0.000 A 
ATOM      7  C   UNL     1       4.433   7.093  17.355  0.00  0.00    +0.000 A 
ATOM      8  C   UNL     1       3.271   6.585  17.944  0.00  0.00    +0.000 A 
ATOM      9  C   UNL     1       3.052   5.211  17.861  0.00  0.00    +0.000 A 
ATOM     10  C   UNL     1       3.995   4.361  17.252  0.00  0.00    +0.000 A 
ATOM     11  C   UNL     1       5.203   4.875  16.721  0.00  0.00    +0.000 A 
BRANCH   6  13
ATOM     12  C   UNL     1       7.474   7.263  17.455  0.00  0.00    +0.000 C 
ATOM     13  O   UNL     1       6.614   6.809  16.406  0.00  0.00    +0.000 OA
ENDBRANCH   6  13
BRANCH  10  14
ATOM     14  O   UNL     1       3.586   3.045  17.244  0.00  0.00    +0.000 OA
ATOM     15  C   UNL     1       3.270   2.446  18.495  0.00  0.00    +0.000 C 
ENDBRANCH  10  14
BRANCH  11  16
ATOM     16  O   UNL     1       6.035   3.955  16.148  0.00  0.00    +0.000 OA
ATOM     17  C   UNL     1       6.217   3.893  14.746  0.00  0.00    +0.000 C 
ENDBRANCH  11  16
ENDBRANCH   1   8
BRANCH   3  18
ATOM     18  C   UNL     1       0.397  10.414  19.160  0.00  0.00    +0.000 C 
BRANCH  18  19
ATOM     19  N   UNL     1       0.684  11.440  20.177  0.00  0.00    +0.000 NA
ATOM     20  C   UNL     1      -0.078  12.704  19.970  0.00  0.00    +0.000 C 
ATOM     21  C   UNL     1      -1.586  12.696  20.362  0.00  0.00    +0.000 C 
ATOM     22  N   UNL     1      -1.724  12.187  21.735  0.00  0.00    +0.000 N 
ATOM     23  C   UNL     1      -2.948  12.410  22.366  0.00  0.00    +0.000 A 
ATOM     24  C   UNL     1      -3.018  12.310  23.762  0.00  0.00    +0.000 A 
ATOM     25  C   UNL     1      -4.200  12.613  24.434  0.00  0.00    +0.000 A 
ATOM     26  C   UNL     1      -5.306  13.006  23.702  0.00  0.00    +0.000 A 
ATOM     27  C   UNL     1      -5.171  13.081  22.327  0.00  0.00    +0.000 A 
ATOM     28  N   UNL     1      -4.026  12.802  21.655  0.00  0.00    +0.000 NA
ATOM     29  C   UNL     1      -1.137  10.852  21.905  0.00  0.00    +0.000 C 
ATOM     30  C   UNL     1       0.368  10.920  21.536  0.00  0.00    +0.000 C 
ENDBRANCH  18  19
ENDBRANCH   3  18
TORSDOF 6
ENDMDL
MODEL 5
REMARK VINA RESULT:      -7.6      1.612      2.282
REMARK  Name = 
REMARK  9 active torsions:
REMARK  status: ('A' for Active; 'I' for Inactive)
REMARK    1  A    between atoms: C_1  and  O_2
REMARK    2  A    between atoms: O_2  and  C_3
REMARK    3  A    between atoms: C_5  and  C_6
REMARK    4  A    between atoms: C_8  and  C_9
REMARK    5  A    between atoms: C_9  and  N_10
REMARK    6  A    between atoms: C_25  and  O_26
REMARK    7  A    between atoms: O_26  and  C_27
REMARK    8  A    between atoms: C_28  and  O_29
REMARK    9  A    between atoms: O_29  and  C_30
REMARK                            x       y       z     vdW  Elec       q    Type
REMARK                         _______ _______ _______ _____ _____    ______ ____
ROOT
ATOM      1  C   UNL     1       8.574   9.183  18.421  0.00  0.00    +0.000 A 
ATOM      2  N   UNL     1       7.647   8.908  17.522  0.00  0.00    +0.000 NA
ATOM      3  C   UNL     1       7.421   7.553  17.652  0.00  0.00    +0.000 A 
ATOM      4  C   UNL     1       8.245   7.062  18.641  0.00  0.00    +0.000 A 
ATOM      5  O   UNL     1       8.984   8.096  19.147  0.00  0.00    +0.000 OA
ENDROOT
BRANCH   1   8
ATOM      6  C   UNL     1      10.165  12.543  17.902  0.00  0.00    +0.000 A 
ATOM      7  C   UNL     1       9.798  11.198  17.754  0.00  0.00    +0.000 A 
ATOM      8  C   UNL     1       9.124  10.496  18.757  0.00  0.00    +0.000 A 
ATOM      9  C   UNL     1       8.949  11.130  19.986  0.00  0.00    +0.000 A 
ATOM     10  C   UNL     1       9.391  12.452  20.189  0.00  0.00    +0.000 A 
ATOM     11  C   UNL     1      10.010  13.182  19.146  0.00  0.00    +0.000 A 
BRANCH   6  13
ATOM     12  C   UNL     1      12.105  13.175  16.706  0.00  0.00    +0.000 C 
ATOM     13  O   UNL     1      10.680  13.223  16.827  0.00  0.00    +0.000 OA
ENDBRANCH   6  13
BRANCH  10  14
ATOM     14  O   UNL     1       9.154  12.892  21.475  0.00  0.00    +0.000 OA
ATOM     15  C   UNL     1       8.536  11.982  22.378  0.00  0.00    +0.000 C 
ENDBRANCH  10  14
BRANCH  11  16
ATOM     16  O   UNL     1      10.403  14.451  19.466  0.00  0.00    +0.000 OA
ATOM     17  C   UNL     1      11.704  14.723  19.950  0.00  0.00    +0.000 C 
ENDBRANCH  11  16
ENDBRANCH   1   8
BRANCH   3  18
ATOM     18  C   UNL     1       6.470   6.859  16.726  0.00  0.00    +0.000 C 
BRANCH  18  19
ATOM     19  N   UNL     1       6.508   5.390  16.839  0.00  0.00    +0.000 NA
ATOM     20  C   UNL     1       6.548   4.909  18.248  0.00  0.00    +0.000 C 
ATOM     21  C   UNL     1       5.217   4.965  19.057  0.00  0.00    +0.000 C 
ATOM     22  N   UNL     1       4.155   4.309  18.279  0.00  0.00    +0.000 N 
ATOM     23  C   UNL     1       2.987   3.978  18.968  0.00  0.00    +0.000 A 
ATOM     24  C   UNL     1       2.118   3.030  18.412  0.00  0.00    +0.000 A 
ATOM     25  C   UNL     1       0.991   2.608  19.113  0.00  0.00    +0.000 A 
ATOM     26  C   UNL     1       0.737   3.146  20.362  0.00  0.00    +0.000 A 
ATOM     27  C   UNL     1       1.631   4.081  20.851  0.00  0.00    +0.000 A 
ATOM     28  N   UNL     1       2.741   4.495  20.191  0.00  0.00    +0.000 NA
ATOM     29  C   UNL     1       3.978   4.903  16.948  0.00  0.00    +0.000 C 
ATOM     30  C   UNL     1       5.318   4.792  16.173  0.00  0.00    +0.000 C 
ENDBRANCH  18  19
ENDBRANCH   3  18
TORSDOF 6
ENDMDL
MODEL 6
REMARK VINA RESULT:      -7.6      6.735      9.539
REMARK  Name = 
REMARK  9 active torsions:
REMARK  status: ('A' for Active; 'I' for Inactive)
REMARK    1  A    between atoms: C_1  and  O_2
REMARK    2  A    between atoms: O_2  and  C_3
REMARK    3  A    between atoms: C_5  and  C_6
REMARK    4  A    between atoms: C_8  and  C_9
REMARK    5  A    between atoms: C_9  and  N_10
REMARK    6  A    between atoms: C_25  and  O_26
REMARK    7  A    between atoms: O_26  and  C_27
REMARK    8  A    between atoms: C_28  and  O_29
REMARK    9  A    between atoms: O_29  and  C_30
REMARK                            x       y       z     vdW  Elec       q    Type
REMARK                         _______ _______ _______ _____ _____    ______ ____
ROOT
ATOM      1  C   UNL     1       2.595   7.559  18.598  0.00  0.00    +0.000 A 
ATOM      2  N   UNL     1       2.033   8.606  18.022  0.00  0.00    +0.000 NA
ATOM      3  C   UNL     1       1.273   9.188  19.016  0.00  0.00    +0.000 A 
ATOM      4  C   UNL     1       1.409   8.446  20.167  0.00  0.00    +0.000 A 
ATOM      5  O   UNL     1       2.259   7.403  19.918  0.00  0.00    +0.000 OA
ENDROOT
BRANCH   1   8
ATOM      6  C   UNL     1       3.944   4.384  17.118  0.00  0.00    +0.000 A 
ATOM      7  C   UNL     1       3.186   5.297  17.865  0.00  0.00    +0.000 A 
ATOM      8  C   UNL     1       3.564   6.635  18.010  0.00  0.00    +0.000 A 
ATOM      9  C   UNL     1       4.808   7.015  17.508  0.00  0.00    +0.000 A 
ATOM     10  C   UNL     1       5.629   6.092  16.833  0.00  0.00    +0.000 A 
ATOM     11  C   UNL     1       5.209   4.756  16.627  0.00  0.00    +0.000 A 
BRANCH   6  13
ATOM     12  C   UNL     1       3.269   2.315  18.041  0.00  0.00    +0.000 C 
ATOM     13  O   UNL     1       3.443   3.129  16.878  0.00  0.00    +0.000 OA
ENDBRANCH   6  13
BRANCH  10  14
ATOM     14  O   UNL     1       6.828   6.649  16.438  0.00  0.00    +0.000 OA
ATOM     15  C   UNL     1       7.561   7.387  17.408  0.00  0.00    +0.000 C 
ENDBRANCH  10  14
BRANCH  11  16
ATOM     16  O   UNL     1       6.096   3.953  15.966  0.00  0.00    +0.000 OA
ATOM     17  C   UNL     1       6.152   3.917  14.553  0.00  0.00    +0.000 C 
ENDBRANCH  11  16
ENDBRANCH   1   8
BRANCH   3  18
ATOM     18  C   UNL     1       0.416  10.378  18.705  0.00  0.00    +0.000 C 
BRANCH  18  19
ATOM     19  N   UNL     1       0.705  11.546  19.555  0.00  0.00    +0.000 NA
ATOM     20  C   UNL     1      -0.191  12.706  19.287  0.00  0.00    +0.000 C 
ATOM     21  C   UNL     1      -1.644  12.625  19.842  0.00  0.00    +0.000 C 
ATOM     22  N   UNL     1      -1.594  12.285  21.272  0.00  0.00    +0.000 N 
ATOM     23  C   UNL     1      -2.764  12.485  22.006  0.00  0.00    +0.000 A 
ATOM     24  C   UNL     1      -2.684  12.558  23.403  0.00  0.00    +0.000 A 
ATOM     25  C   UNL     1      -3.815  12.847  24.163  0.00  0.00    +0.000 A 
ATOM     26  C   UNL     1      -5.022  13.051  23.517  0.00  0.00    +0.000 A 
ATOM     27  C   UNL     1      -5.034  12.961  22.136  0.00  0.00    +0.000 A 
ATOM     28  N   UNL     1      -3.941  12.693  21.378  0.00  0.00    +0.000 NA
ATOM     29  C   UNL     1      -0.869  11.035  21.533  0.00  0.00    +0.000 C 
ATOM     30  C   UNL     1       0.579  11.179  20.993  0.00  0.00    +0.000 C 
ENDBRANCH  18  19
ENDBRANCH   3  18
TORSDOF 6
ENDMDL
MODEL 7
REMARK VINA RESULT:      -7.6      7.408      9.976
REMARK  Name = 
REMARK  9 active torsions:
REMARK  status: ('A' for Active; 'I' for Inactive)
REMARK    1  A    between atoms: C_1  and  O_2
REMARK    2  A    between atoms: O_2  and  C_3
REMARK    3  A    between atoms: C_5  and  C_6
REMARK    4  A    between atoms: C_8  and  C_9
REMARK    5  A    between atoms: C_9  and  N_10
REMARK    6  A    between atoms: C_25  and  O_26
REMARK    7  A    between atoms: O_26  and  C_27
REMARK    8  A    between atoms: C_28  and  O_29
REMARK    9  A    between atoms: O_29  and  C_30
REMARK                            x       y       z     vdW  Elec       q    Type
REMARK                         _______ _______ _______ _____ _____    ______ ____
ROOT
ATOM      1  C   UNL     1       2.147   8.419  18.412  0.00  0.00    +0.000 A 
ATOM      2  N   UNL     1       1.460   8.531  19.534  0.00  0.00    +0.000 NA
ATOM      3  C   UNL     1       0.770   9.719  19.407  0.00  0.00    +0.000 A 
ATOM      4  C   UNL     1       1.084  10.284  18.191  0.00  0.00    +0.000 A 
ATOM      5  O   UNL     1       1.959   9.459  17.539  0.00  0.00    +0.000 OA
ENDROOT
BRANCH   1   8
ATOM      6  C   UNL     1       5.150   6.621  17.056  0.00  0.00    +0.000 A 
ATOM      7  C   UNL     1       4.169   7.592  17.304  0.00  0.00    +0.000 A 
ATOM      8  C   UNL     1       2.990   7.299  17.995  0.00  0.00    +0.000 A 
ATOM      9  C   UNL     1       2.740   5.965  18.313  0.00  0.00    +0.000 A 
ATOM     10  C   UNL     1       3.669   4.957  17.993  0.00  0.00    +0.000 A 
ATOM     11  C   UNL     1       4.894   5.270  17.356  0.00  0.00    +0.000 A 
BRANCH   6  13
ATOM     12  C   UNL     1       7.386   7.269  17.467  0.00  0.00    +0.000 C 
ATOM     13  O   UNL     1       6.353   7.001  16.515  0.00  0.00    +0.000 OA
ENDBRANCH   6  13
BRANCH  10  14
ATOM     14  O   UNL     1       3.230   3.703  18.362  0.00  0.00    +0.000 OA
ATOM     15  C   UNL     1       2.493   2.956  17.401  0.00  0.00    +0.000 C 
ENDBRANCH  10  14
BRANCH  11  16
ATOM     16  O   UNL     1       5.710   4.207  17.090  0.00  0.00    +0.000 OA
ATOM     17  C   UNL     1       5.963   3.781  15.764  0.00  0.00    +0.000 C 
ENDBRANCH  11  16
ENDBRANCH   1   8
BRANCH   3  18
ATOM     18  C   UNL     1      -0.071  10.223  20.541  0.00  0.00    +0.000 C 
BRANCH  18  19
ATOM     19  N   UNL     1      -0.160  11.693  20.596  0.00  0.00    +0.000 NA
ATOM     20  C   UNL     1      -1.248  12.250  19.745  0.00  0.00    +0.000 C 
ATOM     21  C   UNL     1      -2.706  12.113  20.274  0.00  0.00    +0.000 C 
ATOM     22  N   UNL     1      -2.767  12.625  21.652  0.00  0.00    +0.000 N 
ATOM     23  C   UNL     1      -4.038  12.882  22.170  0.00  0.00    +0.000 A 
ATOM     24  C   UNL     1      -4.156  13.715  23.291  0.00  0.00    +0.000 A 
ATOM     25  C   UNL     1      -5.412  14.067  23.780  0.00  0.00    +0.000 A 
ATOM     26  C   UNL     1      -6.540  13.574  23.148  0.00  0.00    +0.000 A 
ATOM     27  C   UNL     1      -6.353  12.754  22.050  0.00  0.00    +0.000 A 
ATOM     28  N   UNL     1      -5.140  12.410  21.550  0.00  0.00    +0.000 NA
ATOM     29  C   UNL     1      -1.824  11.947  22.550  0.00  0.00    +0.000 C 
ATOM     30  C   UNL     1      -0.387  12.141  21.998  0.00  0.00    +0.000 C 
ENDBRANCH  18  19
ENDBRANCH   3  18
TORSDOF 6
ENDMDL
MODEL 8
REMARK VINA RESULT:      -7.5      5.613     10.078
REMARK  Name = 
REMARK  9 active torsions:
REMARK  status: ('A' for Active; 'I' for Inactive)
REMARK    1  A    between atoms: C_1  and  O_2
REMARK    2  A    between atoms: O_2  and  C_3
REMARK    3  A    between atoms: C_5  and  C_6
REMARK    4  A    between atoms: C_8  and  C_9
REMARK    5  A    between atoms: C_9  and  N_10
REMARK    6  A    between atoms: C_25  and  O_26
REMARK    7  A    between atoms: O_26  and  C_27
REMARK    8  A    between atoms: C_28  and  O_29
REMARK    9  A    between atoms: O_29  and  C_30
REMARK                            x       y       z     vdW  Elec       q    Type
REMARK                         _______ _______ _______ _____ _____    ______ ____
ROOT
ATOM      1  C   UNL     1       2.352   7.652  18.620  0.00  0.00    +0.000 A 
ATOM      2  N   UNL     1       1.781   8.730  18.113  0.00  0.00    +0.000 NA
ATOM      3  C   UNL     1       1.152   9.332  19.184  0.00  0.00    +0.000 A 
ATOM      4  C   UNL     1       1.371   8.569  20.309  0.00  0.00    +0.000 A 
ATOM      5  O   UNL     1       2.144   7.494  19.965  0.00  0.00    +0.000 OA
ENDROOT
BRANCH   1   8
ATOM      6  C   UNL     1       5.387   6.321  16.859  0.00  0.00    +0.000 A 
ATOM      7  C   UNL     1       4.390   7.177  17.347  0.00  0.00    +0.000 A 
ATOM      8  C   UNL     1       3.214   6.695  17.928  0.00  0.00    +0.000 A 
ATOM      9  C   UNL     1       2.985   5.321  17.882  0.00  0.00    +0.000 A 
ATOM     10  C   UNL     1       3.932   4.447  17.315  0.00  0.00    +0.000 A 
ATOM     11  C   UNL     1       5.153   4.935  16.791  0.00  0.00    +0.000 A 
BRANCH   6  13
ATOM     12  C   UNL     1       7.477   7.223  17.500  0.00  0.00    +0.000 C 
ATOM     13  O   UNL     1       6.585   6.848  16.446  0.00  0.00    +0.000 OA
ENDBRANCH   6  13
BRANCH  10  14
ATOM     14  O   UNL     1       3.513   3.133  17.337  0.00  0.00    +0.000 OA
ATOM     15  C   UNL     1       3.180   2.571  18.601  0.00  0.00    +0.000 C 
ENDBRANCH  10  14
BRANCH  11  16
ATOM     16  O   UNL     1       5.987   3.992  16.260  0.00  0.00    +0.000 OA
ATOM     17  C   UNL     1       6.151   3.851  14.861  0.00  0.00    +0.000 C 
ENDBRANCH  11  16
ENDBRANCH   1   8
BRANCH   3  18
ATOM     18  C   UNL     1       0.322  10.561  18.971  0.00  0.00    +0.000 C 
BRANCH  18  19
ATOM     19  N   UNL     1       0.184  11.391  20.181  0.00  0.00    +0.000 NA
ATOM     20  C   UNL     1       1.385  12.228  20.461  0.00  0.00    +0.000 C 
ATOM     21  C   UNL     1       1.591  13.495  19.580  0.00  0.00    +0.000 C 
ATOM     22  N   UNL     1       0.352  14.289  19.583  0.00  0.00    +0.000 N 
ATOM     23  C   UNL     1       0.448  15.603  19.122  0.00  0.00    +0.000 A 
ATOM     24  C   UNL     1      -0.564  16.513  19.454  0.00  0.00    +0.000 A 
ATOM     25  C   UNL     1      -0.458  17.853  19.089  0.00  0.00    +0.000 A 
ATOM     26  C   UNL     1       0.658  18.270  18.385  0.00  0.00    +0.000 A 
ATOM     27  C   UNL     1       1.619  17.320  18.086  0.00  0.00    +0.000 A 
ATOM     28  N   UNL     1       1.540  16.014  18.443  0.00  0.00    +0.000 NA
ATOM     29  C   UNL     1      -0.813  13.522  19.126  0.00  0.00    +0.000 C 
ATOM     30  C   UNL     1      -0.995  12.293  20.054  0.00  0.00    +0.000 C 
ENDBRANCH  18  19
ENDBRANCH   3  18
TORSDOF 6
ENDMDL
MODEL 9
REMARK VINA RESULT:      -7.5      7.036     10.193
REMARK  Name = 
REMARK  9 active torsions:
REMARK  status: ('A' for Active; 'I' for Inactive)
REMARK    1  A    between atoms: C_1  and  O_2
REMARK    2  A    between atoms: O_2  and  C_3
REMARK    3  A    between atoms: C_5  and  C_6
REMARK    4  A    between atoms: C_8  and  C_9
REMARK    5  A    between atoms: C_9  and  N_10
REMARK    6  A    between atoms: C_25  and  O_26
REMARK    7  A    between atoms: O_26  and  C_27
REMARK    8  A    between atoms: C_28  and  O_29
REMARK    9  A    between atoms: O_29  and  C_30
REMARK                            x       y       z     vdW  Elec       q    Type
REMARK                         _______ _______ _______ _____ _____    ______ ____
ROOT
ATOM      1  C   UNL     1       2.306   7.837  18.812  0.00  0.00    +0.000 A 
ATOM      2  N   UNL     1       1.340   8.364  19.543  0.00  0.00    +0.000 NA
ATOM      3  C   UNL     1       1.051   9.566  18.930  0.00  0.00    +0.000 A 
ATOM      4  C   UNL     1       1.878   9.714  17.838  0.00  0.00    +0.000 A 
ATOM      5  O   UNL     1       2.682   8.611  17.746  0.00  0.00    +0.000 OA
ENDROOT
BRANCH   1   8
ATOM      6  C   UNL     1       2.900   4.400  20.198  0.00  0.00    +0.000 A 
ATOM      7  C   UNL     1       2.535   5.747  20.070  0.00  0.00    +0.000 A 
ATOM      8  C   UNL     1       2.930   6.524  18.978  0.00  0.00    +0.000 A 
ATOM      9  C   UNL     1       3.829   5.962  18.074  0.00  0.00    +0.000 A 
ATOM     10  C   UNL     1       4.282   4.638  18.231  0.00  0.00    +0.000 A 
ATOM     11  C   UNL     1       3.824   3.833  19.300  0.00  0.00    +0.000 A 
BRANCH   6  13
ATOM     12  C   UNL     1       1.132   2.979  20.869  0.00  0.00    +0.000 C 
ATOM     13  O   UNL     1       2.353   3.646  21.206  0.00  0.00    +0.000 OA
ENDBRANCH   6  13
BRANCH  10  14
ATOM     14  O   UNL     1       5.187   4.275  17.255  0.00  0.00    +0.000 OA
ATOM     15  C   UNL     1       5.086   4.922  15.991  0.00  0.00    +0.000 C 
ENDBRANCH  10  14
BRANCH  11  16
ATOM     16  O   UNL     1       4.341   2.569  19.352  0.00  0.00    +0.000 OA
ATOM     17  C   UNL     1       3.709   1.483  18.703  0.00  0.00    +0.000 C 
ENDBRANCH  11  16
ENDBRANCH   1   8
BRANCH   3  18
ATOM     18  C   UNL     1       0.040  10.492  19.534  0.00  0.00    +0.000 C 
BRANCH  18  19
ATOM     19  N   UNL     1      -0.443  11.523  18.599  0.00  0.00    +0.000 NA
ATOM     20  C   UNL     1      -1.378  10.992  17.568  0.00  0.00    +0.000 C 
ATOM     21  C   UNL     1      -2.835  10.679  18.022  0.00  0.00    +0.000 C 
ATOM     22  N   UNL     1      -3.386  11.855  18.712  0.00  0.00    +0.000 N 
ATOM     23  C   UNL     1      -4.769  11.881  18.900  0.00  0.00    +0.000 A 
ATOM     24  C   UNL     1      -5.390  13.104  19.184  0.00  0.00    +0.000 A 
ATOM     25  C   UNL     1      -6.777  13.185  19.288  0.00  0.00    +0.000 A 
ATOM     26  C   UNL     1      -7.530  12.037  19.116  0.00  0.00    +0.000 A 
ATOM     27  C   UNL     1      -6.854  10.862  18.843  0.00  0.00    +0.000 A 
ATOM     28  N   UNL     1      -5.506  10.765  18.725  0.00  0.00    +0.000 NA
ATOM     29  C   UNL     1      -2.566  12.277  19.854  0.00  0.00    +0.000 C 
ATOM     30  C   UNL     1      -1.138  12.609  19.346  0.00  0.00    +0.000 C 
ENDBRANCH  18  19
ENDBRANCH   3  18
TORSDOF 6
ENDMDL
