MODEL 1
REMARK VINA RESULT:      -8.2      0.000      0.000
REMARK  Name = 
REMARK  9 active torsions:
REMARK  status: ('A' for Active; 'I' for Inactive)
REMARK    1  A    between atoms: C_1  and  C_2
REMARK    2  A    between atoms: C_4  and  C_5
REMARK    3  A    between atoms: N_7  and  C_8
REMARK    4  A    between atoms: C_8  and  C_9
REMARK    5  A    between atoms: C_9  and  C_10
REMARK    6  A    between atoms: C_10  and  N_11
REMARK    7  A    between atoms: N_14  and  C_15
REMARK    8  A    between atoms: C_21  and  C_22
REMARK    9  A    between atoms: N_25  and  C_26
REMARK                            x       y       z     vdW  Elec       q    Type
REMARK                         _______ _______ _______ _____ _____    ______ ____
ROOT
ATOM      1  C   UNL     1       4.195   3.548  19.144  0.00  0.00    +0.000 C 
ENDROOT
BRANCH   1   4
ATOM      2  C   UNL     1       4.565   4.081  16.779  0.00  0.00    +0.000 C 
ATOM      3  O   UNL     1       3.375   4.379  16.645  0.00  0.00    +0.000 OA
ATOM      4  N   UNL     1       5.046   3.617  17.981  0.00  0.00    +0.000 N 
ATOM      5  H   UNL     1       6.029   3.392  18.073  0.00  0.00    +0.000 HD
BRANCH   2   9
ATOM      6  C   UNL     1       6.940   3.982  12.332  0.00  0.00    +0.000 C 
ATOM      7  C   UNL     1       6.566   4.192  13.753  0.00  0.00    +0.000 A 
ATOM      8  C   UNL     1       5.524   3.581  14.472  0.00  0.00    +0.000 A 
ATOM      9  C   UNL     1       5.538   4.166  15.726  0.00  0.00    +0.000 A 
ATOM     10  N   UNL     1       6.659   4.995  15.737  0.00  0.00    +0.000 N 
ATOM     11  N   UNL     1       7.222   5.083  14.498  0.00  0.00    +0.000 NA
BRANCH  10  12
ATOM     12  C   UNL     1       7.245   5.702  16.825  0.00  0.00    +0.000 A 
ATOM     13  C   UNL     1       7.677   5.032  17.980  0.00  0.00    +0.000 A 
ATOM     14  C   UNL     1       8.155   5.757  19.071  0.00  0.00    +0.000 A 
ATOM     15  C   UNL     1       8.214   7.148  19.014  0.00  0.00    +0.000 A 
ATOM     16  C   UNL     1       7.838   7.814  17.849  0.00  0.00    +0.000 A 
ATOM     17  C   UNL     1       7.375   7.094  16.745  0.00  0.00    +0.000 A 
ENDBRANCH  10  12
ENDBRANCH   2   9
ENDBRANCH   1   4
BRANCH   1  18
ATOM     18  C   UNL     1       4.147   4.869  19.915  0.00  0.00    +0.000 C 
BRANCH  18  19
ATOM     19  C   UNL     1       2.694   5.342  20.001  0.00  0.00    +0.000 C 
BRANCH  19  20
ATOM     20  N   UNL     1       2.417   6.760  19.806  0.00  0.00    +0.000 NA
ATOM     21  C   UNL     1       1.334   7.276  20.661  0.00  0.00    +0.000 C 
ATOM     22  C   UNL     1       1.269   8.815  20.598  0.00  0.00    +0.000 C 
ATOM     23  N   UNL     1       1.063   9.235  19.198  0.00  0.00    +0.000 N 
ATOM     24  C   UNL     1       2.105   8.720  18.288  0.00  0.00    +0.000 C 
ATOM     25  C   UNL     1       2.178   7.167  18.404  0.00  0.00    +0.000 C 
BRANCH  23  26
ATOM     26  C   UNL     1       0.205  10.282  18.905  0.00  0.00    +0.000 A 
ATOM     27  C   UNL     1      -1.041  10.015  18.295  0.00  0.00    +0.000 A 
ATOM     28  C   UNL     1      -1.869  11.029  17.814  0.00  0.00    +0.000 A 
ATOM     29 CL   UNL     1      -3.332  10.627  17.001  0.00  0.00    +0.000 Cl
ATOM     30  C   UNL     1      -1.505  12.356  17.961  0.00  0.00    +0.000 A 
ATOM     31  C   UNL     1      -0.311  12.660  18.604  0.00  0.00    +0.000 A 
ATOM     32  C   UNL     1       0.555  11.644  19.068  0.00  0.00    +0.000 A 
ATOM     33  C   UNL     1       1.861  12.099  19.668  0.00  0.00    +0.000 C 
ENDBRANCH  23  26
ENDBRANCH  19  20
ENDBRANCH  18  19
ENDBRANCH   1  18
TORSDOF 7
ENDMDL
MODEL 2
REMARK VINA RESULT:      -8.1      2.931      5.088
REMARK  Name = 
REMARK  9 active torsions:
REMARK  status: ('A' for Active; 'I' for Inactive)
REMARK    1  A    between atoms: C_1  and  C_2
REMARK    2  A    between atoms: C_4  and  C_5
REMARK    3  A    between atoms: N_7  and  C_8
REMARK    4  A    between atoms: C_8  and  C_9
REMARK    5  A    between atoms: C_9  and  C_10
REMARK    6  A    between atoms: C_10  and  N_11
REMARK    7  A    between atoms: N_14  and  C_15
REMARK    8  A    between atoms: C_21  and  C_22
REMARK    9  A    between atoms: N_25  and  C_26
REMARK                            x       y       z     vdW  Elec       q    Type
REMARK                         _______ _______ _______ _____ _____    ______ ____
ROOT
ATOM      1  C   UNL     1       1.681   8.579  20.857  0.00  0.00    +0.000 C 
ENDROOT
BRANCH   1   4
ATOM      2  C   UNL     1       2.320   6.754  19.347  0.00  0.00    +0.000 C 
ATOM      3  O   UNL     1       2.503   7.558  18.429  0.00  0.00    +0.000 OA
ATOM      4  N   UNL     1       1.869   7.176  20.576  0.00  0.00    +0.000 N 
ATOM      5  H   UNL     1       1.740   6.501  21.319  0.00  0.00    +0.000 HD
BRANCH   2   9
ATOM      6  C   UNL     1       1.722   1.764  18.939  0.00  0.00    +0.000 C 
ATOM      7  C   UNL     1       2.267   3.144  18.977  0.00  0.00    +0.000 A 
ATOM      8  C   UNL     1       1.665   4.298  19.509  0.00  0.00    +0.000 A 
ATOM      9  C   UNL     1       2.533   5.339  19.230  0.00  0.00    +0.000 A 
ATOM     10  N   UNL     1       3.661   4.742  18.669  0.00  0.00    +0.000 N 
ATOM     11  N   UNL     1       3.450   3.417  18.425  0.00  0.00    +0.000 NA
BRANCH  10  12
ATOM     12  C   UNL     1       4.922   5.321  18.354  0.00  0.00    +0.000 A 
ATOM     13  C   UNL     1       5.172   5.878  17.091  0.00  0.00    +0.000 A 
ATOM     14  C   UNL     1       6.445   6.349  16.772  0.00  0.00    +0.000 A 
ATOM     15  C   UNL     1       7.471   6.277  17.712  0.00  0.00    +0.000 A 
ATOM     16  C   UNL     1       7.214   5.776  18.987  0.00  0.00    +0.000 A 
ATOM     17  C   UNL     1       5.937   5.318  19.319  0.00  0.00    +0.000 A 
ENDBRANCH  10  12
ENDBRANCH   2   9
ENDBRANCH   1   4
BRANCH   1  18
ATOM     18  C   UNL     1       0.367   8.859  21.590  0.00  0.00    +0.000 C 
BRANCH  18  19
ATOM     19  C   UNL     1      -0.347  10.025  20.904  0.00  0.00    +0.000 C 
BRANCH  19  20
ATOM     20  N   UNL     1       0.459  11.141  20.423  0.00  0.00    +0.000 NA
ATOM     21  C   UNL     1       0.283  12.380  21.202  0.00  0.00    +0.000 C 
ATOM     22  C   UNL     1       1.342  13.430  20.814  0.00  0.00    +0.000 C 
ATOM     23  N   UNL     1       1.239  13.712  19.368  0.00  0.00    +0.000 N 
ATOM     24  C   UNL     1       1.377  12.500  18.538  0.00  0.00    +0.000 C 
ATOM     25  C   UNL     1       0.324  11.440  18.981  0.00  0.00    +0.000 C 
BRANCH  23  26
ATOM     26  C   UNL     1       1.372  15.009  18.902  0.00  0.00    +0.000 A 
ATOM     27  C   UNL     1       0.234  15.839  18.807  0.00  0.00    +0.000 A 
ATOM     28  C   UNL     1       0.268  17.087  18.183  0.00  0.00    +0.000 A 
ATOM     29 CL   UNL     1      -1.179  18.006  18.025  0.00  0.00    +0.000 Cl
ATOM     30  C   UNL     1       1.454  17.574  17.664  0.00  0.00    +0.000 A 
ATOM     31  C   UNL     1       2.608  16.808  17.785  0.00  0.00    +0.000 A 
ATOM     32  C   UNL     1       2.584  15.529  18.386  0.00  0.00    +0.000 A 
ATOM     33  C   UNL     1       3.880  14.761  18.377  0.00  0.00    +0.000 C 
ENDBRANCH  23  26
ENDBRANCH  19  20
ENDBRANCH  18  19
ENDBRANCH   1  18
TORSDOF 7
ENDMDL
MODEL 3
REMARK VINA RESULT:      -8.1      4.093      6.114
REMARK  Name = 
REMARK  9 active torsions:
REMARK  status: ('A' for Active; 'I' for Inactive)
REMARK    1  A    between atoms: C_1  and  C_2
REMARK    2  A    between atoms: C_4  and  C_5
REMARK    3  A    between atoms: N_7  and  C_8
REMARK    4  A    between atoms: C_8  and  C_9
REMARK    5  A    between atoms: C_9  and  C_10
REMARK    6  A    between atoms: C_10  and  N_11
REMARK    7  A    between atoms: N_14  and  C_15
REMARK    8  A    between atoms: C_21  and  C_22
REMARK    9  A    between atoms: N_25  and  C_26
REMARK                            x       y       z     vdW  Elec       q    Type
REMARK                         _______ _______ _______ _____ _____    ______ ____
ROOT
ATOM      1  C   UNL     1       1.831   9.151  18.175  0.00  0.00    +0.000 C 
ENDROOT
BRANCH   1   4
ATOM      2  C   UNL     1       2.968   6.988  18.396  0.00  0.00    +0.000 C 
ATOM      3  O   UNL     1       3.671   7.240  17.415  0.00  0.00    +0.000 OA
ATOM      4  N   UNL     1       1.998   7.868  18.815  0.00  0.00    +0.000 N 
ATOM      5  H   UNL     1       1.443   7.648  19.633  0.00  0.00    +0.000 HD
BRANCH   2   9
ATOM      6  C   UNL     1       2.088   3.108  21.493  0.00  0.00    +0.000 C 
ATOM      7  C   UNL     1       2.653   4.033  20.480  0.00  0.00    +0.000 A 
ATOM      8  C   UNL     1       2.341   5.389  20.278  0.00  0.00    +0.000 A 
ATOM      9  C   UNL     1       3.071   5.783  19.170  0.00  0.00    +0.000 A 
ATOM     10  N   UNL     1       3.876   4.691  18.849  0.00  0.00    +0.000 N 
ATOM     11  N   UNL     1       3.543   3.595  19.588  0.00  0.00    +0.000 NA
BRANCH  10  12
ATOM     12  C   UNL     1       4.940   4.604  17.906  0.00  0.00    +0.000 A 
ATOM     13  C   UNL     1       4.721   4.126  16.606  0.00  0.00    +0.000 A 
ATOM     14  C   UNL     1       5.796   3.957  15.733  0.00  0.00    +0.000 A 
ATOM     15  C   UNL     1       7.088   4.270  16.148  0.00  0.00    +0.000 A 
ATOM     16  C   UNL     1       7.303   4.797  17.420  0.00  0.00    +0.000 A 
ATOM     17  C   UNL     1       6.230   4.987  18.294  0.00  0.00    +0.000 A 
ENDBRANCH  10  12
ENDBRANCH   2   9
ENDBRANCH   1   4
BRANCH   1  18
ATOM     18  C   UNL     1       0.635   9.930  18.725  0.00  0.00    +0.000 C 
BRANCH  18  19
ATOM     19  C   UNL     1       0.602   9.780  20.247  0.00  0.00    +0.000 C 
BRANCH  19  20
ATOM     20  N   UNL     1      -0.385  10.548  20.995  0.00  0.00    +0.000 NA
ATOM     21  C   UNL     1      -0.488  11.956  20.572  0.00  0.00    +0.000 C 
ATOM     22  C   UNL     1      -1.715  12.635  21.211  0.00  0.00    +0.000 C 
ATOM     23  N   UNL     1      -1.608  12.548  22.680  0.00  0.00    +0.000 N 
ATOM     24  C   UNL     1      -1.472  11.159  23.161  0.00  0.00    +0.000 C 
ATOM     25  C   UNL     1      -0.251  10.483  22.466  0.00  0.00    +0.000 C 
BRANCH  23  26
ATOM     26  C   UNL     1      -1.973  13.625  23.470  0.00  0.00    +0.000 A 
ATOM     27  C   UNL     1      -1.015  14.610  23.796  0.00  0.00    +0.000 A 
ATOM     28  C   UNL     1      -1.267  15.619  24.726  0.00  0.00    +0.000 A 
ATOM     29 CL   UNL     1      -0.022  16.732  25.141  0.00  0.00    +0.000 Cl
ATOM     30  C   UNL     1      -2.504  15.709  25.338  0.00  0.00    +0.000 A 
ATOM     31  C   UNL     1      -3.491  14.789  25.003  0.00  0.00    +0.000 A 
ATOM     32  C   UNL     1      -3.242  13.742  24.088  0.00  0.00    +0.000 A 
ATOM     33  C   UNL     1      -4.363  12.758  23.875  0.00  0.00    +0.000 C 
ENDBRANCH  23  26
ENDBRANCH  19  20
ENDBRANCH  18  19
ENDBRANCH   1  18
TORSDOF 7
ENDMDL
MODEL 4
REMARK VINA RESULT:      -8.1      3.453      5.046
REMARK  Name = 
REMARK  9 active torsions:
REMARK  status: ('A' for Active; 'I' for Inactive)
REMARK    1  A    between atoms: C_1  and  C_2
REMARK    2  A    between atoms: C_4  and  C_5
REMARK    3  A    between atoms: N_7  and  C_8
REMARK    4  A    between atoms: C_8  and  C_9
REMARK    5  A    between atoms: C_9  and  C_10
REMARK    6  A    between atoms: C_10  and  N_11
REMARK    7  A    between atoms: N_14  and  C_15
REMARK    8  A    between atoms: C_21  and  C_22
REMARK    9  A    between atoms: N_25  and  C_26
REMARK                            x       y       z     vdW  Elec       q    Type
REMARK                         _______ _______ _______ _____ _____    ______ ____
ROOT
ATOM      1  C   UNL     1       2.333   8.124  18.443  0.00  0.00    +0.000 C 
ENDROOT
BRANCH   1   4
ATOM      2  C   UNL     1       4.202   6.795  17.570  0.00  0.00    +0.000 C 
ATOM      3  O   UNL     1       4.986   7.373  18.327  0.00  0.00    +0.000 OA
ATOM      4  N   UNL     1       2.871   7.140  17.535  0.00  0.00    +0.000 N 
ATOM      5  H   UNL     1       2.242   6.642  16.917  0.00  0.00    +0.000 HD
BRANCH   2   9
ATOM      6  C   UNL     1       6.449   4.040  13.995  0.00  0.00    +0.000 C 
ATOM      7  C   UNL     1       5.624   4.511  15.135  0.00  0.00    +0.000 A 
ATOM      8  C   UNL     1       5.306   5.835  15.485  0.00  0.00    +0.000 A 
ATOM      9  C   UNL     1       4.584   5.750  16.663  0.00  0.00    +0.000 A 
ATOM     10  N   UNL     1       4.393   4.387  16.885  0.00  0.00    +0.000 N 
ATOM     11  N   UNL     1       5.116   3.636  16.005  0.00  0.00    +0.000 NA
BRANCH  10  12
ATOM     12  C   UNL     1       3.578   3.739  17.855  0.00  0.00    +0.000 A 
ATOM     13  C   UNL     1       4.116   3.274  19.064  0.00  0.00    +0.000 A 
ATOM     14  C   UNL     1       3.319   2.554  19.954  0.00  0.00    +0.000 A 
ATOM     15  C   UNL     1       1.983   2.304  19.649  0.00  0.00    +0.000 A 
ATOM     16  C   UNL     1       1.429   2.813  18.475  0.00  0.00    +0.000 A 
ATOM     17  C   UNL     1       2.216   3.549  17.587  0.00  0.00    +0.000 A 
ENDBRANCH  10  12
ENDBRANCH   2   9
ENDBRANCH   1   4
BRANCH   1  18
ATOM     18  C   UNL     1       1.457   9.159  17.735  0.00  0.00    +0.000 C 
BRANCH  18  19
ATOM     19  C   UNL     1       1.479  10.462  18.536  0.00  0.00    +0.000 C 
BRANCH  19  20
ATOM     20  N   UNL     1       0.461  10.660  19.561  0.00  0.00    +0.000 NA
ATOM     21  C   UNL     1      -0.348  11.876  19.368  0.00  0.00    +0.000 C 
ATOM     22  C   UNL     1      -1.560  11.888  20.320  0.00  0.00    +0.000 C 
ATOM     23  N   UNL     1      -1.082  11.806  21.714  0.00  0.00    +0.000 N 
ATOM     24  C   UNL     1      -0.238  10.619  21.959  0.00  0.00    +0.000 C 
ATOM     25  C   UNL     1       0.954  10.609  20.954  0.00  0.00    +0.000 C 
BRANCH  23  26
ATOM     26  C   UNL     1      -1.687  12.563  22.703  0.00  0.00    +0.000 A 
ATOM     27  C   UNL     1      -2.863  12.089  23.326  0.00  0.00    +0.000 A 
ATOM     28  C   UNL     1      -3.617  12.877  24.196  0.00  0.00    +0.000 A 
ATOM     29 CL   UNL     1      -5.088  12.266  24.848  0.00  0.00    +0.000 Cl
ATOM     30  C   UNL     1      -3.203  14.159  24.512  0.00  0.00    +0.000 A 
ATOM     31  C   UNL     1      -2.022  14.641  23.960  0.00  0.00    +0.000 A 
ATOM     32  C   UNL     1      -1.264  13.868  23.053  0.00  0.00    +0.000 A 
ATOM     33  C   UNL     1      -0.052  14.535  22.455  0.00  0.00    +0.000 C 
ENDBRANCH  23  26
ENDBRANCH  19  20
ENDBRANCH  18  19
ENDBRANCH   1  18
TORSDOF 7
ENDMDL
MODEL 5
REMARK VINA RESULT:      -8.0      5.945      8.035
REMARK  Name = 
REMARK  9 active torsions:
REMARK  status: ('A' for Active; 'I' for Inactive)
REMARK    1  A    between atoms: C_1  and  C_2
REMARK    2  A    between atoms: C_4  and  C_5
REMARK    3  A    between atoms: N_7  and  C_8
REMARK    4  A    between atoms: C_8  and  C_9
REMARK    5  A    between atoms: C_9  and  C_10
REMARK    6  A    between atoms: C_10  and  N_11
REMARK    7  A    between atoms: N_14  and  C_15
REMARK    8  A    between atoms: C_21  and  C_22
REMARK    9  A    between atoms: N_25  and  C_26
REMARK                            x       y       z     vdW  Elec       q    Type
REMARK                         _______ _______ _______ _____ _____    ______ ____
ROOT
ATOM      1  C   UNL     1       8.269   8.026  18.110  0.00  0.00    +0.000 C 
ENDROOT
BRANCH   1   4
ATOM      2  C   UNL     1       7.301   5.973  17.179  0.00  0.00    +0.000 C 
ATOM      3  O   UNL     1       7.583   5.355  18.209  0.00  0.00    +0.000 OA
ATOM      4  N   UNL     1       7.647   7.296  17.032  0.00  0.00    +0.000 N 
ATOM      5  H   UNL     1       7.392   7.788  16.184  0.00  0.00    +0.000 HD
BRANCH   2   9
ATOM      6  C   UNL     1       6.168   3.566  12.895  0.00  0.00    +0.000 C 
ATOM      7  C   UNL     1       6.116   4.268  14.202  0.00  0.00    +0.000 A 
ATOM      8  C   UNL     1       7.134   5.011  14.826  0.00  0.00    +0.000 A 
ATOM      9  C   UNL     1       6.623   5.393  16.054  0.00  0.00    +0.000 A 
ATOM     10  N   UNL     1       5.293   4.976  16.049  0.00  0.00    +0.000 N 
ATOM     11  N   UNL     1       5.020   4.203  14.959  0.00  0.00    +0.000 NA
BRANCH  10  12
ATOM     12  C   UNL     1       4.258   5.257  16.986  0.00  0.00    +0.000 A 
ATOM     13  C   UNL     1       4.035   6.560  17.455  0.00  0.00    +0.000 A 
ATOM     14  C   UNL     1       3.083   6.794  18.446  0.00  0.00    +0.000 A 
ATOM     15  C   UNL     1       2.343   5.735  18.966  0.00  0.00    +0.000 A 
ATOM     16  C   UNL     1       2.521   4.446  18.464  0.00  0.00    +0.000 A 
ATOM     17  C   UNL     1       3.461   4.207  17.459  0.00  0.00    +0.000 A 
ENDBRANCH  10  12
ENDBRANCH   2   9
ENDBRANCH   1   4
BRANCH   1  18
ATOM     18  C   UNL     1       7.947   9.521  18.068  0.00  0.00    +0.000 C 
BRANCH  18  19
ATOM     19  C   UNL     1       9.220  10.293  17.713  0.00  0.00    +0.000 C 
BRANCH  19  20
ATOM     20  N   UNL     1       9.649  11.364  18.604  0.00  0.00    +0.000 NA
ATOM     21  C   UNL     1       9.665  10.982  20.027  0.00  0.00    +0.000 C 
ATOM     22  C   UNL     1      10.369  12.058  20.878  0.00  0.00    +0.000 C 
ATOM     23  N   UNL     1       9.674  13.348  20.701  0.00  0.00    +0.000 N 
ATOM     24  C   UNL     1       9.600  13.767  19.287  0.00  0.00    +0.000 C 
ATOM     25  C   UNL     1       8.925  12.644  18.444  0.00  0.00    +0.000 C 
BRANCH  23  26
ATOM     26  C   UNL     1       9.476  14.186  21.785  0.00  0.00    +0.000 A 
ATOM     27  C   UNL     1      10.362  15.263  22.007  0.00  0.00    +0.000 A 
ATOM     28  C   UNL     1      10.326  16.032  23.171  0.00  0.00    +0.000 A 
ATOM     29 CL   UNL     1      11.494  17.273  23.415  0.00  0.00    +0.000 Cl
ATOM     30  C   UNL     1       9.374  15.782  24.143  0.00  0.00    +0.000 A 
ATOM     31  C   UNL     1       8.450  14.764  23.935  0.00  0.00    +0.000 A 
ATOM     32  C   UNL     1       8.493  13.955  22.778  0.00  0.00    +0.000 A 
ATOM     33  C   UNL     1       7.495  12.828  22.711  0.00  0.00    +0.000 C 
ENDBRANCH  23  26
ENDBRANCH  19  20
ENDBRANCH  18  19
ENDBRANCH   1  18
TORSDOF 7
ENDMDL
MODEL 6
REMARK VINA RESULT:      -8.0      3.630      5.456
REMARK  Name = 
REMARK  9 active torsions:
REMARK  status: ('A' for Active; 'I' for Inactive)
REMARK    1  A    between atoms: C_1  and  C_2
REMARK    2  A    between atoms: C_4  and  C_5
REMARK    3  A    between atoms: N_7  and  C_8
REMARK    4  A    between atoms: C_8  and  C_9
REMARK    5  A    between atoms: C_9  and  C_10
REMARK    6  A    between atoms: C_10  and  N_11
REMARK    7  A    between atoms: N_14  and  C_15
REMARK    8  A    between atoms: C_21  and  C_22
REMARK    9  A    between atoms: N_25  and  C_26
REMARK                            x       y       z     vdW  Elec       q    Type
REMARK                         _______ _______ _______ _____ _____    ______ ____
ROOT
ATOM      1  C   UNL     1       2.111   8.861  18.526  0.00  0.00    +0.000 C 
ENDROOT
BRANCH   1   4
ATOM      2  C   UNL     1       3.421   6.806  18.240  0.00  0.00    +0.000 C 
ATOM      3  O   UNL     1       3.331   6.563  19.446  0.00  0.00    +0.000 OA
ATOM      4  N   UNL     1       2.878   7.952  17.708  0.00  0.00    +0.000 N 
ATOM      5  H   UNL     1       2.950   8.124  16.712  0.00  0.00    +0.000 HD
BRANCH   2   9
ATOM      6  C   UNL     1       6.576   4.906  14.796  0.00  0.00    +0.000 C 
ATOM      7  C   UNL     1       5.531   5.095  15.833  0.00  0.00    +0.000 A 
ATOM      8  C   UNL     1       4.954   6.301  16.269  0.00  0.00    +0.000 A 
ATOM      9  C   UNL     1       4.094   5.957  17.297  0.00  0.00    +0.000 A 
ATOM     10  N   UNL     1       4.100   4.564  17.336  0.00  0.00    +0.000 N 
ATOM     11  N   UNL     1       5.053   4.049  16.508  0.00  0.00    +0.000 NA
BRANCH  10  12
ATOM     12  C   UNL     1       3.271   3.681  18.085  0.00  0.00    +0.000 A 
ATOM     13  C   UNL     1       1.934   3.458  17.725  0.00  0.00    +0.000 A 
ATOM     14  C   UNL     1       1.114   2.667  18.530  0.00  0.00    +0.000 A 
ATOM     15  C   UNL     1       1.625   2.090  19.691  0.00  0.00    +0.000 A 
ATOM     16  C   UNL     1       2.968   2.263  20.023  0.00  0.00    +0.000 A 
ATOM     17  C   UNL     1       3.799   3.039  19.212  0.00  0.00    +0.000 A 
ENDBRANCH  10  12
ENDBRANCH   2   9
ENDBRANCH   1   4
BRANCH   1  18
ATOM     18  C   UNL     1       1.263   9.824  17.694  0.00  0.00    +0.000 C 
BRANCH  18  19
ATOM     19  C   UNL     1      -0.103   9.990  18.364  0.00  0.00    +0.000 C 
BRANCH  19  20
ATOM     20  N   UNL     1      -0.250  11.019  19.386  0.00  0.00    +0.000 NA
ATOM     21  C   UNL     1      -0.154  10.505  20.764  0.00  0.00    +0.000 C 
ATOM     22  C   UNL     1      -0.054  11.662  21.778  0.00  0.00    +0.000 C 
ATOM     23  N   UNL     1      -1.236  12.534  21.636  0.00  0.00    +0.000 N 
ATOM     24  C   UNL     1      -1.401  13.055  20.264  0.00  0.00    +0.000 C 
ATOM     25  C   UNL     1      -1.454  11.866  19.258  0.00  0.00    +0.000 C 
BRANCH  23  26
ATOM     26  C   UNL     1      -1.852  13.059  22.760  0.00  0.00    +0.000 A 
ATOM     27  C   UNL     1      -3.001  12.428  23.286  0.00  0.00    +0.000 A 
ATOM     28  C   UNL     1      -3.769  13.001  24.301  0.00  0.00    +0.000 A 
ATOM     29 CL   UNL     1      -5.207  12.219  24.832  0.00  0.00    +0.000 Cl
ATOM     30  C   UNL     1      -3.395  14.210  24.860  0.00  0.00    +0.000 A 
ATOM     31  C   UNL     1      -2.240  14.835  24.405  0.00  0.00    +0.000 A 
ATOM     32  C   UNL     1      -1.469  14.285  23.356  0.00  0.00    +0.000 A 
ATOM     33  C   UNL     1      -0.291  15.101  22.892  0.00  0.00    +0.000 C 
ENDBRANCH  23  26
ENDBRANCH  19  20
ENDBRANCH  18  19
ENDBRANCH   1  18
TORSDOF 7
ENDMDL
MODEL 7
REMARK VINA RESULT:      -8.0      3.811      5.878
REMARK  Name = 
REMARK  9 active torsions:
REMARK  status: ('A' for Active; 'I' for Inactive)
REMARK    1  A    between atoms: C_1  and  C_2
REMARK    2  A    between atoms: C_4  and  C_5
REMARK    3  A    between atoms: N_7  and  C_8
REMARK    4  A    between atoms: C_8  and  C_9
REMARK    5  A    between atoms: C_9  and  C_10
REMARK    6  A    between atoms: C_10  and  N_11
REMARK    7  A    between atoms: N_14  and  C_15
REMARK    8  A    between atoms: C_21  and  C_22
REMARK    9  A    between atoms: N_25  and  C_26
REMARK                            x       y       z     vdW  Elec       q    Type
REMARK                         _______ _______ _______ _____ _____    ______ ____
ROOT
ATOM      1  C   UNL     1       2.137   8.741  17.776  0.00  0.00    +0.000 C 
ENDROOT
BRANCH   1   4
ATOM      2  C   UNL     1       2.990   6.442  17.847  0.00  0.00    +0.000 C 
ATOM      3  O   UNL     1       1.847   5.998  17.711  0.00  0.00    +0.000 OA
ATOM      4  N   UNL     1       3.216   7.796  17.932  0.00  0.00    +0.000 N 
ATOM      5  H   UNL     1       4.164   8.140  18.028  0.00  0.00    +0.000 HD
BRANCH   2   9
ATOM      6  C   UNL     1       7.715   4.684  17.765  0.00  0.00    +0.000 C 
ATOM      7  C   UNL     1       6.258   4.870  17.980  0.00  0.00    +0.000 A 
ATOM      8  C   UNL     1       5.401   5.788  17.348  0.00  0.00    +0.000 A 
ATOM      9  C   UNL     1       4.164   5.622  17.947  0.00  0.00    +0.000 A 
ATOM     10  N   UNL     1       4.310   4.533  18.805  0.00  0.00    +0.000 N 
ATOM     11  N   UNL     1       5.614   4.144  18.895  0.00  0.00    +0.000 NA
BRANCH  10  12
ATOM     12  C   UNL     1       3.315   3.826  19.538  0.00  0.00    +0.000 A 
ATOM     13  C   UNL     1       2.636   2.735  18.978  0.00  0.00    +0.000 A 
ATOM     14  C   UNL     1       1.597   2.122  19.678  0.00  0.00    +0.000 A 
ATOM     15  C   UNL     1       1.238   2.587  20.942  0.00  0.00    +0.000 A 
ATOM     16  C   UNL     1       1.947   3.635  21.526  0.00  0.00    +0.000 A 
ATOM     17  C   UNL     1       3.000   4.242  20.838  0.00  0.00    +0.000 A 
ENDBRANCH  10  12
ENDBRANCH   2   9
ENDBRANCH   1   4
BRANCH   1  18
ATOM     18  C   UNL     1       1.468   9.092  19.107  0.00  0.00    +0.000 C 
BRANCH  18  19
ATOM     19  C   UNL     1       0.487  10.244  18.881  0.00  0.00    +0.000 C 
BRANCH  19  20
ATOM     20  N   UNL     1       0.271  11.190  19.969  0.00  0.00    +0.000 NA
ATOM     21  C   UNL     1      -0.532  10.647  21.078  0.00  0.00    +0.000 C 
ATOM     22  C   UNL     1      -0.501  11.592  22.295  0.00  0.00    +0.000 C 
ATOM     23  N   UNL     1      -1.011  12.918  21.893  0.00  0.00    +0.000 N 
ATOM     24  C   UNL     1      -0.262  13.499  20.762  0.00  0.00    +0.000 C 
ATOM     25  C   UNL     1      -0.272  12.504  19.562  0.00  0.00    +0.000 C 
BRANCH  23  26
ATOM     26  C   UNL     1      -1.839  13.632  22.743  0.00  0.00    +0.000 A 
ATOM     27  C   UNL     1      -1.280  14.349  23.824  0.00  0.00    +0.000 A 
ATOM     28  C   UNL     1      -2.065  14.938  24.816  0.00  0.00    +0.000 A 
ATOM     29 CL   UNL     1      -1.313  15.718  26.153  0.00  0.00    +0.000 Cl
ATOM     30  C   UNL     1      -3.445  14.871  24.744  0.00  0.00    +0.000 A 
ATOM     31  C   UNL     1      -4.033  14.221  23.666  0.00  0.00    +0.000 A 
ATOM     32  C   UNL     1      -3.252  13.590  22.671  0.00  0.00    +0.000 A 
ATOM     33  C   UNL     1      -4.006  12.842  21.602  0.00  0.00    +0.000 C 
ENDBRANCH  23  26
ENDBRANCH  19  20
ENDBRANCH  18  19
ENDBRANCH   1  18
TORSDOF 7
ENDMDL
MODEL 8
REMARK VINA RESULT:      -8.0      3.702      5.432
REMARK  Name = 
REMARK  9 active torsions:
REMARK  status: ('A' for Active; 'I' for Inactive)
REMARK    1  A    between atoms: C_1  and  C_2
REMARK    2  A    between atoms: C_4  and  C_5
REMARK    3  A    between atoms: N_7  and  C_8
REMARK    4  A    between atoms: C_8  and  C_9
REMARK    5  A    between atoms: C_9  and  C_10
REMARK    6  A    between atoms: C_10  and  N_11
REMARK    7  A    between atoms: N_14  and  C_15
REMARK    8  A    between atoms: C_21  and  C_22
REMARK    9  A    between atoms: N_25  and  C_26
REMARK                            x       y       z     vdW  Elec       q    Type
REMARK                         _______ _______ _______ _____ _____    ______ ____
ROOT
ATOM      1  C   UNL     1       2.292   9.052  17.698  0.00  0.00    +0.000 C 
ENDROOT
BRANCH   1   4
ATOM      2  C   UNL     1       3.263   6.810  17.923  0.00  0.00    +0.000 C 
ATOM      3  O   UNL     1       4.400   7.286  17.925  0.00  0.00    +0.000 OA
ATOM      4  N   UNL     1       2.159   7.616  17.771  0.00  0.00    +0.000 N 
ATOM      5  H   UNL     1       1.234   7.206  17.787  0.00  0.00    +0.000 HD
BRANCH   2   9
ATOM      6  C   UNL     1       1.050   2.352  18.733  0.00  0.00    +0.000 C 
ATOM      7  C   UNL     1       1.979   3.441  18.342  0.00  0.00    +0.000 A 
ATOM      8  C   UNL     1       1.960   4.785  18.755  0.00  0.00    +0.000 A 
ATOM      9  C   UNL     1       2.978   5.408  18.055  0.00  0.00    +0.000 A 
ATOM     10  N   UNL     1       3.634   4.390  17.366  0.00  0.00    +0.000 N 
ATOM     11  N   UNL     1       2.958   3.210  17.465  0.00  0.00    +0.000 NA
BRANCH  10  12
ATOM     12  C   UNL     1       4.851   4.441  16.628  0.00  0.00    +0.000 A 
ATOM     13  C   UNL     1       6.095   4.425  17.275  0.00  0.00    +0.000 A 
ATOM     14  C   UNL     1       7.269   4.576  16.539  0.00  0.00    +0.000 A 
ATOM     15  C   UNL     1       7.210   4.734  15.156  0.00  0.00    +0.000 A 
ATOM     16  C   UNL     1       5.979   4.694  14.502  0.00  0.00    +0.000 A 
ATOM     17  C   UNL     1       4.800   4.525  15.231  0.00  0.00    +0.000 A 
ENDBRANCH  10  12
ENDBRANCH   2   9
ENDBRANCH   1   4
BRANCH   1  18
ATOM     18  C   UNL     1       1.093   9.782  18.306  0.00  0.00    +0.000 C 
BRANCH  18  19
ATOM     19  C   UNL     1       0.990   9.421  19.789  0.00  0.00    +0.000 C 
BRANCH  19  20
ATOM     20  N   UNL     1       0.639  10.475  20.733  0.00  0.00    +0.000 NA
ATOM     21  C   UNL     1      -0.490  10.129  21.616  0.00  0.00    +0.000 C 
ATOM     22  C   UNL     1      -0.639  11.163  22.750  0.00  0.00    +0.000 C 
ATOM     23  N   UNL     1      -0.837  12.502  22.162  0.00  0.00    +0.000 N 
ATOM     24  C   UNL     1       0.251  12.890  21.243  0.00  0.00    +0.000 C 
ATOM     25  C   UNL     1       0.408  11.806  20.133  0.00  0.00    +0.000 C 
BRANCH  23  26
ATOM     26  C   UNL     1      -1.746  13.382  22.727  0.00  0.00    +0.000 A 
ATOM     27  C   UNL     1      -1.390  14.106  23.886  0.00  0.00    +0.000 A 
ATOM     28  C   UNL     1      -2.312  14.868  24.604  0.00  0.00    +0.000 A 
ATOM     29 CL   UNL     1      -1.830  15.651  26.058  0.00  0.00    +0.000 Cl
ATOM     30  C   UNL     1      -3.621  14.971  24.167  0.00  0.00    +0.000 A 
ATOM     31  C   UNL     1      -3.996  14.316  23.000  0.00  0.00    +0.000 A 
ATOM     32  C   UNL     1      -3.082  13.514  22.279  0.00  0.00    +0.000 A 
ATOM     33  C   UNL     1      -3.632  12.784  21.081  0.00  0.00    +0.000 C 
ENDBRANCH  23  26
ENDBRANCH  19  20
ENDBRANCH  18  19
ENDBRANCH   1  18
TORSDOF 7
ENDMDL
MODEL 9
REMARK VINA RESULT:      -7.9      3.804      5.930
REMARK  Name = 
REMARK  9 active torsions:
REMARK  status: ('A' for Active; 'I' for Inactive)
REMARK    1  A    between atoms: C_1  and  C_2
REMARK    2  A    between atoms: C_4  and  C_5
REMARK    3  A    between atoms: N_7  and  C_8
REMARK    4  A    between atoms: C_8  and  C_9
REMARK    5  A    between atoms: C_9  and  C_10
REMARK    6  A    between atoms: C_10  and  N_11
REMARK    7  A    between atoms: N_14  and  C_15
REMARK    8  A    between atoms: C_21  and  C_22
REMARK    9  A    between atoms: N_25  and  C_26
REMARK                            x       y       z     vdW  Elec       q    Type
REMARK                         _______ _______ _______ _____ _____    ______ ____
ROOT
ATOM      1  C   UNL     1       1.687   8.828  17.498  0.00  0.00    +0.000 C 
ENDROOT
BRANCH   1   4
ATOM      2  C   UNL     1       3.067   6.941  18.241  0.00  0.00    +0.000 C 
ATOM      3  O   UNL     1       4.002   7.328  17.536  0.00  0.00    +0.000 OA
ATOM      4  N   UNL     1       1.864   7.607  18.246  0.00  0.00    +0.000 N 
ATOM      5  H   UNL     1       1.114   7.281  18.844  0.00  0.00    +0.000 HD
BRANCH   2   9
ATOM      6  C   UNL     1       2.032   3.278  21.548  0.00  0.00    +0.000 C 
ATOM      7  C   UNL     1       2.638   4.127  20.492  0.00  0.00    +0.000 A 
ATOM      8  C   UNL     1       2.364   5.475  20.203  0.00  0.00    +0.000 A 
ATOM      9  C   UNL     1       3.125   5.782  19.088  0.00  0.00    +0.000 A 
ATOM     10  N   UNL     1       3.908   4.654  18.849  0.00  0.00    +0.000 N 
ATOM     11  N   UNL     1       3.533   3.613  19.646  0.00  0.00    +0.000 NA
BRANCH  10  12
ATOM     12  C   UNL     1       4.985   4.484  17.934  0.00  0.00    +0.000 A 
ATOM     13  C   UNL     1       6.304   4.792  18.298  0.00  0.00    +0.000 A 
ATOM     14  C   UNL     1       7.328   4.712  17.355  0.00  0.00    +0.000 A 
ATOM     15  C   UNL     1       7.044   4.315  16.050  0.00  0.00    +0.000 A 
ATOM     16  C   UNL     1       5.744   3.954  15.697  0.00  0.00    +0.000 A 
ATOM     17  C   UNL     1       4.717   4.015  16.642  0.00  0.00    +0.000 A 
ENDBRANCH  10  12
ENDBRANCH   2   9
ENDBRANCH   1   4
BRANCH   1  18
ATOM     18  C   UNL     1       1.702  10.070  18.391  0.00  0.00    +0.000 C 
BRANCH  18  19
ATOM     19  C   UNL     1       0.264  10.412  18.790  0.00  0.00    +0.000 C 
BRANCH  19  20
ATOM     20  N   UNL     1       0.056  11.414  19.829  0.00  0.00    +0.000 NA
ATOM     21  C   UNL     1      -0.417  10.854  21.107  0.00  0.00    +0.000 C 
ATOM     22  C   UNL     1      -0.365  11.914  22.225  0.00  0.00    +0.000 C 
ATOM     23  N   UNL     1      -1.192  13.072  21.834  0.00  0.00    +0.000 N 
ATOM     24  C   UNL     1      -0.782  13.657  20.542  0.00  0.00    +0.000 C 
ATOM     25  C   UNL     1      -0.801  12.554  19.441  0.00  0.00    +0.000 C 
BRANCH  23  26
ATOM     26  C   UNL     1      -1.985  13.710  22.774  0.00  0.00    +0.000 A 
ATOM     27  C   UNL     1      -1.379  14.441  23.820  0.00  0.00    +0.000 A 
ATOM     28  C   UNL     1      -2.109  14.953  24.893  0.00  0.00    +0.000 A 
ATOM     29 CL   UNL     1      -1.293  15.756  26.178  0.00  0.00    +0.000 Cl
ATOM     30  C   UNL     1      -3.482  14.792  24.943  0.00  0.00    +0.000 A 
ATOM     31  C   UNL     1      -4.121  14.125  23.904  0.00  0.00    +0.000 A 
ATOM     32  C   UNL     1      -3.393  13.571  22.827  0.00  0.00    +0.000 A 
ATOM     33  C   UNL     1      -4.189  12.794  21.810  0.00  0.00    +0.000 C 
ENDBRANCH  23  26
ENDBRANCH  19  20
ENDBRANCH  18  19
ENDBRANCH   1  18
TORSDOF 7
ENDMDL
