MODEL 1
REMARK VINA RESULT:      -8.8      0.000      0.000
REMARK  Name = 
REMARK  7 active torsions:
REMARK  status: ('A' for Active; 'I' for Inactive)
REMARK    1  A    between atoms: C_2  and  O_3
REMARK    2  A    between atoms: C_2  and  C_4
REMARK    3  A    between atoms: C_6  and  C_7
REMARK    4  A    between atoms: C_11  and  C_12
REMARK    5  A    between atoms: C_12  and  O_13
REMARK    6  A    between atoms: O_13  and  C_14
REMARK    7  A    between atoms: N_20  and  C_21
REMARK                            x       y       z     vdW  Elec       q    Type
REMARK                         _______ _______ _______ _____ _____    ______ ____
ROOT
ATOM      1  C   UNL     1       4.214   3.706  17.174  0.00  0.00    +0.000 A 
ATOM      2  C   UNL     1       3.781   2.381  17.335  0.00  0.00    +0.000 A 
ATOM      3  C   UNL     1       2.833   2.037  18.302  0.00  0.00    +0.000 A 
ATOM      4  C   UNL     1       2.295   3.011  19.139  0.00  0.00    +0.000 A 
ATOM      5  C   UNL     1       2.694   4.344  19.016  0.00  0.00    +0.000 A 
ATOM      6  C   UNL     1       3.659   4.670  18.043  0.00  0.00    +0.000 A 
ENDROOT
BRANCH   1   9
ATOM      7  C   UNL     1       6.011   4.011  13.803  0.00  0.00    +0.000 A 
ATOM      8  C   UNL     1       5.095   3.621  14.801  0.00  0.00    +0.000 A 
ATOM      9  C   UNL     1       5.196   4.087  16.128  0.00  0.00    +0.000 A 
ATOM     10  C   UNL     1       6.268   4.946  16.419  0.00  0.00    +0.000 A 
ATOM     11  C   UNL     1       7.169   5.358  15.435  0.00  0.00    +0.000 A 
ATOM     12  C   UNL     1       7.039   4.899  14.127  0.00  0.00    +0.000 A 
ATOM     13 CL   UNL     1       8.195   5.488  12.987  0.00  0.00    +0.000 Cl
BRANCH   7  15
ATOM     14  O   UNL     1       6.736   2.805  11.893  0.00  0.00    +0.000 OA
ATOM     15  C   UNL     1       5.834   3.400  12.459  0.00  0.00    +0.000 C 
BRANCH  15  16
ATOM     16  O   UNL     1       4.589   3.481  11.951  0.00  0.00    +0.000 OA
ATOM     17  H   UNL     1       4.059   2.663  12.025  0.00  0.00    +0.000 HD
ENDBRANCH  15  16
ENDBRANCH   7  15
ENDBRANCH   1   9
BRANCH   5  18
ATOM     18  C   UNL     1       2.119   5.393  19.944  0.00  0.00    +0.000 C 
BRANCH  18  19
ATOM     19  O   UNL     1       2.692   6.655  19.623  0.00  0.00    +0.000 OA
BRANCH  19  20
ATOM     20  C   UNL     1       1.953   7.783  19.824  0.00  0.00    +0.000 A 
ATOM     21  C   UNL     1       1.876   8.592  18.676  0.00  0.00    +0.000 A 
ATOM     22  C   UNL     1       1.228   9.822  18.703  0.00  0.00    +0.000 A 
ATOM     23  C   UNL     1       0.636  10.203  19.893  0.00  0.00    +0.000 A 
ATOM     24  C   UNL     1      -0.062  11.476  20.103  0.00  0.00    +0.000 A 
ATOM     25  O   UNL     1      -0.110  12.338  19.234  0.00  0.00    +0.000 OA
ATOM     26  N   UNL     1      -0.623  11.524  21.369  0.00  0.00    +0.000 N 
ATOM     27  S   UNL     1      -0.334  10.113  22.318  0.00  0.00    +0.000 S 
ATOM     28  C   UNL     1       0.625   9.384  21.014  0.00  0.00    +0.000 A 
ATOM     29  C   UNL     1       1.307   8.167  21.009  0.00  0.00    +0.000 A 
BRANCH  26  30
ATOM     30  C   UNL     1      -1.591  12.558  21.788  0.00  0.00    +0.000 C 
ATOM     31  C   UNL     1      -2.971  12.534  21.095  0.00  0.00    +0.000 C 
ATOM     32  C   UNL     1      -3.625  12.782  22.463  0.00  0.00    +0.000 C 
ATOM     33  C   UNL     1      -2.336  12.262  23.119  0.00  0.00    +0.000 C 
ENDBRANCH  26  30
ENDBRANCH  19  20
ENDBRANCH  18  19
ENDBRANCH   5  18
TORSDOF 7
ENDMDL
MODEL 2
REMARK VINA RESULT:      -8.8      4.240     10.218
REMARK  Name = 
REMARK  7 active torsions:
REMARK  status: ('A' for Active; 'I' for Inactive)
REMARK    1  A    between atoms: C_2  and  O_3
REMARK    2  A    between atoms: C_2  and  C_4
REMARK    3  A    between atoms: C_6  and  C_7
REMARK    4  A    between atoms: C_11  and  C_12
REMARK    5  A    between atoms: C_12  and  O_13
REMARK    6  A    between atoms: O_13  and  C_14
REMARK    7  A    between atoms: N_20  and  C_21
REMARK                            x       y       z     vdW  Elec       q    Type
REMARK                         _______ _______ _______ _____ _____    ______ ____
ROOT
ATOM      1  C   UNL     1      -1.235  10.704  19.724  0.00  0.00    +0.000 A 
ATOM      2  C   UNL     1      -1.367  11.807  20.583  0.00  0.00    +0.000 A 
ATOM      3  C   UNL     1      -0.611  11.914  21.752  0.00  0.00    +0.000 A 
ATOM      4  C   UNL     1       0.296  10.916  22.098  0.00  0.00    +0.000 A 
ATOM      5  C   UNL     1       0.463   9.799  21.276  0.00  0.00    +0.000 A 
ATOM      6  C   UNL     1      -0.316   9.703  20.107  0.00  0.00    +0.000 A 
ENDROOT
BRANCH   1   9
ATOM      7  C   UNL     1      -3.999  11.113  17.101  0.00  0.00    +0.000 A 
ATOM      8  C   UNL     1      -3.280  11.189  18.312  0.00  0.00    +0.000 A 
ATOM      9  C   UNL     1      -2.010  10.597  18.463  0.00  0.00    +0.000 A 
ATOM     10  C   UNL     1      -1.497   9.905  17.354  0.00  0.00    +0.000 A 
ATOM     11  C   UNL     1      -2.187   9.842  16.142  0.00  0.00    +0.000 A 
ATOM     12  C   UNL     1      -3.433  10.450  16.010  0.00  0.00    +0.000 A 
ATOM     13 CL   UNL     1      -4.189  10.326  14.463  0.00  0.00    +0.000 Cl
BRANCH   7  15
ATOM     14  O   UNL     1      -5.585  12.779  16.523  0.00  0.00    +0.000 OA
ATOM     15  C   UNL     1      -5.354  11.723  17.090  0.00  0.00    +0.000 C 
BRANCH  15  16
ATOM     16  O   UNL     1      -6.319  10.989  17.677  0.00  0.00    +0.000 OA
ATOM     17  H   UNL     1      -6.564  10.172  17.200  0.00  0.00    +0.000 HD
ENDBRANCH  15  16
ENDBRANCH   7  15
ENDBRANCH   1   9
BRANCH   5  18
ATOM     18  C   UNL     1       1.438   8.710  21.671  0.00  0.00    +0.000 C 
BRANCH  18  19
ATOM     19  O   UNL     1       0.931   7.458  21.226  0.00  0.00    +0.000 OA
BRANCH  19  20
ATOM     20  C   UNL     1       1.713   6.681  20.422  0.00  0.00    +0.000 A 
ATOM     21  C   UNL     1       1.530   5.306  20.654  0.00  0.00    +0.000 A 
ATOM     22  C   UNL     1       2.290   4.354  19.984  0.00  0.00    +0.000 A 
ATOM     23  C   UNL     1       3.212   4.811  19.060  0.00  0.00    +0.000 A 
ATOM     24  C   UNL     1       4.112   3.948  18.289  0.00  0.00    +0.000 A 
ATOM     25  O   UNL     1       4.156   2.736  18.465  0.00  0.00    +0.000 OA
ATOM     26  N   UNL     1       4.850   4.695  17.384  0.00  0.00    +0.000 N 
ATOM     27  S   UNL     1       4.517   6.386  17.433  0.00  0.00    +0.000 S 
ATOM     28  C   UNL     1       3.351   6.158  18.753  0.00  0.00    +0.000 A 
ATOM     29  C   UNL     1       2.621   7.123  19.448  0.00  0.00    +0.000 A 
BRANCH  26  30
ATOM     30  C   UNL     1       5.655   4.092  16.302  0.00  0.00    +0.000 C 
ATOM     31  C   UNL     1       5.270   4.479  14.857  0.00  0.00    +0.000 C 
ATOM     32  C   UNL     1       6.765   4.628  14.535  0.00  0.00    +0.000 C 
ATOM     33  C   UNL     1       7.026   4.776  16.041  0.00  0.00    +0.000 C 
ENDBRANCH  26  30
ENDBRANCH  19  20
ENDBRANCH  18  19
ENDBRANCH   5  18
TORSDOF 7
ENDMDL
MODEL 3
REMARK VINA RESULT:      -8.4      2.826      5.252
REMARK  Name = 
REMARK  7 active torsions:
REMARK  status: ('A' for Active; 'I' for Inactive)
REMARK    1  A    between atoms: C_2  and  O_3
REMARK    2  A    between atoms: C_2  and  C_4
REMARK    3  A    between atoms: C_6  and  C_7
REMARK    4  A    between atoms: C_11  and  C_12
REMARK    5  A    between atoms: C_12  and  O_13
REMARK    6  A    between atoms: O_13  and  C_14
REMARK    7  A    between atoms: N_20  and  C_21
REMARK                            x       y       z     vdW  Elec       q    Type
REMARK                         _______ _______ _______ _____ _____    ______ ____
ROOT
ATOM      1  C   UNL     1       2.247   7.532  19.198  0.00  0.00    +0.000 A 
ATOM      2  C   UNL     1       1.866   7.187  20.504  0.00  0.00    +0.000 A 
ATOM      3  C   UNL     1       1.064   8.032  21.276  0.00  0.00    +0.000 A 
ATOM      4  C   UNL     1       0.627   9.250  20.763  0.00  0.00    +0.000 A 
ATOM      5  C   UNL     1       0.979   9.637  19.468  0.00  0.00    +0.000 A 
ATOM      6  C   UNL     1       1.797   8.778  18.709  0.00  0.00    +0.000 A 
ENDROOT
BRANCH   1   9
ATOM      7  C   UNL     1       3.728   4.367  17.624  0.00  0.00    +0.000 A 
ATOM      8  C   UNL     1       2.968   5.224  18.447  0.00  0.00    +0.000 A 
ATOM      9  C   UNL     1       3.070   6.627  18.358  0.00  0.00    +0.000 A 
ATOM     10  C   UNL     1       3.985   7.139  17.422  0.00  0.00    +0.000 A 
ATOM     11  C   UNL     1       4.726   6.303  16.586  0.00  0.00    +0.000 A 
ATOM     12  C   UNL     1       4.595   4.919  16.679  0.00  0.00    +0.000 A 
ATOM     13 CL   UNL     1       5.545   3.982  15.583  0.00  0.00    +0.000 Cl
BRANCH   7  15
ATOM     14  O   UNL     1       2.673   2.261  17.357  0.00  0.00    +0.000 OA
ATOM     15  C   UNL     1       3.576   2.908  17.859  0.00  0.00    +0.000 C 
BRANCH  15  16
ATOM     16  O   UNL     1       4.552   2.341  18.596  0.00  0.00    +0.000 OA
ATOM     17  H   UNL     1       4.291   1.525  19.068  0.00  0.00    +0.000 HD
ENDBRANCH  15  16
ENDBRANCH   7  15
ENDBRANCH   1   9
BRANCH   5  18
ATOM     18  C   UNL     1       0.514  10.972  18.926  0.00  0.00    +0.000 C 
BRANCH  18  19
ATOM     19  O   UNL     1       0.484  11.914  19.991  0.00  0.00    +0.000 OA
BRANCH  19  20
ATOM     20  C   UNL     1      -0.698  12.148  20.628  0.00  0.00    +0.000 A 
ATOM     21  C   UNL     1      -0.588  12.054  22.027  0.00  0.00    +0.000 A 
ATOM     22  C   UNL     1      -1.702  12.188  22.849  0.00  0.00    +0.000 A 
ATOM     23  C   UNL     1      -2.915  12.447  22.239  0.00  0.00    +0.000 A 
ATOM     24  C   UNL     1      -4.189  12.589  22.951  0.00  0.00    +0.000 A 
ATOM     25  O   UNL     1      -4.277  12.415  24.161  0.00  0.00    +0.000 OA
ATOM     26  N   UNL     1      -5.205  12.935  22.075  0.00  0.00    +0.000 N 
ATOM     27  S   UNL     1      -4.695  13.083  20.434  0.00  0.00    +0.000 S 
ATOM     28  C   UNL     1      -3.034  12.629  20.868  0.00  0.00    +0.000 A 
ATOM     29  C   UNL     1      -1.930  12.457  20.031  0.00  0.00    +0.000 A 
BRANCH  26  30
ATOM     30  C   UNL     1      -6.539  13.389  22.518  0.00  0.00    +0.000 C 
ATOM     31  C   UNL     1      -7.290  12.467  23.504  0.00  0.00    +0.000 C 
ATOM     32  C   UNL     1      -7.695  13.712  24.307  0.00  0.00    +0.000 C 
ATOM     33  C   UNL     1      -6.529  14.460  23.644  0.00  0.00    +0.000 C 
ENDBRANCH  26  30
ENDBRANCH  19  20
ENDBRANCH  18  19
ENDBRANCH   5  18
TORSDOF 7
ENDMDL
MODEL 4
REMARK VINA RESULT:      -8.4      1.430      1.912
REMARK  Name = 
REMARK  7 active torsions:
REMARK  status: ('A' for Active; 'I' for Inactive)
REMARK    1  A    between atoms: C_2  and  O_3
REMARK    2  A    between atoms: C_2  and  C_4
REMARK    3  A    between atoms: C_6  and  C_7
REMARK    4  A    between atoms: C_11  and  C_12
REMARK    5  A    between atoms: C_12  and  O_13
REMARK    6  A    between atoms: O_13  and  C_14
REMARK    7  A    between atoms: N_20  and  C_21
REMARK                            x       y       z     vdW  Elec       q    Type
REMARK                         _______ _______ _______ _____ _____    ______ ____
ROOT
ATOM      1  C   UNL     1       4.277   3.871  17.204  0.00  0.00    +0.000 A 
ATOM      2  C   UNL     1       3.852   2.555  17.443  0.00  0.00    +0.000 A 
ATOM      3  C   UNL     1       2.915   2.261  18.436  0.00  0.00    +0.000 A 
ATOM      4  C   UNL     1       2.381   3.277  19.223  0.00  0.00    +0.000 A 
ATOM      5  C   UNL     1       2.772   4.603  19.023  0.00  0.00    +0.000 A 
ATOM      6  C   UNL     1       3.726   4.879  18.025  0.00  0.00    +0.000 A 
ENDROOT
BRANCH   1   9
ATOM      7  C   UNL     1       6.016   4.036  13.793  0.00  0.00    +0.000 A 
ATOM      8  C   UNL     1       5.110   3.697  14.819  0.00  0.00    +0.000 A 
ATOM      9  C   UNL     1       5.248   4.198  16.130  0.00  0.00    +0.000 A 
ATOM     10  C   UNL     1       6.346   5.038  16.376  0.00  0.00    +0.000 A 
ATOM     11  C   UNL     1       7.237   5.400  15.364  0.00  0.00    +0.000 A 
ATOM     12  C   UNL     1       7.071   4.907  14.072  0.00  0.00    +0.000 A 
ATOM     13 CL   UNL     1       8.218   5.435  12.894  0.00  0.00    +0.000 Cl
BRANCH   7  15
ATOM     14  O   UNL     1       6.672   2.753  11.909  0.00  0.00    +0.000 OA
ATOM     15  C   UNL     1       5.798   3.392  12.471  0.00  0.00    +0.000 C 
BRANCH  15  16
ATOM     16  O   UNL     1       4.547   3.496  11.981  0.00  0.00    +0.000 OA
ATOM     17  H   UNL     1       4.494   3.725  11.032  0.00  0.00    +0.000 HD
ENDBRANCH  15  16
ENDBRANCH   7  15
ENDBRANCH   1   9
BRANCH   5  18
ATOM     18  C   UNL     1       2.200   5.700  19.897  0.00  0.00    +0.000 C 
BRANCH  18  19
ATOM     19  O   UNL     1       2.253   6.929  19.185  0.00  0.00    +0.000 OA
BRANCH  19  20
ATOM     20  C   UNL     1       1.721   8.045  19.760  0.00  0.00    +0.000 A 
ATOM     21  C   UNL     1       1.523   7.901  21.144  0.00  0.00    +0.000 A 
ATOM     22  C   UNL     1       0.922   8.905  21.896  0.00  0.00    +0.000 A 
ATOM     23  C   UNL     1       0.553  10.061  21.234  0.00  0.00    +0.000 A 
ATOM     24  C   UNL     1      -0.115  11.203  21.866  0.00  0.00    +0.000 A 
ATOM     25  O   UNL     1      -0.462  11.180  23.041  0.00  0.00    +0.000 OA
ATOM     26  N   UNL     1      -0.270  12.242  20.962  0.00  0.00    +0.000 N 
ATOM     27  S   UNL     1       0.341  11.898  19.387  0.00  0.00    +0.000 S 
ATOM     28  C   UNL     1       0.815  10.261  19.885  0.00  0.00    +0.000 A 
ATOM     29  C   UNL     1       1.381   9.245  19.114  0.00  0.00    +0.000 A 
BRANCH  26  30
ATOM     30  C   UNL     1      -0.678  13.606  21.357  0.00  0.00    +0.000 C 
ATOM     31  C   UNL     1       0.431  14.524  21.917  0.00  0.00    +0.000 C 
ATOM     32  C   UNL     1      -0.138  15.671  21.068  0.00  0.00    +0.000 C 
ATOM     33  C   UNL     1      -0.821  14.616  20.185  0.00  0.00    +0.000 C 
ENDBRANCH  26  30
ENDBRANCH  19  20
ENDBRANCH  18  19
ENDBRANCH   5  18
TORSDOF 7
ENDMDL
MODEL 5
REMARK VINA RESULT:      -8.3      4.733     11.811
REMARK  Name = 
REMARK  7 active torsions:
REMARK  status: ('A' for Active; 'I' for Inactive)
REMARK    1  A    between atoms: C_2  and  O_3
REMARK    2  A    between atoms: C_2  and  C_4
REMARK    3  A    between atoms: C_6  and  C_7
REMARK    4  A    between atoms: C_11  and  C_12
REMARK    5  A    between atoms: C_12  and  O_13
REMARK    6  A    between atoms: O_13  and  C_14
REMARK    7  A    between atoms: N_20  and  C_21
REMARK                            x       y       z     vdW  Elec       q    Type
REMARK                         _______ _______ _______ _____ _____    ______ ____
ROOT
ATOM      1  C   UNL     1      -0.687  11.609  21.290  0.00  0.00    +0.000 A 
ATOM      2  C   UNL     1      -0.142  12.084  20.087  0.00  0.00    +0.000 A 
ATOM      3  C   UNL     1       0.450  11.219  19.164  0.00  0.00    +0.000 A 
ATOM      4  C   UNL     1       0.519   9.853  19.423  0.00  0.00    +0.000 A 
ATOM      5  C   UNL     1      -0.010   9.332  20.606  0.00  0.00    +0.000 A 
ATOM      6  C   UNL     1      -0.594  10.221  21.529  0.00  0.00    +0.000 A 
ENDROOT
BRANCH   1   9
ATOM      7  C   UNL     1      -3.205  13.059  23.789  0.00  0.00    +0.000 A 
ATOM      8  C   UNL     1      -2.596  12.211  22.842  0.00  0.00    +0.000 A 
ATOM      9  C   UNL     1      -1.348  12.516  22.261  0.00  0.00    +0.000 A 
ATOM     10  C   UNL     1      -0.743  13.721  22.655  0.00  0.00    +0.000 A 
ATOM     11  C   UNL     1      -1.323  14.559  23.608  0.00  0.00    +0.000 A 
ATOM     12  C   UNL     1      -2.549  14.228  24.182  0.00  0.00    +0.000 A 
ATOM     13 CL   UNL     1      -3.166  15.325  25.365  0.00  0.00    +0.000 Cl
BRANCH   7  15
ATOM     14  O   UNL     1      -5.517  12.595  23.538  0.00  0.00    +0.000 OA
ATOM     15  C   UNL     1      -4.549  12.658  24.279  0.00  0.00    +0.000 C 
BRANCH  15  16
ATOM     16  O   UNL     1      -4.602  12.291  25.574  0.00  0.00    +0.000 OA
ATOM     17  H   UNL     1      -4.684  13.030  26.209  0.00  0.00    +0.000 HD
ENDBRANCH  15  16
ENDBRANCH   7  15
ENDBRANCH   1   9
BRANCH   5  18
ATOM     18  C   UNL     1       0.086   7.848  20.888  0.00  0.00    +0.000 C 
BRANCH  18  19
ATOM     19  O   UNL     1       1.445   7.517  21.144  0.00  0.00    +0.000 OA
BRANCH  19  20
ATOM     20  C   UNL     1       2.100   6.702  20.268  0.00  0.00    +0.000 A 
ATOM     21  C   UNL     1       1.754   5.349  20.423  0.00  0.00    +0.000 A 
ATOM     22  C   UNL     1       2.370   4.355  19.670  0.00  0.00    +0.000 A 
ATOM     23  C   UNL     1       3.315   4.754  18.743  0.00  0.00    +0.000 A 
ATOM     24  C   UNL     1       4.079   3.838  17.889  0.00  0.00    +0.000 A 
ATOM     25  O   UNL     1       3.976   2.621  17.991  0.00  0.00    +0.000 OA
ATOM     26  N   UNL     1       4.878   4.545  17.005  0.00  0.00    +0.000 N 
ATOM     27  S   UNL     1       4.760   6.257  17.167  0.00  0.00    +0.000 S 
ATOM     28  C   UNL     1       3.613   6.090  18.513  0.00  0.00    +0.000 A 
ATOM     29  C   UNL     1       3.029   7.091  19.290  0.00  0.00    +0.000 A 
BRANCH  26  30
ATOM     30  C   UNL     1       5.570   3.918  15.860  0.00  0.00    +0.000 C 
ATOM     31  C   UNL     1       5.182   4.427  14.455  0.00  0.00    +0.000 C 
ATOM     32  C   UNL     1       6.671   4.426  14.079  0.00  0.00    +0.000 C 
ATOM     33  C   UNL     1       7.000   4.458  15.579  0.00  0.00    +0.000 C 
ENDBRANCH  26  30
ENDBRANCH  19  20
ENDBRANCH  18  19
ENDBRANCH   5  18
TORSDOF 7
ENDMDL
MODEL 6
REMARK VINA RESULT:      -8.1      2.577      3.692
REMARK  Name = 
REMARK  7 active torsions:
REMARK  status: ('A' for Active; 'I' for Inactive)
REMARK    1  A    between atoms: C_2  and  O_3
REMARK    2  A    between atoms: C_2  and  C_4
REMARK    3  A    between atoms: C_6  and  C_7
REMARK    4  A    between atoms: C_11  and  C_12
REMARK    5  A    between atoms: C_12  and  O_13
REMARK    6  A    between atoms: O_13  and  C_14
REMARK    7  A    between atoms: N_20  and  C_21
REMARK                            x       y       z     vdW  Elec       q    Type
REMARK                         _______ _______ _______ _____ _____    ______ ____
ROOT
ATOM      1  C   UNL     1       3.085   4.741  18.746  0.00  0.00    +0.000 A 
ATOM      2  C   UNL     1       2.350   3.550  18.853  0.00  0.00    +0.000 A 
ATOM      3  C   UNL     1       1.268   3.439  19.730  0.00  0.00    +0.000 A 
ATOM      4  C   UNL     1       0.897   4.516  20.531  0.00  0.00    +0.000 A 
ATOM      5  C   UNL     1       1.598   5.722  20.459  0.00  0.00    +0.000 A 
ATOM      6  C   UNL     1       2.692   5.812  19.577  0.00  0.00    +0.000 A 
ENDROOT
BRANCH   1   9
ATOM      7  C   UNL     1       6.404   5.821  17.163  0.00  0.00    +0.000 A 
ATOM      8  C   UNL     1       5.318   5.717  18.055  0.00  0.00    +0.000 A 
ATOM      9  C   UNL     1       4.214   4.880  17.793  0.00  0.00    +0.000 A 
ATOM     10  C   UNL     1       4.235   4.165  16.584  0.00  0.00    +0.000 A 
ATOM     11  C   UNL     1       5.314   4.241  15.702  0.00  0.00    +0.000 A 
ATOM     12  C   UNL     1       6.402   5.061  15.991  0.00  0.00    +0.000 A 
ATOM     13 CL   UNL     1       7.690   5.064  14.841  0.00  0.00    +0.000 Cl
BRANCH   7  15
ATOM     14  O   UNL     1       7.719   7.769  16.843  0.00  0.00    +0.000 OA
ATOM     15  C   UNL     1       7.475   6.786  17.524  0.00  0.00    +0.000 C 
BRANCH  15  16
ATOM     16  O   UNL     1       8.098   6.541  18.693  0.00  0.00    +0.000 OA
ATOM     17  H   UNL     1       8.810   5.873  18.649  0.00  0.00    +0.000 HD
ENDBRANCH  15  16
ENDBRANCH   7  15
ENDBRANCH   1   9
BRANCH   5  18
ATOM     18  C   UNL     1       1.199   6.881  21.348  0.00  0.00    +0.000 C 
BRANCH  18  19
ATOM     19  O   UNL     1       1.346   8.092  20.617  0.00  0.00    +0.000 OA
BRANCH  19  20
ATOM     20  C   UNL     1       0.757   9.225  21.095  0.00  0.00    +0.000 A 
ATOM     21  C   UNL     1      -0.019   8.989  22.244  0.00  0.00    +0.000 A 
ATOM     22  C   UNL     1      -0.757  10.007  22.837  0.00  0.00    +0.000 A 
ATOM     23  C   UNL     1      -0.675  11.266  22.271  0.00  0.00    +0.000 A 
ATOM     24  C   UNL     1      -1.408  12.442  22.750  0.00  0.00    +0.000 A 
ATOM     25  O   UNL     1      -2.216  12.371  23.669  0.00  0.00    +0.000 OA
ATOM     26  N   UNL     1      -1.046  13.571  22.033  0.00  0.00    +0.000 N 
ATOM     27  S   UNL     1       0.125  13.275  20.802  0.00  0.00    +0.000 S 
ATOM     28  C   UNL     1       0.150  11.541  21.188  0.00  0.00    +0.000 A 
ATOM     29  C   UNL     1       0.864  10.519  20.562  0.00  0.00    +0.000 A 
BRANCH  26  30
ATOM     30  C   UNL     1      -1.418  14.942  22.437  0.00  0.00    +0.000 C 
ATOM     31  C   UNL     1      -0.845  15.447  23.780  0.00  0.00    +0.000 C 
ATOM     32  C   UNL     1      -0.543  16.794  23.106  0.00  0.00    +0.000 C 
ATOM     33  C   UNL     1      -0.607  16.075  21.750  0.00  0.00    +0.000 C 
ENDBRANCH  26  30
ENDBRANCH  19  20
ENDBRANCH  18  19
ENDBRANCH   5  18
TORSDOF 7
ENDMDL
MODEL 7
REMARK VINA RESULT:      -8.1      4.755     11.872
REMARK  Name = 
REMARK  7 active torsions:
REMARK  status: ('A' for Active; 'I' for Inactive)
REMARK    1  A    between atoms: C_2  and  O_3
REMARK    2  A    between atoms: C_2  and  C_4
REMARK    3  A    between atoms: C_6  and  C_7
REMARK    4  A    between atoms: C_11  and  C_12
REMARK    5  A    between atoms: C_12  and  O_13
REMARK    6  A    between atoms: O_13  and  C_14
REMARK    7  A    between atoms: N_20  and  C_21
REMARK                            x       y       z     vdW  Elec       q    Type
REMARK                         _______ _______ _______ _____ _____    ______ ____
ROOT
ATOM      1  C   UNL     1      -1.093  11.889  21.019  0.00  0.00    +0.000 A 
ATOM      2  C   UNL     1      -0.270  12.608  20.138  0.00  0.00    +0.000 A 
ATOM      3  C   UNL     1       0.997  12.141  19.779  0.00  0.00    +0.000 A 
ATOM      4  C   UNL     1       1.478  10.942  20.297  0.00  0.00    +0.000 A 
ATOM      5  C   UNL     1       0.695  10.190  21.177  0.00  0.00    +0.000 A 
ATOM      6  C   UNL     1      -0.574  10.682  21.536  0.00  0.00    +0.000 A 
ENDROOT
BRANCH   1   9
ATOM      7  C   UNL     1      -4.187  12.868  23.057  0.00  0.00    +0.000 A 
ATOM      8  C   UNL     1      -2.906  12.388  22.714  0.00  0.00    +0.000 A 
ATOM      9  C   UNL     1      -2.453  12.360  21.380  0.00  0.00    +0.000 A 
ATOM     10  C   UNL     1      -3.347  12.815  20.396  0.00  0.00    +0.000 A 
ATOM     11  C   UNL     1      -4.609  13.314  20.724  0.00  0.00    +0.000 A 
ATOM     12  C   UNL     1      -5.029  13.349  22.051  0.00  0.00    +0.000 A 
ATOM     13 CL   UNL     1      -6.599  14.003  22.344  0.00  0.00    +0.000 Cl
BRANCH   7  15
ATOM     14  O   UNL     1      -5.354  11.947  24.905  0.00  0.00    +0.000 OA
ATOM     15  C   UNL     1      -4.570  12.785  24.490  0.00  0.00    +0.000 C 
BRANCH  15  16
ATOM     16  O   UNL     1      -3.929  13.645  25.306  0.00  0.00    +0.000 OA
ATOM     17  H   UNL     1      -3.870  13.362  26.240  0.00  0.00    +0.000 HD
ENDBRANCH  15  16
ENDBRANCH   7  15
ENDBRANCH   1   9
BRANCH   5  18
ATOM     18  C   UNL     1       1.235   8.897  21.751  0.00  0.00    +0.000 C 
BRANCH  18  19
ATOM     19  O   UNL     1       0.774   7.813  20.955  0.00  0.00    +0.000 OA
BRANCH  19  20
ATOM     20  C   UNL     1       1.689   7.034  20.310  0.00  0.00    +0.000 A 
ATOM     21  C   UNL     1       1.824   5.762  20.892  0.00  0.00    +0.000 A 
ATOM     22  C   UNL     1       2.762   4.849  20.421  0.00  0.00    +0.000 A 
ATOM     23  C   UNL     1       3.534   5.231  19.339  0.00  0.00    +0.000 A 
ATOM     24  C   UNL     1       4.585   4.405  18.736  0.00  0.00    +0.000 A 
ATOM     25  O   UNL     1       4.904   3.319  19.206  0.00  0.00    +0.000 OA
ATOM     26  N   UNL     1       5.114   5.026  17.616  0.00  0.00    +0.000 N 
ATOM     27  S   UNL     1       4.411   6.562  17.268  0.00  0.00    +0.000 S 
ATOM     28  C   UNL     1       3.360   6.448  18.695  0.00  0.00    +0.000 A 
ATOM     29  C   UNL     1       2.450   7.387  19.184  0.00  0.00    +0.000 A 
BRANCH  26  30
ATOM     30  C   UNL     1       6.005   4.344  16.656  0.00  0.00    +0.000 C 
ATOM     31  C   UNL     1       5.473   4.178  15.216  0.00  0.00    +0.000 C 
ATOM     32  C   UNL     1       6.859   4.583  14.693  0.00  0.00    +0.000 C 
ATOM     33  C   UNL     1       7.132   5.231  16.058  0.00  0.00    +0.000 C 
ENDBRANCH  26  30
ENDBRANCH  19  20
ENDBRANCH  18  19
ENDBRANCH   5  18
TORSDOF 7
ENDMDL
MODEL 8
REMARK VINA RESULT:      -8.1      3.027      5.426
REMARK  Name = 
REMARK  7 active torsions:
REMARK  status: ('A' for Active; 'I' for Inactive)
REMARK    1  A    between atoms: C_2  and  O_3
REMARK    2  A    between atoms: C_2  and  C_4
REMARK    3  A    between atoms: C_6  and  C_7
REMARK    4  A    between atoms: C_11  and  C_12
REMARK    5  A    between atoms: C_12  and  O_13
REMARK    6  A    between atoms: O_13  and  C_14
REMARK    7  A    between atoms: N_20  and  C_21
REMARK                            x       y       z     vdW  Elec       q    Type
REMARK                         _______ _______ _______ _____ _____    ______ ____
ROOT
ATOM      1  C   UNL     1       2.204   7.367  18.672  0.00  0.00    +0.000 A 
ATOM      2  C   UNL     1       2.326   8.332  17.660  0.00  0.00    +0.000 A 
ATOM      3  C   UNL     1       1.974   9.666  17.880  0.00  0.00    +0.000 A 
ATOM      4  C   UNL     1       1.483  10.070  19.119  0.00  0.00    +0.000 A 
ATOM      5  C   UNL     1       1.344   9.145  20.157  0.00  0.00    +0.000 A 
ATOM      6  C   UNL     1       1.694   7.803  19.913  0.00  0.00    +0.000 A 
ENDROOT
BRANCH   1   9
ATOM      7  C   UNL     1       4.290   4.258  17.851  0.00  0.00    +0.000 A 
ATOM      8  C   UNL     1       3.901   5.602  18.022  0.00  0.00    +0.000 A 
ATOM      9  C   UNL     1       2.607   5.955  18.458  0.00  0.00    +0.000 A 
ATOM     10  C   UNL     1       1.710   4.901  18.698  0.00  0.00    +0.000 A 
ATOM     11  C   UNL     1       2.089   3.565  18.555  0.00  0.00    +0.000 A 
ATOM     12  C   UNL     1       3.378   3.240  18.140  0.00  0.00    +0.000 A 
ATOM     13 CL   UNL     1       3.745   1.558  18.016  0.00  0.00    +0.000 Cl
BRANCH   7  15
ATOM     14  O   UNL     1       5.878   3.855  16.136  0.00  0.00    +0.000 OA
ATOM     15  C   UNL     1       5.659   4.021  17.325  0.00  0.00    +0.000 C 
BRANCH  15  16
ATOM     16  O   UNL     1       6.645   4.083  18.242  0.00  0.00    +0.000 OA
ATOM     17  H   UNL     1       6.799   3.256  18.739  0.00  0.00    +0.000 HD
ENDBRANCH  15  16
ENDBRANCH   7  15
ENDBRANCH   1   9
BRANCH   5  18
ATOM     18  C   UNL     1       0.791   9.590  21.495  0.00  0.00    +0.000 C 
BRANCH  18  19
ATOM     19  O   UNL     1       0.694  11.009  21.503  0.00  0.00    +0.000 OA
BRANCH  19  20
ATOM     20  C   UNL     1      -0.505  11.584  21.803  0.00  0.00    +0.000 A 
ATOM     21  C   UNL     1      -1.063  11.086  22.993  0.00  0.00    +0.000 A 
ATOM     22  C   UNL     1      -2.319  11.497  23.429  0.00  0.00    +0.000 A 
ATOM     23  C   UNL     1      -2.983  12.436  22.661  0.00  0.00    +0.000 A 
ATOM     24  C   UNL     1      -4.321  12.955  22.958  0.00  0.00    +0.000 A 
ATOM     25  O   UNL     1      -4.986  12.530  23.896  0.00  0.00    +0.000 OA
ATOM     26  N   UNL     1      -4.674  13.946  22.057  0.00  0.00    +0.000 N 
ATOM     27  S   UNL     1      -3.472  14.268  20.862  0.00  0.00    +0.000 S 
ATOM     28  C   UNL     1      -2.417  13.004  21.528  0.00  0.00    +0.000 A 
ATOM     29  C   UNL     1      -1.175  12.570  21.061  0.00  0.00    +0.000 A 
BRANCH  26  30
ATOM     30  C   UNL     1      -5.844  14.829  22.239  0.00  0.00    +0.000 C 
ATOM     31  C   UNL     1      -7.202  14.134  22.484  0.00  0.00    +0.000 C 
ATOM     32  C   UNL     1      -7.497  15.173  23.576  0.00  0.00    +0.000 C 
ATOM     33  C   UNL     1      -5.988  15.448  23.657  0.00  0.00    +0.000 C 
ENDBRANCH  26  30
ENDBRANCH  19  20
ENDBRANCH  18  19
ENDBRANCH   5  18
TORSDOF 7
ENDMDL
MODEL 9
REMARK VINA RESULT:      -8.1      3.138      5.830
REMARK  Name = 
REMARK  7 active torsions:
REMARK  status: ('A' for Active; 'I' for Inactive)
REMARK    1  A    between atoms: C_2  and  O_3
REMARK    2  A    between atoms: C_2  and  C_4
REMARK    3  A    between atoms: C_6  and  C_7
REMARK    4  A    between atoms: C_11  and  C_12
REMARK    5  A    between atoms: C_12  and  O_13
REMARK    6  A    between atoms: O_13  and  C_14
REMARK    7  A    between atoms: N_20  and  C_21
REMARK                            x       y       z     vdW  Elec       q    Type
REMARK                         _______ _______ _______ _____ _____    ______ ____
ROOT
ATOM      1  C   UNL     1       1.780   8.082  18.960  0.00  0.00    +0.000 A 
ATOM      2  C   UNL     1       1.630   8.145  20.354  0.00  0.00    +0.000 A 
ATOM      3  C   UNL     1       0.756   9.055  20.953  0.00  0.00    +0.000 A 
ATOM      4  C   UNL     1       0.011   9.934  20.171  0.00  0.00    +0.000 A 
ATOM      5  C   UNL     1       0.126   9.910  18.779  0.00  0.00    +0.000 A 
ATOM      6  C   UNL     1       1.020   8.992  18.194  0.00  0.00    +0.000 A 
ENDROOT
BRANCH   1   9
ATOM      7  C   UNL     1       3.276   4.776  17.726  0.00  0.00    +0.000 A 
ATOM      8  C   UNL     1       2.435   5.708  18.369  0.00  0.00    +0.000 A 
ATOM      9  C   UNL     1       2.681   7.095  18.314  0.00  0.00    +0.000 A 
ATOM     10  C   UNL     1       3.819   7.511  17.603  0.00  0.00    +0.000 A 
ATOM     11  C   UNL     1       4.647   6.601  16.943  0.00  0.00    +0.000 A 
ATOM     12  C   UNL     1       4.374   5.236  16.996  0.00  0.00    +0.000 A 
ATOM     13 CL   UNL     1       5.451   4.202  16.127  0.00  0.00    +0.000 Cl
BRANCH   7  15
ATOM     14  O   UNL     1       2.032   2.801  17.309  0.00  0.00    +0.000 OA
ATOM     15  C   UNL     1       2.945   3.339  17.912  0.00  0.00    +0.000 C 
BRANCH  15  16
ATOM     16  O   UNL     1       3.775   2.661  18.729  0.00  0.00    +0.000 OA
ATOM     17  H   UNL     1       4.585   2.319  18.302  0.00  0.00    +0.000 HD
ENDBRANCH  15  16
ENDBRANCH   7  15
ENDBRANCH   1   9
BRANCH   5  18
ATOM     18  C   UNL     1      -0.673  10.883  17.938  0.00  0.00    +0.000 C 
BRANCH  18  19
ATOM     19  O   UNL     1      -0.916  12.058  18.701  0.00  0.00    +0.000 OA
BRANCH  19  20
ATOM     20  C   UNL     1      -2.160  12.257  19.223  0.00  0.00    +0.000 A 
ATOM     21  C   UNL     1      -3.177  11.694  18.432  0.00  0.00    +0.000 A 
ATOM     22  C   UNL     1      -4.518  11.854  18.759  0.00  0.00    +0.000 A 
ATOM     23  C   UNL     1      -4.812  12.564  19.909  0.00  0.00    +0.000 A 
ATOM     24  C   UNL     1      -6.169  12.850  20.384  0.00  0.00    +0.000 A 
ATOM     25  O   UNL     1      -7.162  12.529  19.741  0.00  0.00    +0.000 OA
ATOM     26  N   UNL     1      -6.133  13.499  21.608  0.00  0.00    +0.000 N 
ATOM     27  S   UNL     1      -4.541  13.791  22.201  0.00  0.00    +0.000 S 
ATOM     28  C   UNL     1      -3.824  13.057  20.751  0.00  0.00    +0.000 A 
ATOM     29  C   UNL     1      -2.476  12.935  20.411  0.00  0.00    +0.000 A 
BRANCH  26  30
ATOM     30  C   UNL     1      -7.327  13.698  22.456  0.00  0.00    +0.000 C 
ATOM     31  C   UNL     1      -7.552  12.667  23.584  0.00  0.00    +0.000 C 
ATOM     32  C   UNL     1      -7.917  13.826  24.524  0.00  0.00    +0.000 C 
ATOM     33  C   UNL     1      -7.173  14.772  23.569  0.00  0.00    +0.000 C 
ENDBRANCH  26  30
ENDBRANCH  19  20
ENDBRANCH  18  19
ENDBRANCH   5  18
TORSDOF 7
ENDMDL
