MODEL 1
REMARK VINA RESULT:      -8.4      0.000      0.000
REMARK  Name = 
REMARK  9 active torsions:
REMARK  status: ('A' for Active; 'I' for Inactive)
REMARK    1  A    between atoms: C_1  and  O_2
REMARK    2  A    between atoms: O_2  and  C_3
REMARK    3  A    between atoms: C_7  and  N_8
REMARK    4  A    between atoms: C_9  and  C_11
REMARK    5  A    between atoms: C_13  and  C_14
REMARK    6  A    between atoms: C_17  and  O_18
REMARK    7  A    between atoms: O_18  and  C_19
REMARK    8  A    between atoms: C_20  and  O_21
REMARK    9  A    between atoms: O_21  and  C_22
REMARK                            x       y       z     vdW  Elec       q    Type
REMARK                         _______ _______ _______ _____ _____    ______ ____
ROOT
ATOM      1  C   UNL     1       1.988   6.786  18.057  0.00  0.00    +0.000 A 
ATOM      2  C   UNL     1       2.768   7.152  19.109  0.00  0.00    +0.000 A 
ATOM      3  C   UNL     1       4.040   6.705  19.060  0.00  0.00    +0.000 A 
ATOM      4  N   UNL     1       4.029   5.546  19.664  0.00  0.00    +0.000 NA
ATOM      5  C   UNL     1       3.385   4.686  18.916  0.00  0.00    +0.000 A 
ATOM      6  C   UNL     1       4.076   3.459  18.785  0.00  0.00    +0.000 A 
ATOM      7  C   UNL     1       3.691   2.477  17.908  0.00  0.00    +0.000 A 
ATOM      8  C   UNL     1       2.412   2.631  17.425  0.00  0.00    +0.000 A 
ATOM      9  C   UNL     1       1.702   3.907  17.574  0.00  0.00    +0.000 A 
ATOM     10  C   UNL     1       2.256   5.175  18.146  0.00  0.00    +0.000 A 
ENDROOT
BRANCH   3  11
ATOM     11  C   UNL     1       4.949   6.618  17.840  0.00  0.00    +0.000 A 
ATOM     12  C   UNL     1       4.508   6.434  16.511  0.00  0.00    +0.000 A 
ATOM     13  C   UNL     1       5.184   5.544  15.680  0.00  0.00    +0.000 A 
ATOM     14  C   UNL     1       6.314   4.855  16.124  0.00  0.00    +0.000 A 
ATOM     15  C   UNL     1       6.860   5.173  17.378  0.00  0.00    +0.000 A 
ATOM     16  C   UNL     1       6.219   6.119  18.179  0.00  0.00    +0.000 A 
BRANCH  14  17
ATOM     17  O   UNL     1       6.863   3.869  15.344  0.00  0.00    +0.000 OA
ATOM     18  C   UNL     1       6.350   3.815  14.013  0.00  0.00    +0.000 C 
ENDBRANCH  14  17
BRANCH  15  19
ATOM     19  O   UNL     1       7.890   4.550  18.039  0.00  0.00    +0.000 OA
ATOM     20  C   UNL     1       8.271   5.146  19.265  0.00  0.00    +0.000 C 
ENDBRANCH  15  19
ENDBRANCH   3  11
BRANCH   1  22
ATOM     21  N   UNL     1       0.892   9.379  18.975  0.00  0.00    +0.000 N 
ATOM     22  C   UNL     1       1.752   8.518  18.006  0.00  0.00    +0.000 C 
ATOM     23  O   UNL     1       2.370   9.095  17.105  0.00  0.00    +0.000 OA
ATOM     24  H   UNL     1       0.451   8.928  19.774  0.00  0.00    +0.000 HD
BRANCH  21  29
ATOM     25  C   UNL     1       1.267  13.329  18.880  0.00  0.00    +0.000 A 
ATOM     26  C   UNL     1      -0.046  13.775  18.955  0.00  0.00    +0.000 A 
ATOM     27  C   UNL     1      -1.052  12.817  19.008  0.00  0.00    +0.000 A 
ATOM     28  C   UNL     1      -0.764  11.407  19.001  0.00  0.00    +0.000 A 
ATOM     29  C   UNL     1       0.538  10.883  18.934  0.00  0.00    +0.000 A 
ATOM     30  C   UNL     1       1.554  11.910  18.849  0.00  0.00    +0.000 A 
BRANCH  25  32
ATOM     31  C   UNL     1       3.462  14.150  18.383  0.00  0.00    +0.000 C 
ATOM     32  O   UNL     1       2.155  14.380  18.874  0.00  0.00    +0.000 OA
ENDBRANCH  25  32
ENDBRANCH  21  29
ENDBRANCH   1  22
TORSDOF 6
ENDMDL
MODEL 2
REMARK VINA RESULT:      -8.4      1.026      1.252
REMARK  Name = 
REMARK  9 active torsions:
REMARK  status: ('A' for Active; 'I' for Inactive)
REMARK    1  A    between atoms: C_1  and  O_2
REMARK    2  A    between atoms: O_2  and  C_3
REMARK    3  A    between atoms: C_7  and  N_8
REMARK    4  A    between atoms: C_9  and  C_11
REMARK    5  A    between atoms: C_13  and  C_14
REMARK    6  A    between atoms: C_17  and  O_18
REMARK    7  A    between atoms: O_18  and  C_19
REMARK    8  A    between atoms: C_20  and  O_21
REMARK    9  A    between atoms: O_21  and  C_22
REMARK                            x       y       z     vdW  Elec       q    Type
REMARK                         _______ _______ _______ _____ _____    ______ ____
ROOT
ATOM      1  C   UNL     1       1.976   6.706  18.249  0.00  0.00    +0.000 A 
ATOM      2  C   UNL     1       2.774   7.002  19.309  0.00  0.00    +0.000 A 
ATOM      3  C   UNL     1       4.043   6.554  19.211  0.00  0.00    +0.000 A 
ATOM      4  N   UNL     1       4.037   5.359  19.740  0.00  0.00    +0.000 NA
ATOM      5  C   UNL     1       3.377   4.552  18.948  0.00  0.00    +0.000 A 
ATOM      6  C   UNL     1       4.061   3.333  18.728  0.00  0.00    +0.000 A 
ATOM      7  C   UNL     1       3.658   2.411  17.797  0.00  0.00    +0.000 A 
ATOM      8  C   UNL     1       2.371   2.600  17.345  0.00  0.00    +0.000 A 
ATOM      9  C   UNL     1       1.670   3.866  17.587  0.00  0.00    +0.000 A 
ATOM     10  C   UNL     1       2.239   5.093  18.230  0.00  0.00    +0.000 A 
ENDROOT
BRANCH   3  11
ATOM     11  C   UNL     1       4.932   6.543  17.974  0.00  0.00    +0.000 A 
ATOM     12  C   UNL     1       4.474   6.398  16.646  0.00  0.00    +0.000 A 
ATOM     13  C   UNL     1       5.161   5.562  15.770  0.00  0.00    +0.000 A 
ATOM     14  C   UNL     1       6.319   4.891  16.167  0.00  0.00    +0.000 A 
ATOM     15  C   UNL     1       6.877   5.176  17.423  0.00  0.00    +0.000 A 
ATOM     16  C   UNL     1       6.222   6.071  18.272  0.00  0.00    +0.000 A 
BRANCH  14  17
ATOM     17  O   UNL     1       6.883   3.953  15.340  0.00  0.00    +0.000 OA
ATOM     18  C   UNL     1       6.319   3.906  14.029  0.00  0.00    +0.000 C 
ENDBRANCH  14  17
BRANCH  15  19
ATOM     19  O   UNL     1       7.938   4.560  18.042  0.00  0.00    +0.000 OA
ATOM     20  C   UNL     1       8.330   5.127  19.279  0.00  0.00    +0.000 C 
ENDBRANCH  15  19
ENDBRANCH   3  11
BRANCH   1  22
ATOM     21  N   UNL     1       1.021   9.252  19.423  0.00  0.00    +0.000 N 
ATOM     22  C   UNL     1       1.747   8.439  18.313  0.00  0.00    +0.000 C 
ATOM     23  O   UNL     1       2.250   9.060  17.370  0.00  0.00    +0.000 OA
ATOM     24  H   UNL     1       0.682   8.763  20.248  0.00  0.00    +0.000 HD
BRANCH  21  29
ATOM     25  C   UNL     1       0.744  12.982  20.748  0.00  0.00    +0.000 A 
ATOM     26  C   UNL     1      -0.028  13.608  19.777  0.00  0.00    +0.000 A 
ATOM     27  C   UNL     1      -0.435  12.849  18.687  0.00  0.00    +0.000 A 
ATOM     28  C   UNL     1      -0.094  11.457  18.557  0.00  0.00    +0.000 A 
ATOM     29  C   UNL     1       0.675  10.756  19.501  0.00  0.00    +0.000 A 
ATOM     30  C   UNL     1       1.106  11.589  20.603  0.00  0.00    +0.000 A 
BRANCH  25  32
ATOM     31  C   UNL     1      -0.023  14.548  22.391  0.00  0.00    +0.000 C 
ATOM     32  O   UNL     1       1.040  13.839  21.783  0.00  0.00    +0.000 OA
ENDBRANCH  25  32
ENDBRANCH  21  29
ENDBRANCH   1  22
TORSDOF 6
ENDMDL
MODEL 3
REMARK VINA RESULT:      -8.3      0.967      1.738
REMARK  Name = 
REMARK  9 active torsions:
REMARK  status: ('A' for Active; 'I' for Inactive)
REMARK    1  A    between atoms: C_1  and  O_2
REMARK    2  A    between atoms: O_2  and  C_3
REMARK    3  A    between atoms: C_7  and  N_8
REMARK    4  A    between atoms: C_9  and  C_11
REMARK    5  A    between atoms: C_13  and  C_14
REMARK    6  A    between atoms: C_17  and  O_18
REMARK    7  A    between atoms: O_18  and  C_19
REMARK    8  A    between atoms: C_20  and  O_21
REMARK    9  A    between atoms: O_21  and  C_22
REMARK                            x       y       z     vdW  Elec       q    Type
REMARK                         _______ _______ _______ _____ _____    ______ ____
ROOT
ATOM      1  C   UNL     1       2.022   6.734  18.163  0.00  0.00    +0.000 A 
ATOM      2  C   UNL     1       2.825   7.064  19.209  0.00  0.00    +0.000 A 
ATOM      3  C   UNL     1       4.091   6.608  19.123  0.00  0.00    +0.000 A 
ATOM      4  N   UNL     1       4.082   5.433  19.695  0.00  0.00    +0.000 NA
ATOM      5  C   UNL     1       3.416   4.600  18.936  0.00  0.00    +0.000 A 
ATOM      6  C   UNL     1       4.093   3.371  18.758  0.00  0.00    +0.000 A 
ATOM      7  C   UNL     1       3.683   2.417  17.862  0.00  0.00    +0.000 A 
ATOM      8  C   UNL     1       2.395   2.596  17.409  0.00  0.00    +0.000 A 
ATOM      9  C   UNL     1       1.700   3.873  17.606  0.00  0.00    +0.000 A 
ATOM     10  C   UNL     1       2.277   5.120  18.202  0.00  0.00    +0.000 A 
ENDROOT
BRANCH   3  11
ATOM     11  C   UNL     1       4.976   6.547  17.884  0.00  0.00    +0.000 A 
ATOM     12  C   UNL     1       4.509   6.382  16.560  0.00  0.00    +0.000 A 
ATOM     13  C   UNL     1       5.174   5.510  15.702  0.00  0.00    +0.000 A 
ATOM     14  C   UNL     1       6.317   4.822  16.112  0.00  0.00    +0.000 A 
ATOM     15  C   UNL     1       6.887   5.124  17.359  0.00  0.00    +0.000 A 
ATOM     16  C   UNL     1       6.256   6.052  18.189  0.00  0.00    +0.000 A 
BRANCH  14  17
ATOM     17  O   UNL     1       6.857   3.852  15.305  0.00  0.00    +0.000 OA
ATOM     18  C   UNL     1       6.399   3.887  13.953  0.00  0.00    +0.000 C 
ENDBRANCH  14  17
BRANCH  15  19
ATOM     19  O   UNL     1       7.935   4.498  17.989  0.00  0.00    +0.000 OA
ATOM     20  C   UNL     1       8.325   5.066  19.226  0.00  0.00    +0.000 C 
ENDBRANCH  15  19
ENDBRANCH   3  11
BRANCH   1  22
ATOM     21  N   UNL     1       1.083   9.326  19.247  0.00  0.00    +0.000 N 
ATOM     22  C   UNL     1       1.800   8.469  18.165  0.00  0.00    +0.000 C 
ATOM     23  O   UNL     1       2.301   9.053  17.197  0.00  0.00    +0.000 OA
ATOM     24  H   UNL     1       0.746   8.868  20.092  0.00  0.00    +0.000 HD
BRANCH  21  29
ATOM     25  C   UNL     1      -0.873  12.730  19.822  0.00  0.00    +0.000 A 
ATOM     26  C   UNL     1      -0.025  13.681  19.267  0.00  0.00    +0.000 A 
ATOM     27  C   UNL     1       1.181  13.241  18.736  0.00  0.00    +0.000 A 
ATOM     28  C   UNL     1       1.552  11.850  18.736  0.00  0.00    +0.000 A 
ATOM     29  C   UNL     1       0.744  10.832  19.272  0.00  0.00    +0.000 A 
ATOM     30  C   UNL     1      -0.487  11.336  19.843  0.00  0.00    +0.000 A 
BRANCH  25  32
ATOM     31  C   UNL     1      -3.256  12.615  20.033  0.00  0.00    +0.000 C 
ATOM     32  O   UNL     1      -2.041  13.301  20.271  0.00  0.00    +0.000 OA
ENDBRANCH  25  32
ENDBRANCH  21  29
ENDBRANCH   1  22
TORSDOF 6
ENDMDL
MODEL 4
REMARK VINA RESULT:      -7.8      1.859      2.302
REMARK  Name = 
REMARK  9 active torsions:
REMARK  status: ('A' for Active; 'I' for Inactive)
REMARK    1  A    between atoms: C_1  and  O_2
REMARK    2  A    between atoms: O_2  and  C_3
REMARK    3  A    between atoms: C_7  and  N_8
REMARK    4  A    between atoms: C_9  and  C_11
REMARK    5  A    between atoms: C_13  and  C_14
REMARK    6  A    between atoms: C_17  and  O_18
REMARK    7  A    between atoms: O_18  and  C_19
REMARK    8  A    between atoms: C_20  and  O_21
REMARK    9  A    between atoms: O_21  and  C_22
REMARK                            x       y       z     vdW  Elec       q    Type
REMARK                         _______ _______ _______ _____ _____    ______ ____
ROOT
ATOM      1  C   UNL     1       1.899   6.106  19.015  0.00  0.00    +0.000 A 
ATOM      2  C   UNL     1       3.040   6.427  19.680  0.00  0.00    +0.000 A 
ATOM      3  C   UNL     1       4.175   5.947  19.132  0.00  0.00    +0.000 A 
ATOM      4  N   UNL     1       4.363   4.776  19.680  0.00  0.00    +0.000 NA
ATOM      5  C   UNL     1       3.449   3.951  19.235  0.00  0.00    +0.000 A 
ATOM      6  C   UNL     1       3.992   2.709  18.831  0.00  0.00    +0.000 A 
ATOM      7  C   UNL     1       3.261   1.757  18.166  0.00  0.00    +0.000 A 
ATOM      8  C   UNL     1       1.901   1.957  18.226  0.00  0.00    +0.000 A 
ATOM      9  C   UNL     1       1.350   3.248  18.653  0.00  0.00    +0.000 A 
ATOM     10  C   UNL     1       2.126   4.488  18.975  0.00  0.00    +0.000 A 
ENDROOT
BRANCH   3  11
ATOM     11  C   UNL     1       4.530   5.863  17.652  0.00  0.00    +0.000 A 
ATOM     12  C   UNL     1       4.341   4.726  16.835  0.00  0.00    +0.000 A 
ATOM     13  C   UNL     1       5.342   4.347  15.945  0.00  0.00    +0.000 A 
ATOM     14  C   UNL     1       6.516   5.091  15.815  0.00  0.00    +0.000 A 
ATOM     15  C   UNL     1       6.626   6.317  16.489  0.00  0.00    +0.000 A 
ATOM     16  C   UNL     1       5.588   6.729  17.327  0.00  0.00    +0.000 A 
BRANCH  14  17
ATOM     17  O   UNL     1       7.549   4.608  15.052  0.00  0.00    +0.000 OA
ATOM     18  C   UNL     1       7.424   4.870  13.655  0.00  0.00    +0.000 C 
ENDBRANCH  14  17
BRANCH  15  19
ATOM     19  O   UNL     1       7.721   7.142  16.579  0.00  0.00    +0.000 OA
ATOM     20  C   UNL     1       7.745   7.994  17.710  0.00  0.00    +0.000 C 
ENDBRANCH  15  19
ENDBRANCH   3  11
BRANCH   1  22
ATOM     21  N   UNL     1       1.199   8.695  20.272  0.00  0.00    +0.000 N 
ATOM     22  C   UNL     1       1.720   7.845  19.078  0.00  0.00    +0.000 C 
ATOM     23  O   UNL     1       2.079   8.437  18.054  0.00  0.00    +0.000 OA
ATOM     24  H   UNL     1       0.986   8.228  21.152  0.00  0.00    +0.000 HD
BRANCH  21  29
ATOM     25  C   UNL     1      -0.147  12.181  21.606  0.00  0.00    +0.000 A 
ATOM     26  C   UNL     1       0.208  13.066  20.595  0.00  0.00    +0.000 A 
ATOM     27  C   UNL     1       0.901  12.557  19.504  0.00  0.00    +0.000 A 
ATOM     28  C   UNL     1       1.235  11.161  19.396  0.00  0.00    +0.000 A 
ATOM     29  C   UNL     1       0.903  10.207  20.373  0.00  0.00    +0.000 A 
ATOM     30  C   UNL     1       0.211  10.783  21.507  0.00  0.00    +0.000 A 
BRANCH  25  32
ATOM     31  C   UNL     1      -2.018  12.176  23.102  0.00  0.00    +0.000 C 
ATOM     32  O   UNL     1      -0.858  12.813  22.599  0.00  0.00    +0.000 OA
ENDBRANCH  25  32
ENDBRANCH  21  29
ENDBRANCH   1  22
TORSDOF 6
ENDMDL
MODEL 5
REMARK VINA RESULT:      -7.8      1.597      1.990
REMARK  Name = 
REMARK  9 active torsions:
REMARK  status: ('A' for Active; 'I' for Inactive)
REMARK    1  A    between atoms: C_1  and  O_2
REMARK    2  A    between atoms: O_2  and  C_3
REMARK    3  A    between atoms: C_7  and  N_8
REMARK    4  A    between atoms: C_9  and  C_11
REMARK    5  A    between atoms: C_13  and  C_14
REMARK    6  A    between atoms: C_17  and  O_18
REMARK    7  A    between atoms: O_18  and  C_19
REMARK    8  A    between atoms: C_20  and  O_21
REMARK    9  A    between atoms: O_21  and  C_22
REMARK                            x       y       z     vdW  Elec       q    Type
REMARK                         _______ _______ _______ _____ _____    ______ ____
ROOT
ATOM      1  C   UNL     1       1.888   6.008  19.339  0.00  0.00    +0.000 A 
ATOM      2  C   UNL     1       3.068   6.331  19.933  0.00  0.00    +0.000 A 
ATOM      3  C   UNL     1       4.170   5.913  19.277  0.00  0.00    +0.000 A 
ATOM      4  N   UNL     1       4.430   4.722  19.749  0.00  0.00    +0.000 NA
ATOM      5  C   UNL     1       3.507   3.893  19.334  0.00  0.00    +0.000 A 
ATOM      6  C   UNL     1       4.051   2.689  18.828  0.00  0.00    +0.000 A 
ATOM      7  C   UNL     1       3.297   1.749  18.172  0.00  0.00    +0.000 A 
ATOM      8  C   UNL     1       1.941   1.904  18.343  0.00  0.00    +0.000 A 
ATOM      9  C   UNL     1       1.390   3.155  18.876  0.00  0.00    +0.000 A 
ATOM     10  C   UNL     1       2.155   4.401  19.200  0.00  0.00    +0.000 A 
ENDROOT
BRANCH   3  11
ATOM     11  C   UNL     1       4.414   5.911  17.773  0.00  0.00    +0.000 A 
ATOM     12  C   UNL     1       4.029   4.878  16.889  0.00  0.00    +0.000 A 
ATOM     13  C   UNL     1       4.913   4.457  15.899  0.00  0.00    +0.000 A 
ATOM     14  C   UNL     1       6.160   5.062  15.737  0.00  0.00    +0.000 A 
ATOM     15  C   UNL     1       6.469   6.205  16.491  0.00  0.00    +0.000 A 
ATOM     16  C   UNL     1       5.549   6.668  17.434  0.00  0.00    +0.000 A 
BRANCH  14  17
ATOM     17  O   UNL     1       7.072   4.524  14.863  0.00  0.00    +0.000 OA
ATOM     18  C   UNL     1       6.500   3.980  13.674  0.00  0.00    +0.000 C 
ENDBRANCH  14  17
BRANCH  15  19
ATOM     19  O   UNL     1       7.662   6.881  16.560  0.00  0.00    +0.000 OA
ATOM     20  C   UNL     1       7.736   7.880  17.561  0.00  0.00    +0.000 C 
ENDBRANCH  15  19
ENDBRANCH   3  11
BRANCH   1  22
ATOM     21  N   UNL     1       1.565   8.784  18.359  0.00  0.00    +0.000 N 
ATOM     22  C   UNL     1       1.668   7.735  19.503  0.00  0.00    +0.000 C 
ATOM     23  O   UNL     1       1.561   8.132  20.670  0.00  0.00    +0.000 OA
ATOM     24  H   UNL     1       1.561   8.460  17.394  0.00  0.00    +0.000 HD
BRANCH  21  29
ATOM     25  C   UNL     1       0.153  12.462  18.836  0.00  0.00    +0.000 A 
ATOM     26  C   UNL     1       1.222  13.264  18.456  0.00  0.00    +0.000 A 
ATOM     27  C   UNL     1       2.400  12.634  18.075  0.00  0.00    +0.000 A 
ATOM     28  C   UNL     1       2.525  11.200  18.053  0.00  0.00    +0.000 A 
ATOM     29  C   UNL     1       1.487  10.326  18.416  0.00  0.00    +0.000 A 
ATOM     30  C   UNL     1       0.289  11.021  18.836  0.00  0.00    +0.000 A 
BRANCH  25  32
ATOM     31  C   UNL     1      -0.760  14.440  19.832  0.00  0.00    +0.000 C 
ATOM     32  O   UNL     1      -0.954  13.216  19.149  0.00  0.00    +0.000 OA
ENDBRANCH  25  32
ENDBRANCH  21  29
ENDBRANCH   1  22
TORSDOF 6
ENDMDL
MODEL 6
REMARK VINA RESULT:      -7.8      1.479      1.535
REMARK  Name = 
REMARK  9 active torsions:
REMARK  status: ('A' for Active; 'I' for Inactive)
REMARK    1  A    between atoms: C_1  and  O_2
REMARK    2  A    between atoms: O_2  and  C_3
REMARK    3  A    between atoms: C_7  and  N_8
REMARK    4  A    between atoms: C_9  and  C_11
REMARK    5  A    between atoms: C_13  and  C_14
REMARK    6  A    between atoms: C_17  and  O_18
REMARK    7  A    between atoms: O_18  and  C_19
REMARK    8  A    between atoms: C_20  and  O_21
REMARK    9  A    between atoms: O_21  and  C_22
REMARK                            x       y       z     vdW  Elec       q    Type
REMARK                         _______ _______ _______ _____ _____    ______ ____
ROOT
ATOM      1  C   UNL     1       1.811   6.411  18.751  0.00  0.00    +0.000 A 
ATOM      2  C   UNL     1       2.920   6.760  19.455  0.00  0.00    +0.000 A 
ATOM      3  C   UNL     1       4.076   6.238  18.995  0.00  0.00    +0.000 A 
ATOM      4  N   UNL     1       4.220   5.099  19.621  0.00  0.00    +0.000 NA
ATOM      5  C   UNL     1       3.320   4.258  19.179  0.00  0.00    +0.000 A 
ATOM      6  C   UNL     1       3.867   2.989  18.878  0.00  0.00    +0.000 A 
ATOM      7  C   UNL     1       3.161   2.006  18.234  0.00  0.00    +0.000 A 
ATOM      8  C   UNL     1       1.801   2.222  18.210  0.00  0.00    +0.000 A 
ATOM      9  C   UNL     1       1.245   3.541  18.532  0.00  0.00    +0.000 A 
ATOM     10  C   UNL     1       2.019   4.791  18.819  0.00  0.00    +0.000 A 
ENDROOT
BRANCH   3  11
ATOM     11  C   UNL     1       4.505   6.061  17.544  0.00  0.00    +0.000 A 
ATOM     12  C   UNL     1       4.319   4.889  16.778  0.00  0.00    +0.000 A 
ATOM     13  C   UNL     1       5.351   4.429  15.965  0.00  0.00    +0.000 A 
ATOM     14  C   UNL     1       6.556   5.126  15.861  0.00  0.00    +0.000 A 
ATOM     15  C   UNL     1       6.674   6.383  16.474  0.00  0.00    +0.000 A 
ATOM     16  C   UNL     1       5.609   6.874  17.232  0.00  0.00    +0.000 A 
BRANCH  14  17
ATOM     17  O   UNL     1       7.610   4.569  15.182  0.00  0.00    +0.000 OA
ATOM     18  C   UNL     1       7.608   4.822  13.777  0.00  0.00    +0.000 C 
ENDBRANCH  14  17
BRANCH  15  19
ATOM     19  O   UNL     1       7.792   7.175  16.581  0.00  0.00    +0.000 OA
ATOM     20  C   UNL     1       7.804   8.058  17.688  0.00  0.00    +0.000 C 
ENDBRANCH  15  19
ENDBRANCH   3  11
BRANCH   1  22
ATOM     21  N   UNL     1       0.967   9.064  19.760  0.00  0.00    +0.000 N 
ATOM     22  C   UNL     1       1.650   8.151  18.702  0.00  0.00    +0.000 C 
ATOM     23  O   UNL     1       2.169   8.689  17.716  0.00  0.00    +0.000 OA
ATOM     24  H   UNL     1       0.616   8.644  20.618  0.00  0.00    +0.000 HD
BRANCH  21  29
ATOM     25  C   UNL     1       0.848  12.881  20.838  0.00  0.00    +0.000 A 
ATOM     26  C   UNL     1       0.094  13.472  19.832  0.00  0.00    +0.000 A 
ATOM     27  C   UNL     1      -0.352  12.660  18.797  0.00  0.00    +0.000 A 
ATOM     28  C   UNL     1      -0.067  11.250  18.757  0.00  0.00    +0.000 A 
ATOM     29  C   UNL     1       0.682  10.582  19.741  0.00  0.00    +0.000 A 
ATOM     30  C   UNL     1       1.154  11.468  20.783  0.00  0.00    +0.000 A 
BRANCH  25  32
ATOM     31  C   UNL     1       2.243  14.696  21.545  0.00  0.00    +0.000 C 
ATOM     32  O   UNL     1       1.188  13.792  21.812  0.00  0.00    +0.000 OA
ENDBRANCH  25  32
ENDBRANCH  21  29
ENDBRANCH   1  22
TORSDOF 6
ENDMDL
MODEL 7
REMARK VINA RESULT:      -7.7      4.409      6.451
REMARK  Name = 
REMARK  9 active torsions:
REMARK  status: ('A' for Active; 'I' for Inactive)
REMARK    1  A    between atoms: C_1  and  O_2
REMARK    2  A    between atoms: O_2  and  C_3
REMARK    3  A    between atoms: C_7  and  N_8
REMARK    4  A    between atoms: C_9  and  C_11
REMARK    5  A    between atoms: C_13  and  C_14
REMARK    6  A    between atoms: C_17  and  O_18
REMARK    7  A    between atoms: O_18  and  C_19
REMARK    8  A    between atoms: C_20  and  O_21
REMARK    9  A    between atoms: O_21  and  C_22
REMARK                            x       y       z     vdW  Elec       q    Type
REMARK                         _______ _______ _______ _____ _____    ______ ____
ROOT
ATOM      1  C   UNL     1       7.481   6.843  17.153  0.00  0.00    +0.000 A 
ATOM      2  C   UNL     1       6.446   7.714  17.289  0.00  0.00    +0.000 A 
ATOM      3  C   UNL     1       5.297   7.170  17.742  0.00  0.00    +0.000 A 
ATOM      4  N   UNL     1       4.643   6.792  16.676  0.00  0.00    +0.000 NA
ATOM      5  C   UNL     1       5.262   5.771  16.140  0.00  0.00    +0.000 A 
ATOM      6  C   UNL     1       4.379   4.719  15.803  0.00  0.00    +0.000 A 
ATOM      7  C   UNL     1       4.813   3.482  15.400  0.00  0.00    +0.000 A 
ATOM      8  C   UNL     1       6.137   3.451  15.027  0.00  0.00    +0.000 A 
ATOM      9  C   UNL     1       7.042   4.552  15.376  0.00  0.00    +0.000 A 
ATOM     10  C   UNL     1       6.711   5.746  16.216  0.00  0.00    +0.000 A 
ENDROOT
BRANCH   3  11
ATOM     11  C   UNL     1       5.133   6.110  18.824  0.00  0.00    +0.000 A 
ATOM     12  C   UNL     1       6.024   5.037  19.051  0.00  0.00    +0.000 A 
ATOM     13  C   UNL     1       5.516   3.765  19.304  0.00  0.00    +0.000 A 
ATOM     14  C   UNL     1       4.141   3.535  19.374  0.00  0.00    +0.000 A 
ATOM     15  C   UNL     1       3.262   4.629  19.332  0.00  0.00    +0.000 A 
ATOM     16  C   UNL     1       3.780   5.912  19.150  0.00  0.00    +0.000 A 
BRANCH  14  17
ATOM     17  O   UNL     1       3.668   2.251  19.463  0.00  0.00    +0.000 OA
ATOM     18  C   UNL     1       3.302   1.667  18.213  0.00  0.00    +0.000 C 
ENDBRANCH  14  17
BRANCH  15  19
ATOM     19  O   UNL     1       1.890   4.614  19.281  0.00  0.00    +0.000 OA
ATOM     20  C   UNL     1       1.239   4.400  20.521  0.00  0.00    +0.000 C 
ENDBRANCH  15  19
ENDBRANCH   3  11
BRANCH   1  22
ATOM     21  N   UNL     1       8.453   9.554  17.845  0.00  0.00    +0.000 N 
ATOM     22  C   UNL     1       8.244   8.046  18.167  0.00  0.00    +0.000 C 
ATOM     23  O   UNL     1       8.627   7.626  19.265  0.00  0.00    +0.000 OA
ATOM     24  H   UNL     1       8.063   9.931  16.983  0.00  0.00    +0.000 HD
BRANCH  21  29
ATOM     25  C   UNL     1      10.614  12.784  18.648  0.00  0.00    +0.000 A 
ATOM     26  C   UNL     1      10.765  12.730  20.028  0.00  0.00    +0.000 A 
ATOM     27  C   UNL     1      10.155  11.681  20.705  0.00  0.00    +0.000 A 
ATOM     28  C   UNL     1       9.401  10.666  20.017  0.00  0.00    +0.000 A 
ATOM     29  C   UNL     1       9.212  10.650  18.625  0.00  0.00    +0.000 A 
ATOM     30  C   UNL     1       9.836  11.775  17.962  0.00  0.00    +0.000 A 
BRANCH  25  32
ATOM     31  C   UNL     1      12.333  13.577  17.180  0.00  0.00    +0.000 C 
ATOM     32  O   UNL     1      11.300  13.847  18.109  0.00  0.00    +0.000 OA
ENDBRANCH  25  32
ENDBRANCH  21  29
ENDBRANCH   1  22
TORSDOF 6
ENDMDL
MODEL 8
REMARK VINA RESULT:      -7.7      1.449      1.522
REMARK  Name = 
REMARK  9 active torsions:
REMARK  status: ('A' for Active; 'I' for Inactive)
REMARK    1  A    between atoms: C_1  and  O_2
REMARK    2  A    between atoms: O_2  and  C_3
REMARK    3  A    between atoms: C_7  and  N_8
REMARK    4  A    between atoms: C_9  and  C_11
REMARK    5  A    between atoms: C_13  and  C_14
REMARK    6  A    between atoms: C_17  and  O_18
REMARK    7  A    between atoms: O_18  and  C_19
REMARK    8  A    between atoms: C_20  and  O_21
REMARK    9  A    between atoms: O_21  and  C_22
REMARK                            x       y       z     vdW  Elec       q    Type
REMARK                         _______ _______ _______ _____ _____    ______ ____
ROOT
ATOM      1  C   UNL     1       1.923   6.098  19.026  0.00  0.00    +0.000 A 
ATOM      2  C   UNL     1       3.062   6.434  19.688  0.00  0.00    +0.000 A 
ATOM      3  C   UNL     1       4.202   5.976  19.131  0.00  0.00    +0.000 A 
ATOM      4  N   UNL     1       4.412   4.804  19.670  0.00  0.00    +0.000 NA
ATOM      5  C   UNL     1       3.509   3.967  19.225  0.00  0.00    +0.000 A 
ATOM      6  C   UNL     1       4.071   2.737  18.811  0.00  0.00    +0.000 A 
ATOM      7  C   UNL     1       3.353   1.778  18.143  0.00  0.00    +0.000 A 
ATOM      8  C   UNL     1       1.990   1.955  18.211  0.00  0.00    +0.000 A 
ATOM      9  C   UNL     1       1.420   3.233  18.649  0.00  0.00    +0.000 A 
ATOM     10  C   UNL     1       2.177   4.484  18.975  0.00  0.00    +0.000 A 
ENDROOT
BRANCH   3  11
ATOM     11  C   UNL     1       4.551   5.907  17.649  0.00  0.00    +0.000 A 
ATOM     12  C   UNL     1       4.343   4.784  16.817  0.00  0.00    +0.000 A 
ATOM     13  C   UNL     1       5.336   4.403  15.918  0.00  0.00    +0.000 A 
ATOM     14  C   UNL     1       6.520   5.131  15.795  0.00  0.00    +0.000 A 
ATOM     15  C   UNL     1       6.650   6.347  16.484  0.00  0.00    +0.000 A 
ATOM     16  C   UNL     1       5.621   6.762  17.331  0.00  0.00    +0.000 A 
BRANCH  14  17
ATOM     17  O   UNL     1       7.543   4.644  15.021  0.00  0.00    +0.000 OA
ATOM     18  C   UNL     1       7.386   4.873  13.621  0.00  0.00    +0.000 C 
ENDBRANCH  14  17
BRANCH  15  19
ATOM     19  O   UNL     1       7.757   7.154  16.582  0.00  0.00    +0.000 OA
ATOM     20  C   UNL     1       7.791   7.999  17.718  0.00  0.00    +0.000 C 
ENDBRANCH  15  19
ENDBRANCH   3  11
BRANCH   1  22
ATOM     21  N   UNL     1       1.176   8.665  20.299  0.00  0.00    +0.000 N 
ATOM     22  C   UNL     1       1.716   7.833  19.101  0.00  0.00    +0.000 C 
ATOM     23  O   UNL     1       2.070   8.438  18.083  0.00  0.00    +0.000 OA
ATOM     24  H   UNL     1       0.966   8.189  21.174  0.00  0.00    +0.000 HD
BRANCH  21  29
ATOM     25  C   UNL     1       1.126  12.563  19.555  0.00  0.00    +0.000 A 
ATOM     26  C   UNL     1       0.373  13.077  20.604  0.00  0.00    +0.000 A 
ATOM     27  C   UNL     1      -0.141  12.179  21.531  0.00  0.00    +0.000 A 
ATOM     28  C   UNL     1       0.099  10.763  21.436  0.00  0.00    +0.000 A 
ATOM     29  C   UNL     1       0.855  10.172  20.409  0.00  0.00    +0.000 A 
ATOM     30  C   UNL     1       1.346  11.137  19.448  0.00  0.00    +0.000 A 
BRANCH  25  32
ATOM     31  C   UNL     1       2.911  13.438  18.218  0.00  0.00    +0.000 C 
ATOM     32  O   UNL     1       1.601  13.564  18.740  0.00  0.00    +0.000 OA
ENDBRANCH  25  32
ENDBRANCH  21  29
ENDBRANCH   1  22
TORSDOF 6
ENDMDL
MODEL 9
REMARK VINA RESULT:      -7.7      1.501      1.560
REMARK  Name = 
REMARK  9 active torsions:
REMARK  status: ('A' for Active; 'I' for Inactive)
REMARK    1  A    between atoms: C_1  and  O_2
REMARK    2  A    between atoms: O_2  and  C_3
REMARK    3  A    between atoms: C_7  and  N_8
REMARK    4  A    between atoms: C_9  and  C_11
REMARK    5  A    between atoms: C_13  and  C_14
REMARK    6  A    between atoms: C_17  and  O_18
REMARK    7  A    between atoms: O_18  and  C_19
REMARK    8  A    between atoms: C_20  and  O_21
REMARK    9  A    between atoms: O_21  and  C_22
REMARK                            x       y       z     vdW  Elec       q    Type
REMARK                         _______ _______ _______ _____ _____    ______ ____
ROOT
ATOM      1  C   UNL     1       1.885   5.939  19.390  0.00  0.00    +0.000 A 
ATOM      2  C   UNL     1       3.063   6.286  19.975  0.00  0.00    +0.000 A 
ATOM      3  C   UNL     1       4.168   5.882  19.316  0.00  0.00    +0.000 A 
ATOM      4  N   UNL     1       4.451   4.700  19.797  0.00  0.00    +0.000 NA
ATOM      5  C   UNL     1       3.540   3.851  19.393  0.00  0.00    +0.000 A 
ATOM      6  C   UNL     1       4.101   2.652  18.894  0.00  0.00    +0.000 A 
ATOM      7  C   UNL     1       3.360   1.695  18.250  0.00  0.00    +0.000 A 
ATOM      8  C   UNL     1       2.001   1.828  18.428  0.00  0.00    +0.000 A 
ATOM      9  C   UNL     1       1.432   3.075  18.953  0.00  0.00    +0.000 A 
ATOM     10  C   UNL     1       2.178   4.336  19.263  0.00  0.00    +0.000 A 
ENDROOT
BRANCH   3  11
ATOM     11  C   UNL     1       4.403   5.871  17.811  0.00  0.00    +0.000 A 
ATOM     12  C   UNL     1       4.012   4.834  16.935  0.00  0.00    +0.000 A 
ATOM     13  C   UNL     1       4.890   4.407  15.942  0.00  0.00    +0.000 A 
ATOM     14  C   UNL     1       6.138   5.010  15.770  0.00  0.00    +0.000 A 
ATOM     15  C   UNL     1       6.452   6.157  16.516  0.00  0.00    +0.000 A 
ATOM     16  C   UNL     1       5.538   6.625  17.462  0.00  0.00    +0.000 A 
BRANCH  14  17
ATOM     17  O   UNL     1       7.044   4.466  14.894  0.00  0.00    +0.000 OA
ATOM     18  C   UNL     1       6.478   4.011  13.666  0.00  0.00    +0.000 C 
ENDBRANCH  14  17
BRANCH  15  19
ATOM     19  O   UNL     1       7.647   6.831  16.575  0.00  0.00    +0.000 OA
ATOM     20  C   UNL     1       7.702   7.885  17.520  0.00  0.00    +0.000 C 
ENDBRANCH  15  19
ENDBRANCH   3  11
BRANCH   1  22
ATOM     21  N   UNL     1       1.435   8.690  18.391  0.00  0.00    +0.000 N 
ATOM     22  C   UNL     1       1.637   7.663  19.542  0.00  0.00    +0.000 C 
ATOM     23  O   UNL     1       1.598   8.077  20.706  0.00  0.00    +0.000 OA
ATOM     24  H   UNL     1       1.375   8.350  17.434  0.00  0.00    +0.000 HD
BRANCH  21  29
ATOM     25  C   UNL     1       2.410  12.533  18.229  0.00  0.00    +0.000 A 
ATOM     26  C   UNL     1       1.228  13.176  18.578  0.00  0.00    +0.000 A 
ATOM     27  C   UNL     1       0.115  12.386  18.838  0.00  0.00    +0.000 A 
ATOM     28  C   UNL     1       0.167  10.949  18.768  0.00  0.00    +0.000 A 
ATOM     29  C   UNL     1       1.326  10.231  18.429  0.00  0.00    +0.000 A 
ATOM     30  C   UNL     1       2.453  11.090  18.136  0.00  0.00    +0.000 A 
BRANCH  25  32
ATOM     31  C   UNL     1       3.131  14.814  18.104  0.00  0.00    +0.000 C 
ATOM     32  O   UNL     1       3.433  13.433  18.040  0.00  0.00    +0.000 OA
ENDBRANCH  25  32
ENDBRANCH  21  29
ENDBRANCH   1  22
TORSDOF 6
ENDMDL
