MODEL 1
REMARK VINA RESULT:      -8.8      0.000      0.000
REMARK  Name = 
REMARK  9 active torsions:
REMARK  status: ('A' for Active; 'I' for Inactive)
REMARK    1  A    between atoms: C_1  and  C_2
REMARK    2  A    between atoms: C_5  and  S_6
REMARK    3  A    between atoms: S_6  and  N_9
REMARK    4  A    between atoms: C_16  and  C_17
REMARK    5  A    between atoms: C_17  and  O_19
REMARK    6  A    between atoms: O_19  and  C_20
REMARK    7  A    between atoms: C_20  and  C_21
REMARK    8  A    between atoms: N_23  and  C_24
REMARK    9  A    between atoms: C_29  and  O_30
REMARK                            x       y       z     vdW  Elec       q    Type
REMARK                         _______ _______ _______ _____ _____    ______ ____
ROOT
ATOM      1  C   UNL     1       2.548   6.834  18.820  0.00  0.00    +0.000 C 
ATOM      2  O   UNL     1       2.332   6.996  20.009  0.00  0.00    +0.000 OA
ENDROOT
BRANCH   1   9
ATOM      3  C   UNL     1       1.427   4.027  18.761  0.00  0.00    +0.000 C 
ATOM      4  C   UNL     1       2.762   4.388  18.163  0.00  0.00    +0.000 A 
ATOM      5  C   UNL     1       3.488   3.367  17.518  0.00  0.00    +0.000 A 
ATOM      6  C   UNL     1       4.728   3.620  16.935  0.00  0.00    +0.000 A 
ATOM      7  C   UNL     1       5.251   4.909  16.979  0.00  0.00    +0.000 A 
ATOM      8  C   UNL     1       4.566   5.940  17.631  0.00  0.00    +0.000 A 
ATOM      9  C   UNL     1       3.309   5.690  18.222  0.00  0.00    +0.000 A 
BRANCH   7  10
ATOM     10  S   UNL     1       6.861   5.225  16.302  0.00  0.00    +0.000 S 
ATOM     11  O   UNL     1       7.064   6.657  16.328  0.00  0.00    +0.000 OA
ATOM     12  O   UNL     1       7.790   4.330  16.954  0.00  0.00    +0.000 OA
BRANCH  10  13
ATOM     13  N   UNL     1       6.718   4.748  14.698  0.00  0.00    +0.000 NA
ATOM     14  C   UNL     1       5.384   4.396  14.152  0.00  0.00    +0.000 C 
ATOM     15  C   UNL     1       5.598   3.445  12.964  0.00  0.00    +0.000 C 
ATOM     16  O   UNL     1       6.436   4.044  11.958  0.00  0.00    +0.000 OA
ATOM     17  C   UNL     1       7.717   4.407  12.505  0.00  0.00    +0.000 C 
ATOM     18  C   UNL     1       7.556   5.403  13.663  0.00  0.00    +0.000 C 
ENDBRANCH  10  13
ENDBRANCH   7  10
ENDBRANCH   1   9
BRANCH   1  19
ATOM     19  O   UNL     1       1.971   7.563  17.835  0.00  0.00    +0.000 OA
BRANCH  19  20
ATOM     20  C   UNL     1       2.469   8.894  17.679  0.00  0.00    +0.000 C 
BRANCH  20  21
ATOM     21  C   UNL     1       1.412   9.886  18.164  0.00  0.00    +0.000 C 
ATOM     22  O   UNL     1       1.740  10.845  18.861  0.00  0.00    +0.000 OA
ATOM     23  N   UNL     1       0.122   9.587  17.743  0.00  0.00    +0.000 N 
ATOM     24  H   UNL     1      -0.029   8.660  17.348  0.00  0.00    +0.000 HD
BRANCH  23  25
ATOM     25  C   UNL     1      -1.030  10.376  17.968  0.00  0.00    +0.000 A 
ATOM     26  C   UNL     1      -1.183  11.177  19.107  0.00  0.00    +0.000 A 
ATOM     27  C   UNL     1      -2.360  11.888  19.369  0.00  0.00    +0.000 A 
ATOM     28  C   UNL     1      -3.380  11.760  18.432  0.00  0.00    +0.000 A 
ATOM     29  N   UNL     1      -4.659  12.253  18.392  0.00  0.00    +0.000 N 
ATOM     30  C   UNL     1      -5.240  11.800  17.242  0.00  0.00    +0.000 A 
ATOM     31  N   UNL     1      -4.416  11.074  16.528  0.00  0.00    +0.000 NA
ATOM     32  C   UNL     1      -3.256  11.020  17.263  0.00  0.00    +0.000 A 
ATOM     33  C   UNL     1      -2.054  10.334  17.007  0.00  0.00    +0.000 A 
ATOM     34  H   UNL     1      -5.089  12.824  19.103  0.00  0.00    +0.000 HD
BRANCH  30  35
ATOM     35  O   UNL     1      -6.488  12.051  16.887  0.00  0.00    +0.000 OA
ATOM     36  H   UNL     1      -6.891  11.237  16.547  0.00  0.00    +0.000 HD
ENDBRANCH  30  35
ENDBRANCH  23  25
ENDBRANCH  20  21
ENDBRANCH  19  20
ENDBRANCH   1  19
TORSDOF 8
ENDMDL
MODEL 2
REMARK VINA RESULT:      -8.6      5.807      9.624
REMARK  Name = 
REMARK  9 active torsions:
REMARK  status: ('A' for Active; 'I' for Inactive)
REMARK    1  A    between atoms: C_1  and  C_2
REMARK    2  A    between atoms: C_5  and  S_6
REMARK    3  A    between atoms: S_6  and  N_9
REMARK    4  A    between atoms: C_16  and  C_17
REMARK    5  A    between atoms: C_17  and  O_19
REMARK    6  A    between atoms: O_19  and  C_20
REMARK    7  A    between atoms: C_20  and  C_21
REMARK    8  A    between atoms: N_23  and  C_24
REMARK    9  A    between atoms: C_29  and  O_30
REMARK                            x       y       z     vdW  Elec       q    Type
REMARK                         _______ _______ _______ _____ _____    ______ ____
ROOT
ATOM      1  C   UNL     1       7.657   5.586  18.701  0.00  0.00    +0.000 C 
ATOM      2  O   UNL     1       8.445   4.765  19.139  0.00  0.00    +0.000 OA
ENDROOT
BRANCH   1   9
ATOM      3  C   UNL     1       7.389   4.675  15.830  0.00  0.00    +0.000 C 
ATOM      4  C   UNL     1       6.211   4.809  16.759  0.00  0.00    +0.000 A 
ATOM      5  C   UNL     1       4.942   4.455  16.263  0.00  0.00    +0.000 A 
ATOM      6  C   UNL     1       3.802   4.546  17.059  0.00  0.00    +0.000 A 
ATOM      7  C   UNL     1       3.925   4.982  18.375  0.00  0.00    +0.000 A 
ATOM      8  C   UNL     1       5.167   5.364  18.892  0.00  0.00    +0.000 A 
ATOM      9  C   UNL     1       6.325   5.273  18.090  0.00  0.00    +0.000 A 
BRANCH   7  10
ATOM     10  S   UNL     1       2.470   5.170  19.375  0.00  0.00    +0.000 S 
ATOM     11  O   UNL     1       1.408   4.428  18.731  0.00  0.00    +0.000 OA
ATOM     12  O   UNL     1       2.845   4.895  20.743  0.00  0.00    +0.000 OA
BRANCH  10  13
ATOM     13  N   UNL     1       2.112   6.805  19.252  0.00  0.00    +0.000 NA
ATOM     14  C   UNL     1       1.951   7.617  20.484  0.00  0.00    +0.000 C 
ATOM     15  C   UNL     1       1.055   8.818  20.143  0.00  0.00    +0.000 C 
ATOM     16  O   UNL     1       1.613   9.598  19.068  0.00  0.00    +0.000 OA
ATOM     17  C   UNL     1       1.791   8.794  17.888  0.00  0.00    +0.000 C 
ATOM     18  C   UNL     1       2.726   7.609  18.167  0.00  0.00    +0.000 C 
ENDBRANCH  10  13
ENDBRANCH   7  10
ENDBRANCH   1   9
BRANCH   1  19
ATOM     19  O   UNL     1       7.778   6.925  18.871  0.00  0.00    +0.000 OA
BRANCH  19  20
ATOM     20  C   UNL     1       7.806   7.699  17.669  0.00  0.00    +0.000 C 
BRANCH  20  21
ATOM     21  C   UNL     1       8.172   9.143  18.008  0.00  0.00    +0.000 C 
ATOM     22  O   UNL     1       7.657  10.072  17.390  0.00  0.00    +0.000 OA
ATOM     23  N   UNL     1       9.099   9.263  19.037  0.00  0.00    +0.000 N 
ATOM     24  H   UNL     1       9.590   8.414  19.314  0.00  0.00    +0.000 HD
BRANCH  23  25
ATOM     25  C   UNL     1       9.549  10.473  19.613  0.00  0.00    +0.000 A 
ATOM     26  C   UNL     1       9.103  10.925  20.862  0.00  0.00    +0.000 A 
ATOM     27  C   UNL     1       9.484  12.164  21.389  0.00  0.00    +0.000 A 
ATOM     28  C   UNL     1      10.337  12.933  20.605  0.00  0.00    +0.000 A 
ATOM     29  N   UNL     1      10.857  14.191  20.772  0.00  0.00    +0.000 N 
ATOM     30  C   UNL     1      11.628  14.468  19.679  0.00  0.00    +0.000 A 
ATOM     31  N   UNL     1      11.663  13.466  18.836  0.00  0.00    +0.000 NA
ATOM     32  C   UNL     1      10.847  12.505  19.385  0.00  0.00    +0.000 A 
ATOM     33  C   UNL     1      10.472  11.244  18.886  0.00  0.00    +0.000 A 
ATOM     34  H   UNL     1      10.673  14.802  21.553  0.00  0.00    +0.000 HD
BRANCH  30  35
ATOM     35  O   UNL     1      12.261  15.611  19.482  0.00  0.00    +0.000 OA
ATOM     36  H   UNL     1      13.196  15.500  19.708  0.00  0.00    +0.000 HD
ENDBRANCH  30  35
ENDBRANCH  23  25
ENDBRANCH  20  21
ENDBRANCH  19  20
ENDBRANCH   1  19
TORSDOF 8
ENDMDL
MODEL 3
REMARK VINA RESULT:      -8.6      2.239      3.034
REMARK  Name = 
REMARK  9 active torsions:
REMARK  status: ('A' for Active; 'I' for Inactive)
REMARK    1  A    between atoms: C_1  and  C_2
REMARK    2  A    between atoms: C_5  and  S_6
REMARK    3  A    between atoms: S_6  and  N_9
REMARK    4  A    between atoms: C_16  and  C_17
REMARK    5  A    between atoms: C_17  and  O_19
REMARK    6  A    between atoms: O_19  and  C_20
REMARK    7  A    between atoms: C_20  and  C_21
REMARK    8  A    between atoms: N_23  and  C_24
REMARK    9  A    between atoms: C_29  and  O_30
REMARK                            x       y       z     vdW  Elec       q    Type
REMARK                         _______ _______ _______ _____ _____    ______ ____
ROOT
ATOM      1  C   UNL     1       1.968   5.962  19.942  0.00  0.00    +0.000 C 
ATOM      2  O   UNL     1       1.349   5.531  20.900  0.00  0.00    +0.000 OA
ENDROOT
BRANCH   1   9
ATOM      3  C   UNL     1       1.042   3.141  19.372  0.00  0.00    +0.000 C 
ATOM      4  C   UNL     1       2.120   3.825  18.573  0.00  0.00    +0.000 A 
ATOM      5  C   UNL     1       2.684   3.118  17.494  0.00  0.00    +0.000 A 
ATOM      6  C   UNL     1       3.683   3.682  16.703  0.00  0.00    +0.000 A 
ATOM      7  C   UNL     1       4.121   4.974  16.978  0.00  0.00    +0.000 A 
ATOM      8  C   UNL     1       3.598   5.694  18.057  0.00  0.00    +0.000 A 
ATOM      9  C   UNL     1       2.585   5.129  18.860  0.00  0.00    +0.000 A 
BRANCH   7  10
ATOM     10  S   UNL     1       5.443   5.673  16.022  0.00  0.00    +0.000 S 
ATOM     11  O   UNL     1       6.043   4.595  15.266  0.00  0.00    +0.000 OA
ATOM     12  O   UNL     1       4.925   6.847  15.358  0.00  0.00    +0.000 OA
BRANCH  10  13
ATOM     13  N   UNL     1       6.549   6.176  17.181  0.00  0.00    +0.000 NA
ATOM     14  C   UNL     1       6.766   7.626  17.409  0.00  0.00    +0.000 C 
ATOM     15  C   UNL     1       8.175   7.805  17.995  0.00  0.00    +0.000 C 
ATOM     16  O   UNL     1       8.335   7.051  19.212  0.00  0.00    +0.000 OA
ATOM     17  C   UNL     1       8.094   5.651  18.986  0.00  0.00    +0.000 C 
ATOM     18  C   UNL     1       6.674   5.418  18.450  0.00  0.00    +0.000 C 
ENDBRANCH  10  13
ENDBRANCH   7  10
ENDBRANCH   1   9
BRANCH   1  19
ATOM     19  O   UNL     1       2.031   7.272  19.602  0.00  0.00    +0.000 OA
BRANCH  19  20
ATOM     20  C   UNL     1       1.892   8.197  20.683  0.00  0.00    +0.000 C 
BRANCH  20  21
ATOM     21  C   UNL     1       0.509   8.843  20.618  0.00  0.00    +0.000 C 
ATOM     22  O   UNL     1      -0.348   8.552  21.451  0.00  0.00    +0.000 OA
ATOM     23  N   UNL     1       0.354   9.740  19.568  0.00  0.00    +0.000 N 
ATOM     24  H   UNL     1       1.071   9.728  18.844  0.00  0.00    +0.000 HD
BRANCH  23  25
ATOM     25  C   UNL     1      -0.784  10.543  19.321  0.00  0.00    +0.000 A 
ATOM     26  C   UNL     1      -1.096  11.667  20.097  0.00  0.00    +0.000 A 
ATOM     27  C   UNL     1      -2.268  12.406  19.904  0.00  0.00    +0.000 A 
ATOM     28  C   UNL     1      -3.117  11.967  18.894  0.00  0.00    +0.000 A 
ATOM     29  N   UNL     1      -4.348  12.401  18.473  0.00  0.00    +0.000 N 
ATOM     30  C   UNL     1      -4.742  11.591  17.446  0.00  0.00    +0.000 A 
ATOM     31  N   UNL     1      -3.840  10.686  17.159  0.00  0.00    +0.000 NA
ATOM     32  C   UNL     1      -2.826  10.890  18.066  0.00  0.00    +0.000 A 
ATOM     33  C   UNL     1      -1.629  10.176  18.259  0.00  0.00    +0.000 A 
ATOM     34  H   UNL     1      -4.869  13.165  18.875  0.00  0.00    +0.000 HD
BRANCH  30  35
ATOM     35  O   UNL     1      -5.899  11.694  16.815  0.00  0.00    +0.000 OA
ATOM     36  H   UNL     1      -6.100  12.632  16.671  0.00  0.00    +0.000 HD
ENDBRANCH  30  35
ENDBRANCH  23  25
ENDBRANCH  20  21
ENDBRANCH  19  20
ENDBRANCH   1  19
TORSDOF 8
ENDMDL
MODEL 4
REMARK VINA RESULT:      -8.5      2.963      4.067
REMARK  Name = 
REMARK  9 active torsions:
REMARK  status: ('A' for Active; 'I' for Inactive)
REMARK    1  A    between atoms: C_1  and  C_2
REMARK    2  A    between atoms: C_5  and  S_6
REMARK    3  A    between atoms: S_6  and  N_9
REMARK    4  A    between atoms: C_16  and  C_17
REMARK    5  A    between atoms: C_17  and  O_19
REMARK    6  A    between atoms: O_19  and  C_20
REMARK    7  A    between atoms: C_20  and  C_21
REMARK    8  A    between atoms: N_23  and  C_24
REMARK    9  A    between atoms: C_29  and  O_30
REMARK                            x       y       z     vdW  Elec       q    Type
REMARK                         _______ _______ _______ _____ _____    ______ ____
ROOT
ATOM      1  C   UNL     1       2.091   8.809  17.971  0.00  0.00    +0.000 C 
ATOM      2  O   UNL     1       2.955   9.617  17.677  0.00  0.00    +0.000 OA
ENDROOT
BRANCH   1   9
ATOM      3  C   UNL     1       1.281   8.506  20.869  0.00  0.00    +0.000 C 
ATOM      4  C   UNL     1       1.897   7.387  20.070  0.00  0.00    +0.000 A 
ATOM      5  C   UNL     1       2.059   6.141  20.706  0.00  0.00    +0.000 A 
ATOM      6  C   UNL     1       2.616   5.054  20.035  0.00  0.00    +0.000 A 
ATOM      7  C   UNL     1       3.005   5.200  18.707  0.00  0.00    +0.000 A 
ATOM      8  C   UNL     1       2.878   6.431  18.053  0.00  0.00    +0.000 A 
ATOM      9  C   UNL     1       2.314   7.535  18.727  0.00  0.00    +0.000 A 
BRANCH   7  10
ATOM     10  S   UNL     1       3.780   3.843  17.867  0.00  0.00    +0.000 S 
ATOM     11  O   UNL     1       4.293   2.947  18.880  0.00  0.00    +0.000 OA
ATOM     12  O   UNL     1       2.859   3.373  16.857  0.00  0.00    +0.000 OA
BRANCH  10  13
ATOM     13  N   UNL     1       5.088   4.552  17.088  0.00  0.00    +0.000 NA
ATOM     14  C   UNL     1       6.252   5.017  17.882  0.00  0.00    +0.000 C 
ATOM     15  C   UNL     1       6.955   6.125  17.082  0.00  0.00    +0.000 C 
ATOM     16  O   UNL     1       7.359   5.656  15.782  0.00  0.00    +0.000 OA
ATOM     17  C   UNL     1       6.226   5.182  15.032  0.00  0.00    +0.000 C 
ATOM     18  C   UNL     1       5.523   4.033  15.768  0.00  0.00    +0.000 C 
ENDBRANCH  10  13
ENDBRANCH   7  10
ENDBRANCH   1   9
BRANCH   1  19
ATOM     19  O   UNL     1       0.762   9.029  17.829  0.00  0.00    +0.000 OA
BRANCH  19  20
ATOM     20  C   UNL     1       0.358  10.401  17.843  0.00  0.00    +0.000 C 
BRANCH  20  21
ATOM     21  C   UNL     1      -0.781  10.580  18.846  0.00  0.00    +0.000 C 
ATOM     22  O   UNL     1      -1.830   9.953  18.707  0.00  0.00    +0.000 OA
ATOM     23  N   UNL     1      -0.497  11.480  19.866  0.00  0.00    +0.000 N 
ATOM     24  H   UNL     1       0.322  12.073  19.741  0.00  0.00    +0.000 HD
BRANCH  23  25
ATOM     25  C   UNL     1      -1.329  11.771  20.972  0.00  0.00    +0.000 A 
ATOM     26  C   UNL     1      -1.041  11.325  22.269  0.00  0.00    +0.000 A 
ATOM     27  C   UNL     1      -1.911  11.541  23.344  0.00  0.00    +0.000 A 
ATOM     28  C   UNL     1      -3.087  12.228  23.060  0.00  0.00    +0.000 A 
ATOM     29  N   UNL     1      -4.169  12.559  23.834  0.00  0.00    +0.000 N 
ATOM     30  C   UNL     1      -5.058  13.223  23.038  0.00  0.00    +0.000 A 
ATOM     31  N   UNL     1      -4.612  13.367  21.815  0.00  0.00    +0.000 NA
ATOM     32  C   UNL     1      -3.391  12.734  21.802  0.00  0.00    +0.000 A 
ATOM     33  C   UNL     1      -2.490  12.529  20.740  0.00  0.00    +0.000 A 
ATOM     34  H   UNL     1      -4.286  12.325  24.808  0.00  0.00    +0.000 HD
BRANCH  30  35
ATOM     35  O   UNL     1      -6.236  13.666  23.442  0.00  0.00    +0.000 OA
ATOM     36  H   UNL     1      -6.843  12.915  23.534  0.00  0.00    +0.000 HD
ENDBRANCH  30  35
ENDBRANCH  23  25
ENDBRANCH  20  21
ENDBRANCH  19  20
ENDBRANCH   1  19
TORSDOF 8
ENDMDL
MODEL 5
REMARK VINA RESULT:      -8.4      0.995      1.254
REMARK  Name = 
REMARK  9 active torsions:
REMARK  status: ('A' for Active; 'I' for Inactive)
REMARK    1  A    between atoms: C_1  and  C_2
REMARK    2  A    between atoms: C_5  and  S_6
REMARK    3  A    between atoms: S_6  and  N_9
REMARK    4  A    between atoms: C_16  and  C_17
REMARK    5  A    between atoms: C_17  and  O_19
REMARK    6  A    between atoms: O_19  and  C_20
REMARK    7  A    between atoms: C_20  and  C_21
REMARK    8  A    between atoms: N_23  and  C_24
REMARK    9  A    between atoms: C_29  and  O_30
REMARK                            x       y       z     vdW  Elec       q    Type
REMARK                         _______ _______ _______ _____ _____    ______ ____
ROOT
ATOM      1  C   UNL     1       2.690   7.212  18.361  0.00  0.00    +0.000 C 
ATOM      2  O   UNL     1       2.747   8.274  17.766  0.00  0.00    +0.000 OA
ENDROOT
BRANCH   1   9
ATOM      3  C   UNL     1       1.556   4.442  18.791  0.00  0.00    +0.000 C 
ATOM      4  C   UNL     1       2.910   4.685  18.177  0.00  0.00    +0.000 A 
ATOM      5  C   UNL     1       3.650   3.563  17.756  0.00  0.00    +0.000 A 
ATOM      6  C   UNL     1       4.908   3.703  17.175  0.00  0.00    +0.000 A 
ATOM      7  C   UNL     1       5.437   4.978  16.994  0.00  0.00    +0.000 A 
ATOM      8  C   UNL     1       4.738   6.112  17.422  0.00  0.00    +0.000 A 
ATOM      9  C   UNL     1       3.462   5.976  18.010  0.00  0.00    +0.000 A 
BRANCH   7  10
ATOM     10  S   UNL     1       7.068   5.163  16.320  0.00  0.00    +0.000 S 
ATOM     11  O   UNL     1       7.399   6.570  16.378  0.00  0.00    +0.000 OA
ATOM     12  O   UNL     1       7.913   4.174  16.950  0.00  0.00    +0.000 OA
BRANCH  10  13
ATOM     13  N   UNL     1       6.883   4.736  14.707  0.00  0.00    +0.000 NA
ATOM     14  C   UNL     1       5.554   4.300  14.210  0.00  0.00    +0.000 C 
ATOM     15  C   UNL     1       5.781   3.413  12.976  0.00  0.00    +0.000 C 
ATOM     16  O   UNL     1       6.519   4.114  11.957  0.00  0.00    +0.000 OA
ATOM     17  C   UNL     1       7.794   4.557  12.458  0.00  0.00    +0.000 C 
ATOM     18  C   UNL     1       7.615   5.493  13.661  0.00  0.00    +0.000 C 
ENDBRANCH  10  13
ENDBRANCH   7  10
ENDBRANCH   1   9
BRANCH   1  19
ATOM     19  O   UNL     1       2.064   7.036  19.550  0.00  0.00    +0.000 OA
BRANCH  19  20
ATOM     20  C   UNL     1       2.063   8.170  20.420  0.00  0.00    +0.000 C 
BRANCH  20  21
ATOM     21  C   UNL     1       0.672   8.802  20.422  0.00  0.00    +0.000 C 
ATOM     22  O   UNL     1      -0.139   8.506  21.298  0.00  0.00    +0.000 OA
ATOM     23  N   UNL     1       0.455   9.694  19.379  0.00  0.00    +0.000 N 
ATOM     24  H   UNL     1       1.134   9.686  18.619  0.00  0.00    +0.000 HD
BRANCH  23  25
ATOM     25  C   UNL     1      -0.702  10.484  19.187  0.00  0.00    +0.000 A 
ATOM     26  C   UNL     1      -1.033  11.553  20.031  0.00  0.00    +0.000 A 
ATOM     27  C   UNL     1      -2.223  12.276  19.890  0.00  0.00    +0.000 A 
ATOM     28  C   UNL     1      -3.069  11.879  18.860  0.00  0.00    +0.000 A 
ATOM     29  N   UNL     1      -4.311  12.309  18.472  0.00  0.00    +0.000 N 
ATOM     30  C   UNL     1      -4.695  11.555  17.401  0.00  0.00    +0.000 A 
ATOM     31  N   UNL     1      -3.775  10.688  17.055  0.00  0.00    +0.000 NA
ATOM     32  C   UNL     1      -2.760  10.860  17.967  0.00  0.00    +0.000 A 
ATOM     33  C   UNL     1      -1.546  10.163  18.110  0.00  0.00    +0.000 A 
ATOM     34  H   UNL     1      -4.847  13.036  18.923  0.00  0.00    +0.000 HD
BRANCH  30  35
ATOM     35  O   UNL     1      -5.858  11.670  16.784  0.00  0.00    +0.000 OA
ATOM     36  H   UNL     1      -6.271  10.795  16.719  0.00  0.00    +0.000 HD
ENDBRANCH  30  35
ENDBRANCH  23  25
ENDBRANCH  20  21
ENDBRANCH  19  20
ENDBRANCH   1  19
TORSDOF 8
ENDMDL
MODEL 6
REMARK VINA RESULT:      -8.4      5.585      9.143
REMARK  Name = 
REMARK  9 active torsions:
REMARK  status: ('A' for Active; 'I' for Inactive)
REMARK    1  A    between atoms: C_1  and  C_2
REMARK    2  A    between atoms: C_5  and  S_6
REMARK    3  A    between atoms: S_6  and  N_9
REMARK    4  A    between atoms: C_16  and  C_17
REMARK    5  A    between atoms: C_17  and  O_19
REMARK    6  A    between atoms: O_19  and  C_20
REMARK    7  A    between atoms: C_20  and  C_21
REMARK    8  A    between atoms: N_23  and  C_24
REMARK    9  A    between atoms: C_29  and  O_30
REMARK                            x       y       z     vdW  Elec       q    Type
REMARK                         _______ _______ _______ _____ _____    ______ ____
ROOT
ATOM      1  C   UNL     1       7.429   5.773  18.848  0.00  0.00    +0.000 C 
ATOM      2  O   UNL     1       8.003   5.331  19.828  0.00  0.00    +0.000 OA
ENDROOT
BRANCH   1   9
ATOM      3  C   UNL     1       7.254   4.350  16.185  0.00  0.00    +0.000 C 
ATOM      4  C   UNL     1       6.059   4.570  17.075  0.00  0.00    +0.000 A 
ATOM      5  C   UNL     1       4.821   4.051  16.650  0.00  0.00    +0.000 A 
ATOM      6  C   UNL     1       3.669   4.207  17.416  0.00  0.00    +0.000 A 
ATOM      7  C   UNL     1       3.747   4.878  18.633  0.00  0.00    +0.000 A 
ATOM      8  C   UNL     1       4.956   5.426  19.074  0.00  0.00    +0.000 A 
ATOM      9  C   UNL     1       6.127   5.270  18.302  0.00  0.00    +0.000 A 
BRANCH   7  10
ATOM     10  S   UNL     1       2.271   5.145  19.583  0.00  0.00    +0.000 S 
ATOM     11  O   UNL     1       1.207   4.409  18.937  0.00  0.00    +0.000 OA
ATOM     12  O   UNL     1       2.600   4.913  20.971  0.00  0.00    +0.000 OA
BRANCH  10  13
ATOM     13  N   UNL     1       1.965   6.784  19.388  0.00  0.00    +0.000 NA
ATOM     14  C   UNL     1       1.879   7.663  20.580  0.00  0.00    +0.000 C 
ATOM     15  C   UNL     1       1.012   8.877  20.210  0.00  0.00    +0.000 C 
ATOM     16  O   UNL     1       1.555   9.580  19.076  0.00  0.00    +0.000 OA
ATOM     17  C   UNL     1       1.660   8.711  17.934  0.00  0.00    +0.000 C 
ATOM     18  C   UNL     1       2.564   7.509  18.240  0.00  0.00    +0.000 C 
ENDBRANCH  10  13
ENDBRANCH   7  10
ENDBRANCH   1   9
BRANCH   1  19
ATOM     19  O   UNL     1       7.781   6.914  18.208  0.00  0.00    +0.000 OA
BRANCH  19  20
ATOM     20  C   UNL     1       8.482   7.875  19.002  0.00  0.00    +0.000 C 
BRANCH  20  21
ATOM     21  C   UNL     1       8.519   9.210  18.259  0.00  0.00    +0.000 C 
ATOM     22  O   UNL     1       7.712   9.439  17.360  0.00  0.00    +0.000 OA
ATOM     23  N   UNL     1       9.513  10.074  18.702  0.00  0.00    +0.000 N 
ATOM     24  H   UNL     1      10.231   9.677  19.306  0.00  0.00    +0.000 HD
BRANCH  23  25
ATOM     25  C   UNL     1       9.719  11.401  18.258  0.00  0.00    +0.000 A 
ATOM     26  C   UNL     1      10.866  11.789  17.552  0.00  0.00    +0.000 A 
ATOM     27  C   UNL     1      11.106  13.120  17.191  0.00  0.00    +0.000 A 
ATOM     28  C   UNL     1      10.141  14.047  17.568  0.00  0.00    +0.000 A 
ATOM     29  N   UNL     1      10.074  15.410  17.438  0.00  0.00    +0.000 N 
ATOM     30  C   UNL     1       8.903  15.823  18.006  0.00  0.00    +0.000 A 
ATOM     31  N   UNL     1       8.199  14.818  18.467  0.00  0.00    +0.000 NA
ATOM     32  C   UNL     1       8.965  13.702  18.223  0.00  0.00    +0.000 A 
ATOM     33  C   UNL     1       8.730  12.355  18.554  0.00  0.00    +0.000 A 
ATOM     34  H   UNL     1      10.782  15.994  17.019  0.00  0.00    +0.000 HD
BRANCH  30  35
ATOM     35  O   UNL     1       8.518  17.084  18.093  0.00  0.00    +0.000 OA
ATOM     36  H   UNL     1       9.268  17.626  18.382  0.00  0.00    +0.000 HD
ENDBRANCH  30  35
ENDBRANCH  23  25
ENDBRANCH  20  21
ENDBRANCH  19  20
ENDBRANCH   1  19
TORSDOF 8
ENDMDL
MODEL 7
REMARK VINA RESULT:      -8.4      3.431      9.829
REMARK  Name = 
REMARK  9 active torsions:
REMARK  status: ('A' for Active; 'I' for Inactive)
REMARK    1  A    between atoms: C_1  and  C_2
REMARK    2  A    between atoms: C_5  and  S_6
REMARK    3  A    between atoms: S_6  and  N_9
REMARK    4  A    between atoms: C_16  and  C_17
REMARK    5  A    between atoms: C_17  and  O_19
REMARK    6  A    between atoms: O_19  and  C_20
REMARK    7  A    between atoms: C_20  and  C_21
REMARK    8  A    between atoms: N_23  and  C_24
REMARK    9  A    between atoms: C_29  and  O_30
REMARK                            x       y       z     vdW  Elec       q    Type
REMARK                         _______ _______ _______ _____ _____    ______ ____
ROOT
ATOM      1  C   UNL     1       1.485   4.464  20.352  0.00  0.00    +0.000 C 
ATOM      2  O   UNL     1       0.569   3.736  20.011  0.00  0.00    +0.000 OA
ENDROOT
BRANCH   1   9
ATOM      3  C   UNL     1       2.556   5.464  17.707  0.00  0.00    +0.000 C 
ATOM      4  C   UNL     1       2.059   6.386  18.789  0.00  0.00    +0.000 A 
ATOM      5  C   UNL     1       2.066   7.770  18.525  0.00  0.00    +0.000 A 
ATOM      6  C   UNL     1       1.619   8.689  19.472  0.00  0.00    +0.000 A 
ATOM      7  C   UNL     1       1.143   8.228  20.696  0.00  0.00    +0.000 A 
ATOM      8  C   UNL     1       1.144   6.862  20.999  0.00  0.00    +0.000 A 
ATOM      9  C   UNL     1       1.595   5.927  20.043  0.00  0.00    +0.000 A 
BRANCH   7  10
ATOM     10  S   UNL     1       0.638   9.395  21.935  0.00  0.00    +0.000 S 
ATOM     11  O   UNL     1      -0.563   8.874  22.551  0.00  0.00    +0.000 OA
ATOM     12  O   UNL     1       1.801   9.716  22.729  0.00  0.00    +0.000 OA
BRANCH  10  13
ATOM     13  N   UNL     1       0.220  10.758  21.050  0.00  0.00    +0.000 NA
ATOM     14  C   UNL     1      -0.795  10.653  19.972  0.00  0.00    +0.000 C 
ATOM     15  C   UNL     1      -0.535  11.787  18.968  0.00  0.00    +0.000 C 
ATOM     16  O   UNL     1      -0.583  13.076  19.610  0.00  0.00    +0.000 OA
ATOM     17  C   UNL     1       0.386  13.157  20.672  0.00  0.00    +0.000 C 
ATOM     18  C   UNL     1       0.132  12.074  21.730  0.00  0.00    +0.000 C 
ENDBRANCH  10  13
ENDBRANCH   7  10
ENDBRANCH   1   9
BRANCH   1  19
ATOM     19  O   UNL     1       2.456   4.109  21.228  0.00  0.00    +0.000 OA
BRANCH  19  20
ATOM     20  C   UNL     1       3.020   2.810  21.030  0.00  0.00    +0.000 C 
BRANCH  20  21
ATOM     21  C   UNL     1       3.944   2.844  19.813  0.00  0.00    +0.000 C 
ATOM     22  O   UNL     1       3.975   1.891  19.036  0.00  0.00    +0.000 OA
ATOM     23  N   UNL     1       4.692   4.010  19.705  0.00  0.00    +0.000 N 
ATOM     24  H   UNL     1       4.716   4.618  20.522  0.00  0.00    +0.000 HD
BRANCH  23  25
ATOM     25  C   UNL     1       5.557   4.346  18.638  0.00  0.00    +0.000 A 
ATOM     26  C   UNL     1       6.662   5.192  18.801  0.00  0.00    +0.000 A 
ATOM     27  C   UNL     1       7.464   5.592  17.726  0.00  0.00    +0.000 A 
ATOM     28  C   UNL     1       7.108   5.101  16.474  0.00  0.00    +0.000 A 
ATOM     29  N   UNL     1       7.617   5.322  15.221  0.00  0.00    +0.000 N 
ATOM     30  C   UNL     1       6.871   4.596  14.337  0.00  0.00    +0.000 A 
ATOM     31  N   UNL     1       5.936   3.902  14.938  0.00  0.00    +0.000 NA
ATOM     32  C   UNL     1       6.053   4.219  16.270  0.00  0.00    +0.000 A 
ATOM     33  C   UNL     1       5.276   3.809  17.369  0.00  0.00    +0.000 A 
ATOM     34  H   UNL     1       8.388   5.935  15.001  0.00  0.00    +0.000 HD
BRANCH  30  35
ATOM     35  O   UNL     1       7.055   4.594  13.029  0.00  0.00    +0.000 OA
ATOM     36  H   UNL     1       7.499   3.771  12.772  0.00  0.00    +0.000 HD
ENDBRANCH  30  35
ENDBRANCH  23  25
ENDBRANCH  20  21
ENDBRANCH  19  20
ENDBRANCH   1  19
TORSDOF 8
ENDMDL
MODEL 8
REMARK VINA RESULT:      -8.3      5.770      9.420
REMARK  Name = 
REMARK  9 active torsions:
REMARK  status: ('A' for Active; 'I' for Inactive)
REMARK    1  A    between atoms: C_1  and  C_2
REMARK    2  A    between atoms: C_5  and  S_6
REMARK    3  A    between atoms: S_6  and  N_9
REMARK    4  A    between atoms: C_16  and  C_17
REMARK    5  A    between atoms: C_17  and  O_19
REMARK    6  A    between atoms: O_19  and  C_20
REMARK    7  A    between atoms: C_20  and  C_21
REMARK    8  A    between atoms: N_23  and  C_24
REMARK    9  A    between atoms: C_29  and  O_30
REMARK                            x       y       z     vdW  Elec       q    Type
REMARK                         _______ _______ _______ _____ _____    ______ ____
ROOT
ATOM      1  C   UNL     1       7.075   5.714  18.926  0.00  0.00    +0.000 C 
ATOM      2  O   UNL     1       7.478   5.298  19.998  0.00  0.00    +0.000 OA
ENDROOT
BRANCH   1   9
ATOM      3  C   UNL     1       7.547   4.497  16.198  0.00  0.00    +0.000 C 
ATOM      4  C   UNL     1       6.196   4.511  16.865  0.00  0.00    +0.000 A 
ATOM      5  C   UNL     1       5.126   3.892  16.191  0.00  0.00    +0.000 A 
ATOM      6  C   UNL     1       3.847   3.858  16.742  0.00  0.00    +0.000 A 
ATOM      7  C   UNL     1       3.627   4.434  17.990  0.00  0.00    +0.000 A 
ATOM      8  C   UNL     1       4.663   5.077  18.675  0.00  0.00    +0.000 A 
ATOM      9  C   UNL     1       5.961   5.114  18.123  0.00  0.00    +0.000 A 
BRANCH   7  10
ATOM     10  S   UNL     1       1.987   4.459  18.667  0.00  0.00    +0.000 S 
ATOM     11  O   UNL     1       1.065   4.287  17.566  0.00  0.00    +0.000 OA
ATOM     12  O   UNL     1       1.971   3.559  19.798  0.00  0.00    +0.000 OA
BRANCH  10  13
ATOM     13  N   UNL     1       1.820   6.025  19.247  0.00  0.00    +0.000 NA
ATOM     14  C   UNL     1       1.822   6.272  20.710  0.00  0.00    +0.000 C 
ATOM     15  C   UNL     1       1.059   7.580  20.969  0.00  0.00    +0.000 C 
ATOM     16  O   UNL     1       1.648   8.680  20.249  0.00  0.00    +0.000 OA
ATOM     17  C   UNL     1       1.667   8.419  18.834  0.00  0.00    +0.000 C 
ATOM     18  C   UNL     1       2.468   7.146  18.522  0.00  0.00    +0.000 C 
ENDBRANCH  10  13
ENDBRANCH   7  10
ENDBRANCH   1   9
BRANCH   1  19
ATOM     19  O   UNL     1       7.443   6.899  18.381  0.00  0.00    +0.000 OA
BRANCH  19  20
ATOM     20  C   UNL     1       8.546   7.553  19.014  0.00  0.00    +0.000 C 
BRANCH  20  21
ATOM     21  C   UNL     1       8.597   9.010  18.557  0.00  0.00    +0.000 C 
ATOM     22  O   UNL     1       7.883   9.392  17.632  0.00  0.00    +0.000 OA
ATOM     23  N   UNL     1       9.493   9.795  19.273  0.00  0.00    +0.000 N 
ATOM     24  H   UNL     1      10.159   9.305  19.868  0.00  0.00    +0.000 HD
BRANCH  23  25
ATOM     25  C   UNL     1       9.680  11.189  19.124  0.00  0.00    +0.000 A 
ATOM     26  C   UNL     1       9.196  12.118  20.055  0.00  0.00    +0.000 A 
ATOM     27  C   UNL     1       9.307  13.499  19.859  0.00  0.00    +0.000 A 
ATOM     28  C   UNL     1       9.929  13.909  18.684  0.00  0.00    +0.000 A 
ATOM     29  N   UNL     1      10.156  15.150  18.148  0.00  0.00    +0.000 N 
ATOM     30  C   UNL     1      10.796  14.974  16.955  0.00  0.00    +0.000 A 
ATOM     31  N   UNL     1      11.022  13.709  16.700  0.00  0.00    +0.000 NA
ATOM     32  C   UNL     1      10.470  13.026  17.758  0.00  0.00    +0.000 A 
ATOM     33  C   UNL     1      10.371  11.641  17.987  0.00  0.00    +0.000 A 
ATOM     34  H   UNL     1       9.871  16.027  18.558  0.00  0.00    +0.000 HD
BRANCH  30  35
ATOM     35  O   UNL     1      11.143  15.956  16.141  0.00  0.00    +0.000 OA
ATOM     36  H   UNL     1      10.864  15.735  15.239  0.00  0.00    +0.000 HD
ENDBRANCH  30  35
ENDBRANCH  23  25
ENDBRANCH  20  21
ENDBRANCH  19  20
ENDBRANCH   1  19
TORSDOF 8
ENDMDL
MODEL 9
REMARK VINA RESULT:      -8.3      4.205     11.485
REMARK  Name = 
REMARK  9 active torsions:
REMARK  status: ('A' for Active; 'I' for Inactive)
REMARK    1  A    between atoms: C_1  and  C_2
REMARK    2  A    between atoms: C_5  and  S_6
REMARK    3  A    between atoms: S_6  and  N_9
REMARK    4  A    between atoms: C_16  and  C_17
REMARK    5  A    between atoms: C_17  and  O_19
REMARK    6  A    between atoms: O_19  and  C_20
REMARK    7  A    between atoms: C_20  and  C_21
REMARK    8  A    between atoms: N_23  and  C_24
REMARK    9  A    between atoms: C_29  and  O_30
REMARK                            x       y       z     vdW  Elec       q    Type
REMARK                         _______ _______ _______ _____ _____    ______ ____
ROOT
ATOM      1  C   UNL     1      -0.459  11.568  18.673  0.00  0.00    +0.000 C 
ATOM      2  O   UNL     1       0.366  12.409  18.360  0.00  0.00    +0.000 OA
ENDROOT
BRANCH   1   9
ATOM      3  C   UNL     1      -2.333  10.642  16.488  0.00  0.00    +0.000 C 
ATOM      4  C   UNL     1      -2.813  11.318  17.746  0.00  0.00    +0.000 A 
ATOM      5  C   UNL     1      -4.202  11.483  17.912  0.00  0.00    +0.000 A 
ATOM      6  C   UNL     1      -4.727  12.093  19.048  0.00  0.00    +0.000 A 
ATOM      7  C   UNL     1      -3.863  12.535  20.045  0.00  0.00    +0.000 A 
ATOM      8  C   UNL     1      -2.477  12.407  19.902  0.00  0.00    +0.000 A 
ATOM      9  C   UNL     1      -1.939  11.789  18.753  0.00  0.00    +0.000 A 
BRANCH   7  10
ATOM     10  S   UNL     1      -4.518  13.378  21.463  0.00  0.00    +0.000 S 
ATOM     11  O   UNL     1      -5.411  14.406  20.976  0.00  0.00    +0.000 OA
ATOM     12  O   UNL     1      -4.978  12.372  22.393  0.00  0.00    +0.000 OA
BRANCH  10  13
ATOM     13  N   UNL     1      -3.175  14.130  22.134  0.00  0.00    +0.000 NA
ATOM     14  C   UNL     1      -2.864  15.536  21.778  0.00  0.00    +0.000 C 
ATOM     15  C   UNL     1      -1.357  15.754  21.986  0.00  0.00    +0.000 C 
ATOM     16  O   UNL     1      -0.969  15.457  23.341  0.00  0.00    +0.000 OA
ATOM     17  C   UNL     1      -1.300  14.100  23.685  0.00  0.00    +0.000 C 
ATOM     18  C   UNL     1      -2.808  13.850  23.545  0.00  0.00    +0.000 C 
ENDBRANCH  10  13
ENDBRANCH   7  10
ENDBRANCH   1   9
BRANCH   1  19
ATOM     19  O   UNL     1      -0.186  10.248  18.814  0.00  0.00    +0.000 OA
BRANCH  19  20
ATOM     20  C   UNL     1       1.093   9.939  19.373  0.00  0.00    +0.000 C 
BRANCH  20  21
ATOM     21  C   UNL     1       1.750   8.835  18.546  0.00  0.00    +0.000 C 
ATOM     22  O   UNL     1       1.904   8.980  17.334  0.00  0.00    +0.000 OA
ATOM     23  N   UNL     1       2.126   7.722  19.288  0.00  0.00    +0.000 N 
ATOM     24  H   UNL     1       1.755   7.654  20.234  0.00  0.00    +0.000 HD
BRANCH  23  25
ATOM     25  C   UNL     1       2.829   6.596  18.800  0.00  0.00    +0.000 A 
ATOM     26  C   UNL     1       3.765   6.685  17.760  0.00  0.00    +0.000 A 
ATOM     27  C   UNL     1       4.393   5.556  17.222  0.00  0.00    +0.000 A 
ATOM     28  C   UNL     1       4.042   4.330  17.776  0.00  0.00    +0.000 A 
ATOM     29  N   UNL     1       4.404   3.044  17.468  0.00  0.00    +0.000 N 
ATOM     30  C   UNL     1       3.743   2.212  18.326  0.00  0.00    +0.000 A 
ATOM     31  N   UNL     1       3.004   2.874  19.181  0.00  0.00    +0.000 NA
ATOM     32  C   UNL     1       3.160   4.197  18.841  0.00  0.00    +0.000 A 
ATOM     33  C   UNL     1       2.559   5.348  19.385  0.00  0.00    +0.000 A 
ATOM     34  H   UNL     1       5.027   2.773  16.722  0.00  0.00    +0.000 HD
BRANCH  30  35
ATOM     35  O   UNL     1       3.825   0.893  18.299  0.00  0.00    +0.000 OA
ATOM     36  H   UNL     1       2.937   0.517  18.397  0.00  0.00    +0.000 HD
ENDBRANCH  30  35
ENDBRANCH  23  25
ENDBRANCH  20  21
ENDBRANCH  19  20
ENDBRANCH   1  19
TORSDOF 8
ENDMDL
