MODEL 1
REMARK VINA RESULT:      -8.0      0.000      0.000
REMARK  Name = 
REMARK  4 active torsions:
REMARK  status: ('A' for Active; 'I' for Inactive)
REMARK    1  A    between atoms: C_2  and  C_19
REMARK    2  A    between atoms: N_3  and  C_4
REMARK    3  A    between atoms: C_8  and  S_9
REMARK    4  A    between atoms: S_9  and  N_12
REMARK                            x       y       z     vdW  Elec       q    Type
REMARK                         _______ _______ _______ _____ _____    ______ ____
ROOT
ATOM      1  C   UNL     1       8.006   8.007  17.923  0.00  0.00    +0.000 A 
ATOM      2  C   UNL     1       8.428   7.248  19.019  0.00  0.00    +0.000 A 
ATOM      3  C   UNL     1       7.971   5.945  19.219  0.00  0.00    +0.000 A 
ATOM      4  C   UNL     1       7.103   5.369  18.299  0.00  0.00    +0.000 A 
ATOM      5  C   UNL     1       6.699   6.104  17.179  0.00  0.00    +0.000 A 
ATOM      6  C   UNL     1       7.099   7.442  17.018  0.00  0.00    +0.000 A 
ENDROOT
BRANCH   1   9
ATOM      7  O   UNL     1       9.135   9.867  19.864  0.00  0.00    +0.000 OA
ATOM      8  C   UNL     1       9.000  10.148  18.675  0.00  0.00    +0.000 C 
ATOM      9  N   UNL     1       8.483   9.316  17.694  0.00  0.00    +0.000 N 
ATOM     10  H   UNL     1       8.566   9.659  16.741  0.00  0.00    +0.000 HD
BRANCH   8  11
ATOM     11  C   UNL     1       9.475  11.485  18.208  0.00  0.00    +0.000 A 
ATOM     12  C   UNL     1      10.760  11.585  17.674  0.00  0.00    +0.000 A 
ATOM     13  C   UNL     1      11.225  12.837  17.302  0.00  0.00    +0.000 A 
ATOM     14  C   UNL     1      10.397  13.941  17.475  0.00  0.00    +0.000 A 
ATOM     15  C   UNL     1       9.128  13.745  17.996  0.00  0.00    +0.000 A 
ATOM     16  N   UNL     1       8.629  12.538  18.361  0.00  0.00    +0.000 NA
ENDBRANCH   8  11
ENDBRANCH   1   9
BRANCH   5  17
ATOM     17  S   UNL     1       5.592   5.337  16.003  0.00  0.00    +0.000 S 
ATOM     18  O   UNL     1       5.368   6.293  14.938  0.00  0.00    +0.000 OA
ATOM     19  O   UNL     1       6.128   4.018  15.721  0.00  0.00    +0.000 OA
BRANCH  17  20
ATOM     20  N   UNL     1       4.113   5.138  16.852  0.00  0.00    +0.000 NA
ATOM     21  C   UNL     1       3.828   3.761  17.325  0.00  0.00    +0.000 C 
ATOM     22  C   UNL     1       2.398   3.628  17.840  0.00  0.00    +0.000 C 
ATOM     23  C   UNL     1       2.095   4.677  18.898  0.00  0.00    +0.000 C 
ATOM     24  C   UNL     1       2.314   6.065  18.315  0.00  0.00    +0.000 C 
ATOM     25  C   UNL     1       3.736   6.235  17.781  0.00  0.00    +0.000 C 
ENDBRANCH  17  20
ENDBRANCH   5  17
TORSDOF 4
ENDMDL
MODEL 2
REMARK VINA RESULT:      -8.0      5.049      6.950
REMARK  Name = 
REMARK  4 active torsions:
REMARK  status: ('A' for Active; 'I' for Inactive)
REMARK    1  A    between atoms: C_2  and  C_19
REMARK    2  A    between atoms: N_3  and  C_4
REMARK    3  A    between atoms: C_8  and  S_9
REMARK    4  A    between atoms: S_9  and  N_12
REMARK                            x       y       z     vdW  Elec       q    Type
REMARK                         _______ _______ _______ _____ _____    ______ ____
ROOT
ATOM      1  C   UNL     1       3.325   5.973  17.787  0.00  0.00    +0.000 A 
ATOM      2  C   UNL     1       2.808   4.675  17.864  0.00  0.00    +0.000 A 
ATOM      3  C   UNL     1       3.536   3.576  17.404  0.00  0.00    +0.000 A 
ATOM      4  C   UNL     1       4.812   3.760  16.887  0.00  0.00    +0.000 A 
ATOM      5  C   UNL     1       5.356   5.048  16.835  0.00  0.00    +0.000 A 
ATOM      6  C   UNL     1       4.595   6.164  17.227  0.00  0.00    +0.000 A 
ENDROOT
BRANCH   1   9
ATOM      7  O   UNL     1       2.348   6.432  20.496  0.00  0.00    +0.000 OA
ATOM      8  C   UNL     1       2.170   7.232  19.580  0.00  0.00    +0.000 C 
ATOM      9  N   UNL     1       2.611   7.089  18.274  0.00  0.00    +0.000 N 
ATOM     10  H   UNL     1       2.492   7.905  17.680  0.00  0.00    +0.000 HD
BRANCH   8  11
ATOM     11  C   UNL     1       1.457   8.509  19.888  0.00  0.00    +0.000 A 
ATOM     12  C   UNL     1       0.820   8.633  21.123  0.00  0.00    +0.000 A 
ATOM     13  C   UNL     1       0.103   9.791  21.383  0.00  0.00    +0.000 A 
ATOM     14  C   UNL     1       0.046  10.780  20.407  0.00  0.00    +0.000 A 
ATOM     15  C   UNL     1       0.725  10.579  19.215  0.00  0.00    +0.000 A 
ATOM     16  N   UNL     1       1.448   9.468  18.926  0.00  0.00    +0.000 NA
ENDBRANCH   8  11
ENDBRANCH   1   9
BRANCH   5  17
ATOM     17  S   UNL     1       7.005   5.258  16.177  0.00  0.00    +0.000 S 
ATOM     18  O   UNL     1       7.362   6.651  16.351  0.00  0.00    +0.000 OA
ATOM     19  O   UNL     1       7.821   4.202  16.746  0.00  0.00    +0.000 OA
BRANCH  17  20
ATOM     20  N   UNL     1       6.851   4.960  14.493  0.00  0.00    +0.000 NA
ATOM     21  C   UNL     1       8.003   5.385  13.661  0.00  0.00    +0.000 C 
ATOM     22  C   UNL     1       7.678   5.312  12.172  0.00  0.00    +0.000 C 
ATOM     23  C   UNL     1       7.165   3.935  11.787  0.00  0.00    +0.000 C 
ATOM     24  C   UNL     1       5.927   3.606  12.609  0.00  0.00    +0.000 C 
ATOM     25  C   UNL     1       6.211   3.674  14.109  0.00  0.00    +0.000 C 
ENDBRANCH  17  20
ENDBRANCH   5  17
TORSDOF 4
ENDMDL
MODEL 3
REMARK VINA RESULT:      -7.9      0.375      1.077
REMARK  Name = 
REMARK  4 active torsions:
REMARK  status: ('A' for Active; 'I' for Inactive)
REMARK    1  A    between atoms: C_2  and  C_19
REMARK    2  A    between atoms: N_3  and  C_4
REMARK    3  A    between atoms: C_8  and  S_9
REMARK    4  A    between atoms: S_9  and  N_12
REMARK                            x       y       z     vdW  Elec       q    Type
REMARK                         _______ _______ _______ _____ _____    ______ ____
ROOT
ATOM      1  C   UNL     1       8.080   8.176  17.975  0.00  0.00    +0.000 A 
ATOM      2  C   UNL     1       8.534   7.408  19.053  0.00  0.00    +0.000 A 
ATOM      3  C   UNL     1       8.068   6.110  19.266  0.00  0.00    +0.000 A 
ATOM      4  C   UNL     1       7.159   5.548  18.377  0.00  0.00    +0.000 A 
ATOM      5  C   UNL     1       6.724   6.291  17.275  0.00  0.00    +0.000 A 
ATOM      6  C   UNL     1       7.133   7.625  17.103  0.00  0.00    +0.000 A 
ENDROOT
BRANCH   1   9
ATOM      7  O   UNL     1       9.197  10.058  19.901  0.00  0.00    +0.000 OA
ATOM      8  C   UNL     1       9.075  10.323  18.707  0.00  0.00    +0.000 C 
ATOM      9  N   UNL     1       8.565   9.480  17.733  0.00  0.00    +0.000 N 
ATOM     10  H   UNL     1       8.659   9.809  16.776  0.00  0.00    +0.000 HD
BRANCH   8  11
ATOM     11  C   UNL     1       9.560  11.652  18.226  0.00  0.00    +0.000 A 
ATOM     12  C   UNL     1      10.824  11.726  17.639  0.00  0.00    +0.000 A 
ATOM     13  C   UNL     1      11.301  12.969  17.253  0.00  0.00    +0.000 A 
ATOM     14  C   UNL     1      10.505  14.091  17.464  0.00  0.00    +0.000 A 
ATOM     15  C   UNL     1       9.255  13.920  18.038  0.00  0.00    +0.000 A 
ATOM     16  N   UNL     1       8.745  12.722  18.418  0.00  0.00    +0.000 NA
ENDBRANCH   8  11
ENDBRANCH   1   9
BRANCH   5  17
ATOM     17  S   UNL     1       5.564   5.542  16.139  0.00  0.00    +0.000 S 
ATOM     18  O   UNL     1       5.060   6.596  15.282  0.00  0.00    +0.000 OA
ATOM     19  O   UNL     1       6.221   4.375  15.578  0.00  0.00    +0.000 OA
BRANCH  17  20
ATOM     20  N   UNL     1       4.267   4.998  17.124  0.00  0.00    +0.000 NA
ATOM     21  C   UNL     1       3.377   6.061  17.653  0.00  0.00    +0.000 C 
ATOM     22  C   UNL     1       2.416   5.517  18.706  0.00  0.00    +0.000 C 
ATOM     23  C   UNL     1       1.639   4.323  18.177  0.00  0.00    +0.000 C 
ATOM     24  C   UNL     1       2.611   3.235  17.745  0.00  0.00    +0.000 C 
ATOM     25  C   UNL     1       3.596   3.744  16.692  0.00  0.00    +0.000 C 
ENDBRANCH  17  20
ENDBRANCH   5  17
TORSDOF 4
ENDMDL
MODEL 4
REMARK VINA RESULT:      -7.8      4.984      6.743
REMARK  Name = 
REMARK  4 active torsions:
REMARK  status: ('A' for Active; 'I' for Inactive)
REMARK    1  A    between atoms: C_2  and  C_19
REMARK    2  A    between atoms: N_3  and  C_4
REMARK    3  A    between atoms: C_8  and  S_9
REMARK    4  A    between atoms: S_9  and  N_12
REMARK                            x       y       z     vdW  Elec       q    Type
REMARK                         _______ _______ _______ _____ _____    ______ ____
ROOT
ATOM      1  C   UNL     1       3.156   6.393  17.758  0.00  0.00    +0.000 A 
ATOM      2  C   UNL     1       2.639   5.118  18.010  0.00  0.00    +0.000 A 
ATOM      3  C   UNL     1       3.375   3.967  17.726  0.00  0.00    +0.000 A 
ATOM      4  C   UNL     1       4.661   4.080  17.212  0.00  0.00    +0.000 A 
ATOM      5  C   UNL     1       5.205   5.348  16.987  0.00  0.00    +0.000 A 
ATOM      6  C   UNL     1       4.436   6.506  17.201  0.00  0.00    +0.000 A 
ENDROOT
BRANCH   1   9
ATOM      7  O   UNL     1       2.209   7.277  20.370  0.00  0.00    +0.000 OA
ATOM      8  C   UNL     1       2.006   7.915  19.339  0.00  0.00    +0.000 C 
ATOM      9  N   UNL     1       2.432   7.565  18.067  0.00  0.00    +0.000 N 
ATOM     10  H   UNL     1       2.293   8.271  17.349  0.00  0.00    +0.000 HD
BRANCH   8  11
ATOM     11  C   UNL     1       1.279   9.215  19.445  0.00  0.00    +0.000 A 
ATOM     12  C   UNL     1       1.537  10.201  18.492  0.00  0.00    +0.000 A 
ATOM     13  C   UNL     1       0.912  11.431  18.628  0.00  0.00    +0.000 A 
ATOM     14  C   UNL     1       0.055  11.635  19.706  0.00  0.00    +0.000 A 
ATOM     15  C   UNL     1      -0.156  10.592  20.594  0.00  0.00    +0.000 A 
ATOM     16  N   UNL     1       0.424   9.370  20.491  0.00  0.00    +0.000 NA
ENDBRANCH   8  11
ENDBRANCH   1   9
BRANCH   5  17
ATOM     17  S   UNL     1       6.866   5.467  16.337  0.00  0.00    +0.000 S 
ATOM     18  O   UNL     1       7.264   6.858  16.428  0.00  0.00    +0.000 OA
ATOM     19  O   UNL     1       7.645   4.426  16.982  0.00  0.00    +0.000 OA
BRANCH  17  20
ATOM     20  N   UNL     1       6.720   5.069  14.673  0.00  0.00    +0.000 NA
ATOM     21  C   UNL     1       7.911   5.363  13.839  0.00  0.00    +0.000 C 
ATOM     22  C   UNL     1       7.606   5.213  12.352  0.00  0.00    +0.000 C 
ATOM     23  C   UNL     1       7.011   3.848  12.048  0.00  0.00    +0.000 C 
ATOM     24  C   UNL     1       5.742   3.653  12.863  0.00  0.00    +0.000 C 
ATOM     25  C   UNL     1       6.006   3.803  14.362  0.00  0.00    +0.000 C 
ENDBRANCH  17  20
ENDBRANCH   5  17
TORSDOF 4
ENDMDL
MODEL 5
REMARK VINA RESULT:      -7.7      2.262      3.142
REMARK  Name = 
REMARK  4 active torsions:
REMARK  status: ('A' for Active; 'I' for Inactive)
REMARK    1  A    between atoms: C_2  and  C_19
REMARK    2  A    between atoms: N_3  and  C_4
REMARK    3  A    between atoms: C_8  and  S_9
REMARK    4  A    between atoms: S_9  and  N_12
REMARK                            x       y       z     vdW  Elec       q    Type
REMARK                         _______ _______ _______ _____ _____    ______ ____
ROOT
ATOM      1  C   UNL     1       6.441   6.581  16.966  0.00  0.00    +0.000 A 
ATOM      2  C   UNL     1       7.124   5.608  16.229  0.00  0.00    +0.000 A 
ATOM      3  C   UNL     1       6.542   4.373  15.942  0.00  0.00    +0.000 A 
ATOM      4  C   UNL     1       5.246   4.106  16.366  0.00  0.00    +0.000 A 
ATOM      5  C   UNL     1       4.537   5.082  17.074  0.00  0.00    +0.000 A 
ATOM      6  C   UNL     1       5.151   6.296  17.430  0.00  0.00    +0.000 A 
ENDROOT
BRANCH   1   9
ATOM      7  O   UNL     1       8.528   7.230  18.897  0.00  0.00    +0.000 OA
ATOM      8  C   UNL     1       7.996   8.078  18.183  0.00  0.00    +0.000 C 
ATOM      9  N   UNL     1       7.008   7.845  17.239  0.00  0.00    +0.000 N 
ATOM     10  H   UNL     1       6.775   8.636  16.645  0.00  0.00    +0.000 HD
BRANCH   8  11
ATOM     11  C   UNL     1       8.474   9.489  18.288  0.00  0.00    +0.000 A 
ATOM     12  C   UNL     1       9.395   9.807  19.286  0.00  0.00    +0.000 A 
ATOM     13  C   UNL     1       9.788  11.128  19.426  0.00  0.00    +0.000 A 
ATOM     14  C   UNL     1       9.252  12.084  18.569  0.00  0.00    +0.000 A 
ATOM     15  C   UNL     1       8.357  11.675  17.594  0.00  0.00    +0.000 A 
ATOM     16  N   UNL     1       7.955  10.392  17.414  0.00  0.00    +0.000 NA
ENDBRANCH   8  11
ENDBRANCH   1   9
BRANCH   5  17
ATOM     17  S   UNL     1       2.867   4.719  17.598  0.00  0.00    +0.000 S 
ATOM     18  O   UNL     1       2.169   5.984  17.715  0.00  0.00    +0.000 OA
ATOM     19  O   UNL     1       2.370   3.673  16.723  0.00  0.00    +0.000 OA
BRANCH  17  20
ATOM     20  N   UNL     1       3.030   4.060  19.175  0.00  0.00    +0.000 NA
ATOM     21  C   UNL     1       1.947   4.406  20.128  0.00  0.00    +0.000 C 
ATOM     22  C   UNL     1       2.299   3.991  21.553  0.00  0.00    +0.000 C 
ATOM     23  C   UNL     1       2.678   2.521  21.620  0.00  0.00    +0.000 C 
ATOM     24  C   UNL     1       3.856   2.258  20.694  0.00  0.00    +0.000 C 
ATOM     25  C   UNL     1       3.544   2.667  19.254  0.00  0.00    +0.000 C 
ENDBRANCH  17  20
ENDBRANCH   5  17
TORSDOF 4
ENDMDL
MODEL 6
REMARK VINA RESULT:      -7.7      5.018      7.204
REMARK  Name = 
REMARK  4 active torsions:
REMARK  status: ('A' for Active; 'I' for Inactive)
REMARK    1  A    between atoms: C_2  and  C_19
REMARK    2  A    between atoms: N_3  and  C_4
REMARK    3  A    between atoms: C_8  and  S_9
REMARK    4  A    between atoms: S_9  and  N_12
REMARK                            x       y       z     vdW  Elec       q    Type
REMARK                         _______ _______ _______ _____ _____    ______ ____
ROOT
ATOM      1  C   UNL     1       1.920   5.063  20.761  0.00  0.00    +0.000 A 
ATOM      2  C   UNL     1       2.073   4.099  21.763  0.00  0.00    +0.000 A 
ATOM      3  C   UNL     1       2.571   2.827  21.477  0.00  0.00    +0.000 A 
ATOM      4  C   UNL     1       2.956   2.512  20.180  0.00  0.00    +0.000 A 
ATOM      5  C   UNL     1       2.842   3.476  19.174  0.00  0.00    +0.000 A 
ATOM      6  C   UNL     1       2.269   4.731  19.445  0.00  0.00    +0.000 A 
ENDROOT
BRANCH   1   9
ATOM      7  O   UNL     1       2.491   7.532  19.318  0.00  0.00    +0.000 OA
ATOM      8  C   UNL     1       1.769   7.494  20.312  0.00  0.00    +0.000 C 
ATOM      9  N   UNL     1       1.444   6.362  21.042  0.00  0.00    +0.000 N 
ATOM     10  H   UNL     1       0.730   6.490  21.754  0.00  0.00    +0.000 HD
BRANCH   8  11
ATOM     11  C   UNL     1       1.130   8.765  20.768  0.00  0.00    +0.000 A 
ATOM     12  C   UNL     1       0.687   8.851  22.088  0.00  0.00    +0.000 A 
ATOM     13  C   UNL     1       0.035  10.005  22.492  0.00  0.00    +0.000 A 
ATOM     14  C   UNL     1      -0.153  11.030  21.571  0.00  0.00    +0.000 A 
ATOM     15  C   UNL     1       0.337  10.866  20.285  0.00  0.00    +0.000 A 
ATOM     16  N   UNL     1       0.991   9.759  19.851  0.00  0.00    +0.000 NA
ENDBRANCH   8  11
ENDBRANCH   1   9
BRANCH   5  17
ATOM     17  S   UNL     1       3.355   3.051  17.515  0.00  0.00    +0.000 S 
ATOM     18  O   UNL     1       3.967   1.739  17.578  0.00  0.00    +0.000 OA
ATOM     19  O   UNL     1       2.220   3.303  16.647  0.00  0.00    +0.000 OA
BRANCH  17  20
ATOM     20  N   UNL     1       4.583   4.187  17.126  0.00  0.00    +0.000 NA
ATOM     21  C   UNL     1       5.620   4.389  18.167  0.00  0.00    +0.000 C 
ATOM     22  C   UNL     1       6.515   5.581  17.845  0.00  0.00    +0.000 C 
ATOM     23  C   UNL     1       7.111   5.461  16.452  0.00  0.00    +0.000 C 
ATOM     24  C   UNL     1       5.991   5.357  15.428  0.00  0.00    +0.000 C 
ATOM     25  C   UNL     1       5.067   4.175  15.721  0.00  0.00    +0.000 C 
ENDBRANCH  17  20
ENDBRANCH   5  17
TORSDOF 4
ENDMDL
MODEL 7
REMARK VINA RESULT:      -7.6      4.977      7.124
REMARK  Name = 
REMARK  4 active torsions:
REMARK  status: ('A' for Active; 'I' for Inactive)
REMARK    1  A    between atoms: C_2  and  C_19
REMARK    2  A    between atoms: N_3  and  C_4
REMARK    3  A    between atoms: C_8  and  S_9
REMARK    4  A    between atoms: S_9  and  N_12
REMARK                            x       y       z     vdW  Elec       q    Type
REMARK                         _______ _______ _______ _____ _____    ______ ____
ROOT
ATOM      1  C   UNL     1       2.022   4.999  20.708  0.00  0.00    +0.000 A 
ATOM      2  C   UNL     1       2.196   4.092  21.759  0.00  0.00    +0.000 A 
ATOM      3  C   UNL     1       2.701   2.811  21.536  0.00  0.00    +0.000 A 
ATOM      4  C   UNL     1       3.071   2.428  20.252  0.00  0.00    +0.000 A 
ATOM      5  C   UNL     1       2.935   3.336  19.197  0.00  0.00    +0.000 A 
ATOM      6  C   UNL     1       2.355   4.599  19.407  0.00  0.00    +0.000 A 
ENDROOT
BRANCH   1   9
ATOM      7  O   UNL     1       2.627   7.409  19.181  0.00  0.00    +0.000 OA
ATOM      8  C   UNL     1       1.881   7.410  20.158  0.00  0.00    +0.000 C 
ATOM      9  N   UNL     1       1.538   6.308  20.925  0.00  0.00    +0.000 N 
ATOM     10  H   UNL     1       0.807   6.463  21.613  0.00  0.00    +0.000 HD
BRANCH   8  11
ATOM     11  C   UNL     1       1.230   8.698  20.547  0.00  0.00    +0.000 A 
ATOM     12  C   UNL     1       0.798   8.854  21.864  0.00  0.00    +0.000 A 
ATOM     13  C   UNL     1       0.135  10.022  22.208  0.00  0.00    +0.000 A 
ATOM     14  C   UNL     1      -0.073  10.990  21.231  0.00  0.00    +0.000 A 
ATOM     15  C   UNL     1       0.408  10.758  19.952  0.00  0.00    +0.000 A 
ATOM     16  N   UNL     1       1.072   9.636  19.576  0.00  0.00    +0.000 NA
ENDBRANCH   8  11
ENDBRANCH   1   9
BRANCH   5  17
ATOM     17  S   UNL     1       3.429   2.825  17.556  0.00  0.00    +0.000 S 
ATOM     18  O   UNL     1       3.714   1.405  17.616  0.00  0.00    +0.000 OA
ATOM     19  O   UNL     1       2.435   3.347  16.637  0.00  0.00    +0.000 OA
BRANCH  17  20
ATOM     20  N   UNL     1       4.907   3.647  17.262  0.00  0.00    +0.000 NA
ATOM     21  C   UNL     1       5.002   4.345  15.957  0.00  0.00    +0.000 C 
ATOM     22  C   UNL     1       6.422   4.829  15.680  0.00  0.00    +0.000 C 
ATOM     23  C   UNL     1       6.948   5.676  16.827  0.00  0.00    +0.000 C 
ATOM     24  C   UNL     1       6.914   4.866  18.114  0.00  0.00    +0.000 C 
ATOM     25  C   UNL     1       5.506   4.357  18.423  0.00  0.00    +0.000 C 
ENDBRANCH  17  20
ENDBRANCH   5  17
TORSDOF 4
ENDMDL
MODEL 8
REMARK VINA RESULT:      -7.5      3.514      6.939
REMARK  Name = 
REMARK  4 active torsions:
REMARK  status: ('A' for Active; 'I' for Inactive)
REMARK    1  A    between atoms: C_2  and  C_19
REMARK    2  A    between atoms: N_3  and  C_4
REMARK    3  A    between atoms: C_8  and  S_9
REMARK    4  A    between atoms: S_9  and  N_12
REMARK                            x       y       z     vdW  Elec       q    Type
REMARK                         _______ _______ _______ _____ _____    ______ ____
ROOT
ATOM      1  C   UNL     1       2.513   5.753  18.613  0.00  0.00    +0.000 A 
ATOM      2  C   UNL     1       1.902   4.495  18.581  0.00  0.00    +0.000 A 
ATOM      3  C   UNL     1       2.367   3.482  17.741  0.00  0.00    +0.000 A 
ATOM      4  C   UNL     1       3.479   3.708  16.939  0.00  0.00    +0.000 A 
ATOM      5  C   UNL     1       4.122   4.949  16.985  0.00  0.00    +0.000 A 
ATOM      6  C   UNL     1       3.608   5.994  17.774  0.00  0.00    +0.000 A 
ENDROOT
BRANCH   1   9
ATOM      7  O   UNL     1       1.718   8.470  17.917  0.00  0.00    +0.000 OA
ATOM      8  C   UNL     1       1.716   8.052  19.073  0.00  0.00    +0.000 C 
ATOM      9  N   UNL     1       2.069   6.775  19.479  0.00  0.00    +0.000 N 
ATOM     10  H   UNL     1       1.884   6.559  20.455  0.00  0.00    +0.000 HD
BRANCH   8  11
ATOM     11  C   UNL     1       1.246   8.970  20.154  0.00  0.00    +0.000 A 
ATOM     12  C   UNL     1       1.096   8.458  21.443  0.00  0.00    +0.000 A 
ATOM     13  C   UNL     1       0.598   9.292  22.432  0.00  0.00    +0.000 A 
ATOM     14  C   UNL     1       0.266  10.602  22.103  0.00  0.00    +0.000 A 
ATOM     15  C   UNL     1       0.466  11.031  20.800  0.00  0.00    +0.000 A 
ATOM     16  N   UNL     1       0.963  10.253  19.806  0.00  0.00    +0.000 NA
ENDBRANCH   8  11
ENDBRANCH   1   9
BRANCH   5  17
ATOM     17  S   UNL     1       5.558   5.211  15.953  0.00  0.00    +0.000 S 
ATOM     18  O   UNL     1       5.966   3.915  15.448  0.00  0.00    +0.000 OA
ATOM     19  O   UNL     1       5.231   6.295  15.046  0.00  0.00    +0.000 OA
BRANCH  17  20
ATOM     20  N   UNL     1       6.779   5.767  17.025  0.00  0.00    +0.000 NA
ATOM     21  C   UNL     1       6.843   7.237  17.214  0.00  0.00    +0.000 C 
ATOM     22  C   UNL     1       8.099   7.652  17.974  0.00  0.00    +0.000 C 
ATOM     23  C   UNL     1       8.222   6.895  19.287  0.00  0.00    +0.000 C 
ATOM     24  C   UNL     1       8.249   5.399  19.010  0.00  0.00    +0.000 C 
ATOM     25  C   UNL     1       7.008   4.945  18.243  0.00  0.00    +0.000 C 
ENDBRANCH  17  20
ENDBRANCH   5  17
TORSDOF 4
ENDMDL
MODEL 9
REMARK VINA RESULT:      -7.5      4.834      6.457
REMARK  Name = 
REMARK  4 active torsions:
REMARK  status: ('A' for Active; 'I' for Inactive)
REMARK    1  A    between atoms: C_2  and  C_19
REMARK    2  A    between atoms: N_3  and  C_4
REMARK    3  A    between atoms: C_8  and  S_9
REMARK    4  A    between atoms: S_9  and  N_12
REMARK                            x       y       z     vdW  Elec       q    Type
REMARK                         _______ _______ _______ _____ _____    ______ ____
ROOT
ATOM      1  C   UNL     1       2.226   6.881  19.742  0.00  0.00    +0.000 A 
ATOM      2  C   UNL     1       1.282   5.980  20.250  0.00  0.00    +0.000 A 
ATOM      3  C   UNL     1       1.582   4.626  20.404  0.00  0.00    +0.000 A 
ATOM      4  C   UNL     1       2.849   4.158  20.080  0.00  0.00    +0.000 A 
ATOM      5  C   UNL     1       3.813   5.052  19.604  0.00  0.00    +0.000 A 
ATOM      6  C   UNL     1       3.489   6.401  19.376  0.00  0.00    +0.000 A 
ENDROOT
BRANCH   1   9
ATOM      7  O   UNL     1       1.992   8.431  17.284  0.00  0.00    +0.000 OA
ATOM      8  C   UNL     1       1.858   8.929  18.399  0.00  0.00    +0.000 C 
ATOM      9  N   UNL     1       1.944   8.258  19.608  0.00  0.00    +0.000 N 
ATOM     10  H   UNL     1       1.676   8.796  20.428  0.00  0.00    +0.000 HD
BRANCH   8  11
ATOM     11  C   UNL     1       1.522  10.382  18.486  0.00  0.00    +0.000 A 
ATOM     12  C   UNL     1       0.238  10.744  18.894  0.00  0.00    +0.000 A 
ATOM     13  C   UNL     1      -0.095  12.090  18.912  0.00  0.00    +0.000 A 
ATOM     14  C   UNL     1       0.859  13.024  18.523  0.00  0.00    +0.000 A 
ATOM     15  C   UNL     1       2.116  12.575  18.150  0.00  0.00    +0.000 A 
ATOM     16  N   UNL     1       2.488  11.270  18.131  0.00  0.00    +0.000 NA
ENDBRANCH   8  11
ENDBRANCH   1   9
BRANCH   5  17
ATOM     17  S   UNL     1       5.441   4.428  19.206  0.00  0.00    +0.000 S 
ATOM     18  O   UNL     1       6.404   5.291  19.861  0.00  0.00    +0.000 OA
ATOM     19  O   UNL     1       5.419   3.001  19.469  0.00  0.00    +0.000 OA
BRANCH  17  20
ATOM     20  N   UNL     1       5.599   4.653  17.511  0.00  0.00    +0.000 NA
ATOM     21  C   UNL     1       6.990   4.666  16.995  0.00  0.00    +0.000 C 
ATOM     22  C   UNL     1       7.045   5.116  15.538  0.00  0.00    +0.000 C 
ATOM     23  C   UNL     1       6.114   4.285  14.671  0.00  0.00    +0.000 C 
ATOM     24  C   UNL     1       4.692   4.396  15.199  0.00  0.00    +0.000 C 
ATOM     25  C   UNL     1       4.597   3.959  16.660  0.00  0.00    +0.000 C 
ENDBRANCH  17  20
ENDBRANCH   5  17
TORSDOF 4
ENDMDL
