MODEL 1
REMARK VINA RESULT:      -7.3      0.000      0.000
REMARK  Name = 
REMARK  3 active torsions:
REMARK  status: ('A' for Active; 'I' for Inactive)
REMARK    1  A    between atoms: C_2  and  C_11
REMARK    2  A    between atoms: N_3  and  N_4
REMARK    3  A    between atoms: C_5  and  C_6
REMARK                            x       y       z     vdW  Elec       q    Type
REMARK                         _______ _______ _______ _____ _____    ______ ____
ROOT
ATOM      1  O   UNL     1       3.883   5.886  17.164  0.00  0.00    +0.000 OA
ATOM      2  C   UNL     1       3.754   6.211  18.341  0.00  0.00    +0.000 C 
ATOM      3  N   UNL     1       4.352   5.578  19.415  0.00  0.00    +0.000 N 
ATOM      4  H   UNL     1       4.138   5.842  20.369  0.00  0.00    +0.000 HD
ENDROOT
BRANCH   2   5
ATOM      5  C   UNL     1       2.817   7.317  18.685  0.00  0.00    +0.000 A 
ATOM      6  C   UNL     1       2.596   8.308  17.725  0.00  0.00    +0.000 A 
ATOM      7  C   UNL     1       1.735   9.374  17.998  0.00  0.00    +0.000 A 
ATOM      8  C   UNL     1       1.089   9.492  19.219  0.00  0.00    +0.000 A 
ATOM      9  N   UNL     1       0.284  10.544  19.435  0.00  0.00    +0.000 NA
ATOM     10  C   UNL     1      -0.318  10.648  20.639  0.00  0.00    +0.000 A 
ATOM     11  C   UNL     1      -0.162   9.730  21.658  0.00  0.00    +0.000 A 
ATOM     12  C   UNL     1       0.665   8.635  21.431  0.00  0.00    +0.000 A 
ATOM     13  C   UNL     1       1.314   8.495  20.195  0.00  0.00    +0.000 A 
ATOM     14  C   UNL     1       2.174   7.409  19.924  0.00  0.00    +0.000 A 
ENDBRANCH   2   5
BRANCH   3  15
ATOM     15  N   UNL     1       5.149   4.490  19.203  0.00  0.00    +0.000 NA
ATOM     16  C   UNL     1       4.626   3.300  19.273  0.00  0.00    +0.000 C 
BRANCH  16  17
ATOM     17  C   UNL     1       3.224   2.962  19.384  0.00  0.00    +0.000 A 
ATOM     18  C   UNL     1       2.401   2.934  20.495  0.00  0.00    +0.000 A 
ATOM     19  C   UNL     1       1.088   2.481  20.187  0.00  0.00    +0.000 A 
ATOM     20  C   UNL     1       0.929   2.247  18.840  0.00  0.00    +0.000 A 
ATOM     21  S   UNL     1       2.358   2.575  17.960  0.00  0.00    +0.000 S 
ENDBRANCH  16  17
ENDBRANCH   3  15
TORSDOF 3
ENDMDL
MODEL 2
REMARK VINA RESULT:      -7.2      0.865      1.011
REMARK  Name = 
REMARK  3 active torsions:
REMARK  status: ('A' for Active; 'I' for Inactive)
REMARK    1  A    between atoms: C_2  and  C_11
REMARK    2  A    between atoms: N_3  and  N_4
REMARK    3  A    between atoms: C_5  and  C_6
REMARK                            x       y       z     vdW  Elec       q    Type
REMARK                         _______ _______ _______ _____ _____    ______ ____
ROOT
ATOM      1  O   UNL     1       3.701   5.324  17.271  0.00  0.00    +0.000 OA
ATOM      2  C   UNL     1       3.761   5.835  18.386  0.00  0.00    +0.000 C 
ATOM      3  N   UNL     1       4.508   5.354  19.446  0.00  0.00    +0.000 N 
ATOM      4  H   UNL     1       4.449   5.772  20.366  0.00  0.00    +0.000 HD
ENDROOT
BRANCH   2   5
ATOM      5  C   UNL     1       2.907   7.018  18.683  0.00  0.00    +0.000 A 
ATOM      6  C   UNL     1       2.781   7.997  17.695  0.00  0.00    +0.000 A 
ATOM      7  C   UNL     1       2.000   9.133  17.925  0.00  0.00    +0.000 A 
ATOM      8  C   UNL     1       1.344   9.333  19.130  0.00  0.00    +0.000 A 
ATOM      9  N   UNL     1       0.620  10.450  19.303  0.00  0.00    +0.000 NA
ATOM     10  C   UNL     1       0.006  10.632  20.493  0.00  0.00    +0.000 A 
ATOM     11  C   UNL     1       0.073   9.732  21.537  0.00  0.00    +0.000 A 
ATOM     12  C   UNL     1       0.817   8.571  21.353  0.00  0.00    +0.000 A 
ATOM     13  C   UNL     1       1.474   8.348  20.134  0.00  0.00    +0.000 A 
ATOM     14  C   UNL     1       2.252   7.193  19.907  0.00  0.00    +0.000 A 
ENDBRANCH   2   5
BRANCH   3  15
ATOM     15  N   UNL     1       5.245   4.214  19.294  0.00  0.00    +0.000 NA
ATOM     16  C   UNL     1       4.671   3.060  19.483  0.00  0.00    +0.000 C 
BRANCH  16  17
ATOM     17  C   UNL     1       3.260   2.802  19.675  0.00  0.00    +0.000 A 
ATOM     18  C   UNL     1       2.299   2.396  18.768  0.00  0.00    +0.000 A 
ATOM     19  C   UNL     1       1.002   2.317  19.349  0.00  0.00    +0.000 A 
ATOM     20  C   UNL     1       1.027   2.595  20.697  0.00  0.00    +0.000 A 
ATOM     21  S   UNL     1       2.607   2.946  21.250  0.00  0.00    +0.000 S 
ENDBRANCH  16  17
ENDBRANCH   3  15
TORSDOF 3
ENDMDL
MODEL 3
REMARK VINA RESULT:      -7.2      2.248      3.500
REMARK  Name = 
REMARK  3 active torsions:
REMARK  status: ('A' for Active; 'I' for Inactive)
REMARK    1  A    between atoms: C_2  and  C_11
REMARK    2  A    between atoms: N_3  and  N_4
REMARK    3  A    between atoms: C_5  and  C_6
REMARK                            x       y       z     vdW  Elec       q    Type
REMARK                         _______ _______ _______ _____ _____    ______ ____
ROOT
ATOM      1  O   UNL     1       2.666   5.405  17.718  0.00  0.00    +0.000 OA
ATOM      2  C   UNL     1       3.009   5.993  18.740  0.00  0.00    +0.000 C 
ATOM      3  N   UNL     1       3.964   5.548  19.636  0.00  0.00    +0.000 N 
ATOM      4  H   UNL     1       4.141   6.037  20.505  0.00  0.00    +0.000 HD
ENDROOT
BRANCH   2   5
ATOM      5  C   UNL     1       2.300   7.246  19.123  0.00  0.00    +0.000 A 
ATOM      6  C   UNL     1       2.161   8.240  18.152  0.00  0.00    +0.000 A 
ATOM      7  C   UNL     1       1.514   9.440  18.459  0.00  0.00    +0.000 A 
ATOM      8  C   UNL     1       1.007   9.689  19.725  0.00  0.00    +0.000 A 
ATOM      9  N   UNL     1       0.409  10.865  19.971  0.00  0.00    +0.000 NA
ATOM     10  C   UNL     1      -0.059  11.092  21.218  0.00  0.00    +0.000 A 
ATOM     11  C   UNL     1       0.035  10.182  22.251  0.00  0.00    +0.000 A 
ATOM     12  C   UNL     1       0.647   8.960  21.993  0.00  0.00    +0.000 A 
ATOM     13  C   UNL     1       1.151   8.689  20.713  0.00  0.00    +0.000 A 
ATOM     14  C   UNL     1       1.794   7.470  20.408  0.00  0.00    +0.000 A 
ENDBRANCH   2   5
BRANCH   3  15
ATOM     15  N   UNL     1       4.594   4.356  19.419  0.00  0.00    +0.000 NA
ATOM     16  C   UNL     1       5.747   4.352  18.812  0.00  0.00    +0.000 C 
BRANCH  16  17
ATOM     17  C   UNL     1       6.565   5.497  18.472  0.00  0.00    +0.000 A 
ATOM     18  C   UNL     1       7.657   6.035  19.126  0.00  0.00    +0.000 A 
ATOM     19  C   UNL     1       8.144   7.212  18.492  0.00  0.00    +0.000 A 
ATOM     20  C   UNL     1       7.453   7.495  17.336  0.00  0.00    +0.000 A 
ATOM     21  S   UNL     1       6.229   6.342  17.023  0.00  0.00    +0.000 S 
ENDBRANCH  16  17
ENDBRANCH   3  15
TORSDOF 3
ENDMDL
MODEL 4
REMARK VINA RESULT:      -7.1      4.753      6.560
REMARK  Name = 
REMARK  3 active torsions:
REMARK  status: ('A' for Active; 'I' for Inactive)
REMARK    1  A    between atoms: C_2  and  C_11
REMARK    2  A    between atoms: N_3  and  N_4
REMARK    3  A    between atoms: C_5  and  C_6
REMARK                            x       y       z     vdW  Elec       q    Type
REMARK                         _______ _______ _______ _____ _____    ______ ____
ROOT
ATOM      1  O   UNL     1       7.839   4.350  16.521  0.00  0.00    +0.000 OA
ATOM      2  C   UNL     1       6.755   4.729  16.088  0.00  0.00    +0.000 C 
ATOM      3  N   UNL     1       6.545   5.297  14.844  0.00  0.00    +0.000 N 
ATOM      4  H   UNL     1       5.642   5.668  14.579  0.00  0.00    +0.000 HD
ENDROOT
BRANCH   2   5
ATOM      5  C   UNL     1       5.562   4.669  16.978  0.00  0.00    +0.000 A 
ATOM      6  C   UNL     1       5.495   5.572  18.041  0.00  0.00    +0.000 A 
ATOM      7  C   UNL     1       4.403   5.554  18.914  0.00  0.00    +0.000 A 
ATOM      8  C   UNL     1       3.370   4.641  18.765  0.00  0.00    +0.000 A 
ATOM      9  N   UNL     1       2.353   4.657  19.641  0.00  0.00    +0.000 NA
ATOM     10  C   UNL     1       1.368   3.745  19.488  0.00  0.00    +0.000 A 
ATOM     11  C   UNL     1       1.342   2.805  18.478  0.00  0.00    +0.000 A 
ATOM     12  C   UNL     1       2.392   2.795  17.566  0.00  0.00    +0.000 A 
ATOM     13  C   UNL     1       3.437   3.722  17.695  0.00  0.00    +0.000 A 
ATOM     14  C   UNL     1       4.530   3.741  16.803  0.00  0.00    +0.000 A 
ENDBRANCH   2   5
BRANCH   3  15
ATOM     15  N   UNL     1       7.601   5.485  13.998  0.00  0.00    +0.000 NA
ATOM     16  C   UNL     1       7.675   4.772  12.911  0.00  0.00    +0.000 C 
BRANCH  16  17
ATOM     17  C   UNL     1       6.665   3.889  12.369  0.00  0.00    +0.000 A 
ATOM     18  C   UNL     1       5.288   4.010  12.364  0.00  0.00    +0.000 A 
ATOM     19  C   UNL     1       4.645   2.882  11.780  0.00  0.00    +0.000 A 
ATOM     20  C   UNL     1       5.554   1.970  11.294  0.00  0.00    +0.000 A 
ATOM     21  S   UNL     1       7.168   2.478  11.542  0.00  0.00    +0.000 S 
ENDBRANCH  16  17
ENDBRANCH   3  15
TORSDOF 3
ENDMDL
MODEL 5
REMARK VINA RESULT:      -7.0      4.054      7.188
REMARK  Name = 
REMARK  3 active torsions:
REMARK  status: ('A' for Active; 'I' for Inactive)
REMARK    1  A    between atoms: C_2  and  C_11
REMARK    2  A    between atoms: N_3  and  N_4
REMARK    3  A    between atoms: C_5  and  C_6
REMARK                            x       y       z     vdW  Elec       q    Type
REMARK                         _______ _______ _______ _____ _____    ______ ____
ROOT
ATOM      1  O   UNL     1       3.628   2.800  17.791  0.00  0.00    +0.000 OA
ATOM      2  C   UNL     1       4.295   3.823  17.920  0.00  0.00    +0.000 C 
ATOM      3  N   UNL     1       4.202   4.710  18.977  0.00  0.00    +0.000 N 
ATOM      4  H   UNL     1       4.719   5.580  18.983  0.00  0.00    +0.000 HD
ENDROOT
BRANCH   2   5
ATOM      5  C   UNL     1       5.228   4.217  16.828  0.00  0.00    +0.000 A 
ATOM      6  C   UNL     1       6.220   5.156  17.124  0.00  0.00    +0.000 A 
ATOM      7  C   UNL     1       7.116   5.570  16.134  0.00  0.00    +0.000 A 
ATOM      8  C   UNL     1       7.044   5.081  14.839  0.00  0.00    +0.000 A 
ATOM      9  N   UNL     1       7.920   5.525  13.923  0.00  0.00    +0.000 NA
ATOM     10  C   UNL     1       7.817   5.050  12.662  0.00  0.00    +0.000 A 
ATOM     11  C   UNL     1       6.870   4.128  12.263  0.00  0.00    +0.000 A 
ATOM     12  C   UNL     1       5.969   3.663  13.215  0.00  0.00    +0.000 A 
ATOM     13  C   UNL     1       6.039   4.137  14.533  0.00  0.00    +0.000 A 
ATOM     14  C   UNL     1       5.136   3.705  15.529  0.00  0.00    +0.000 A 
ENDBRANCH   2   5
BRANCH   3  15
ATOM     15  N   UNL     1       3.299   4.481  19.976  0.00  0.00    +0.000 NA
ATOM     16  C   UNL     1       2.456   5.421  20.294  0.00  0.00    +0.000 C 
BRANCH  16  17
ATOM     17  C   UNL     1       2.223   6.666  19.593  0.00  0.00    +0.000 A 
ATOM     18  C   UNL     1       2.415   6.987  18.263  0.00  0.00    +0.000 A 
ATOM     19  C   UNL     1       2.122   8.352  17.986  0.00  0.00    +0.000 A 
ATOM     20  C   UNL     1       1.646   9.010  19.097  0.00  0.00    +0.000 A 
ATOM     21  S   UNL     1       1.555   7.981  20.461  0.00  0.00    +0.000 S 
ENDBRANCH  16  17
ENDBRANCH   3  15
TORSDOF 3
ENDMDL
MODEL 6
REMARK VINA RESULT:      -7.0      1.402      1.579
REMARK  Name = 
REMARK  3 active torsions:
REMARK  status: ('A' for Active; 'I' for Inactive)
REMARK    1  A    between atoms: C_2  and  C_11
REMARK    2  A    between atoms: N_3  and  N_4
REMARK    3  A    between atoms: C_5  and  C_6
REMARK                            x       y       z     vdW  Elec       q    Type
REMARK                         _______ _______ _______ _____ _____    ______ ____
ROOT
ATOM      1  O   UNL     1       4.198   6.794  17.818  0.00  0.00    +0.000 OA
ATOM      2  C   UNL     1       3.019   6.641  18.123  0.00  0.00    +0.000 C 
ATOM      3  N   UNL     1       2.279   5.492  17.904  0.00  0.00    +0.000 N 
ATOM      4  H   UNL     1       1.287   5.458  18.101  0.00  0.00    +0.000 HD
ENDROOT
BRANCH   2   5
ATOM      5  C   UNL     1       2.267   7.791  18.697  0.00  0.00    +0.000 A 
ATOM      6  C   UNL     1       2.044   8.900  17.877  0.00  0.00    +0.000 A 
ATOM      7  C   UNL     1       1.354  10.012  18.368  0.00  0.00    +0.000 A 
ATOM      8  C   UNL     1       0.885  10.059  19.672  0.00  0.00    +0.000 A 
ATOM      9  N   UNL     1       0.242  11.158  20.096  0.00  0.00    +0.000 NA
ATOM     10  C   UNL     1      -0.188  11.189  21.377  0.00  0.00    +0.000 A 
ATOM     11  C   UNL     1      -0.012  10.153  22.271  0.00  0.00    +0.000 A 
ATOM     12  C   UNL     1       0.647   9.011  21.827  0.00  0.00    +0.000 A 
ATOM     13  C   UNL     1       1.114   8.942  20.507  0.00  0.00    +0.000 A 
ATOM     14  C   UNL     1       1.801   7.811  20.016  0.00  0.00    +0.000 A 
ENDBRANCH   2   5
BRANCH   3  15
ATOM     15  N   UNL     1       2.859   4.420  17.290  0.00  0.00    +0.000 NA
ATOM     16  C   UNL     1       3.059   3.330  17.975  0.00  0.00    +0.000 C 
BRANCH  16  17
ATOM     17  C   UNL     1       2.580   3.030  19.307  0.00  0.00    +0.000 A 
ATOM     18  C   UNL     1       1.288   2.961  19.793  0.00  0.00    +0.000 A 
ATOM     19  C   UNL     1       1.247   2.697  21.191  0.00  0.00    +0.000 A 
ATOM     20  C   UNL     1       2.505   2.500  21.713  0.00  0.00    +0.000 A 
ATOM     21  S   UNL     1       3.722   2.633  20.518  0.00  0.00    +0.000 S 
ENDBRANCH  16  17
ENDBRANCH   3  15
TORSDOF 3
ENDMDL
MODEL 7
REMARK VINA RESULT:      -7.0      2.501      3.821
REMARK  Name = 
REMARK  3 active torsions:
REMARK  status: ('A' for Active; 'I' for Inactive)
REMARK    1  A    between atoms: C_2  and  C_11
REMARK    2  A    between atoms: N_3  and  N_4
REMARK    3  A    between atoms: C_5  and  C_6
REMARK                            x       y       z     vdW  Elec       q    Type
REMARK                         _______ _______ _______ _____ _____    ______ ____
ROOT
ATOM      1  O   UNL     1       3.770   4.911  19.637  0.00  0.00    +0.000 OA
ATOM      2  C   UNL     1       3.463   5.618  18.681  0.00  0.00    +0.000 C 
ATOM      3  N   UNL     1       3.852   5.402  17.371  0.00  0.00    +0.000 N 
ATOM      4  H   UNL     1       3.637   6.069  16.641  0.00  0.00    +0.000 HD
ENDROOT
BRANCH   2   5
ATOM      5  C   UNL     1       2.683   6.862  18.926  0.00  0.00    +0.000 A 
ATOM      6  C   UNL     1       2.544   7.764  17.868  0.00  0.00    +0.000 A 
ATOM      7  C   UNL     1       1.831   8.953  18.044  0.00  0.00    +0.000 A 
ATOM      8  C   UNL     1       1.257   9.282  19.263  0.00  0.00    +0.000 A 
ATOM      9  N   UNL     1       0.596  10.444  19.382  0.00  0.00    +0.000 NA
ATOM     10  C   UNL     1       0.063  10.753  20.585  0.00  0.00    +0.000 A 
ATOM     11  C   UNL     1       0.150   9.937  21.695  0.00  0.00    +0.000 A 
ATOM     12  C   UNL     1       0.827   8.729  21.568  0.00  0.00    +0.000 A 
ATOM     13  C   UNL     1       1.400   8.376  20.337  0.00  0.00    +0.000 A 
ATOM     14  C   UNL     1       2.110   7.168  20.165  0.00  0.00    +0.000 A 
ENDBRANCH   2   5
BRANCH   3  15
ATOM     15  N   UNL     1       4.654   4.340  17.068  0.00  0.00    +0.000 NA
ATOM     16  C   UNL     1       5.944   4.513  17.021  0.00  0.00    +0.000 C 
BRANCH  16  17
ATOM     17  C   UNL     1       6.687   5.687  17.427  0.00  0.00    +0.000 A 
ATOM     18  C   UNL     1       6.780   6.931  16.831  0.00  0.00    +0.000 A 
ATOM     19  C   UNL     1       7.676   7.797  17.519  0.00  0.00    +0.000 A 
ATOM     20  C   UNL     1       8.183   7.211  18.656  0.00  0.00    +0.000 A 
ATOM     21  S   UNL     1       7.575   5.629  18.888  0.00  0.00    +0.000 S 
ENDBRANCH  16  17
ENDBRANCH   3  15
TORSDOF 3
ENDMDL
MODEL 8
REMARK VINA RESULT:      -6.9      1.613      2.163
REMARK  Name = 
REMARK  3 active torsions:
REMARK  status: ('A' for Active; 'I' for Inactive)
REMARK    1  A    between atoms: C_2  and  C_11
REMARK    2  A    between atoms: N_3  and  N_4
REMARK    3  A    between atoms: C_5  and  C_6
REMARK                            x       y       z     vdW  Elec       q    Type
REMARK                         _______ _______ _______ _____ _____    ______ ____
ROOT
ATOM      1  O   UNL     1       2.659   8.557  16.995  0.00  0.00    +0.000 OA
ATOM      2  C   UNL     1       2.435   8.128  18.123  0.00  0.00    +0.000 C 
ATOM      3  N   UNL     1       2.882   6.918  18.621  0.00  0.00    +0.000 N 
ATOM      4  H   UNL     1       2.592   6.582  19.531  0.00  0.00    +0.000 HD
ENDROOT
BRANCH   2   5
ATOM      5  C   UNL     1       1.540   8.905  19.025  0.00  0.00    +0.000 A 
ATOM      6  C   UNL     1       0.866  10.004  18.488  0.00  0.00    +0.000 A 
ATOM      7  C   UNL     1       0.022  10.775  19.292  0.00  0.00    +0.000 A 
ATOM      8  C   UNL     1      -0.163  10.489  20.636  0.00  0.00    +0.000 A 
ATOM      9  N   UNL     1      -0.973  11.271  21.366  0.00  0.00    +0.000 NA
ATOM     10  C   UNL     1      -1.121  10.985  22.678  0.00  0.00    +0.000 A 
ATOM     11  C   UNL     1      -0.495   9.929  23.309  0.00  0.00    +0.000 A 
ATOM     12  C   UNL     1       0.337   9.113  22.549  0.00  0.00    +0.000 A 
ATOM     13  C   UNL     1       0.522   9.382  21.185  0.00  0.00    +0.000 A 
ATOM     14  C   UNL     1       1.368   8.592  20.378  0.00  0.00    +0.000 A 
ENDBRANCH   2   5
BRANCH   3  15
ATOM     15  N   UNL     1       3.626   6.091  17.828  0.00  0.00    +0.000 NA
ATOM     16  C   UNL     1       3.502   4.802  17.965  0.00  0.00    +0.000 C 
BRANCH  16  17
ATOM     17  C   UNL     1       2.521   4.094  18.759  0.00  0.00    +0.000 A 
ATOM     18  C   UNL     1       1.329   3.505  18.381  0.00  0.00    +0.000 A 
ATOM     19  C   UNL     1       0.618   2.960  19.487  0.00  0.00    +0.000 A 
ATOM     20  C   UNL     1       1.322   3.088  20.663  0.00  0.00    +0.000 A 
ATOM     21  S   UNL     1       2.831   3.857  20.425  0.00  0.00    +0.000 S 
ENDBRANCH  16  17
ENDBRANCH   3  15
TORSDOF 3
ENDMDL
MODEL 9
REMARK VINA RESULT:      -6.9      2.204      3.134
REMARK  Name = 
REMARK  3 active torsions:
REMARK  status: ('A' for Active; 'I' for Inactive)
REMARK    1  A    between atoms: C_2  and  C_11
REMARK    2  A    between atoms: N_3  and  N_4
REMARK    3  A    between atoms: C_5  and  C_6
REMARK                            x       y       z     vdW  Elec       q    Type
REMARK                         _______ _______ _______ _____ _____    ______ ____
ROOT
ATOM      1  O   UNL     1       1.838   4.938  19.829  0.00  0.00    +0.000 OA
ATOM      2  C   UNL     1       2.650   5.831  19.603  0.00  0.00    +0.000 C 
ATOM      3  N   UNL     1       4.024   5.675  19.577  0.00  0.00    +0.000 N 
ATOM      4  H   UNL     1       4.643   6.468  19.469  0.00  0.00    +0.000 HD
ENDROOT
BRANCH   2   5
ATOM      5  C   UNL     1       2.157   7.225  19.422  0.00  0.00    +0.000 A 
ATOM      6  C   UNL     1       2.336   7.824  18.173  0.00  0.00    +0.000 A 
ATOM      7  C   UNL     1       1.902   9.134  17.951  0.00  0.00    +0.000 A 
ATOM      8  C   UNL     1       1.299   9.879  18.953  0.00  0.00    +0.000 A 
ATOM      9  N   UNL     1       0.915  11.138  18.690  0.00  0.00    +0.000 NA
ATOM     10  C   UNL     1       0.348  11.852  19.688  0.00  0.00    +0.000 A 
ATOM     11  C   UNL     1       0.133  11.358  20.959  0.00  0.00    +0.000 A 
ATOM     12  C   UNL     1       0.523  10.050  21.227  0.00  0.00    +0.000 A 
ATOM     13  C   UNL     1       1.121   9.279  20.220  0.00  0.00    +0.000 A 
ATOM     14  C   UNL     1       1.547   7.953  20.449  0.00  0.00    +0.000 A 
ENDBRANCH   2   5
BRANCH   3  15
ATOM     15  N   UNL     1       4.571   4.450  19.832  0.00  0.00    +0.000 NA
ATOM     16  C   UNL     1       5.194   3.824  18.875  0.00  0.00    +0.000 C 
BRANCH  16  17
ATOM     17  C   UNL     1       5.545   4.340  17.570  0.00  0.00    +0.000 A 
ATOM     18  C   UNL     1       4.752   4.570  16.461  0.00  0.00    +0.000 A 
ATOM     19  C   UNL     1       5.502   5.029  15.342  0.00  0.00    +0.000 A 
ATOM     20  C   UNL     1       6.832   5.203  15.653  0.00  0.00    +0.000 A 
ATOM     21  S   UNL     1       7.164   4.817  17.286  0.00  0.00    +0.000 S 
ENDBRANCH  16  17
ENDBRANCH   3  15
TORSDOF 3
ENDMDL
