MODEL 1
REMARK VINA RESULT:      -5.7      0.000      0.000
REMARK  Name = 
REMARK  4 active torsions:
REMARK  status: ('A' for Active; 'I' for Inactive)
REMARK    1  A    between atoms: C_2  and  O_3
REMARK    2  A    between atoms: C_2  and  C_4
REMARK    3  A    between atoms: C_9  and  C_10
REMARK    4  A    between atoms: C_10  and  O_12
REMARK                            x       y       z     vdW  Elec       q    Type
REMARK                         _______ _______ _______ _____ _____    ______ ____
ROOT
ATOM      1  C   UNL     1       3.042   4.624  20.015  0.00  0.00    +0.000 C 
ATOM      2  C   UNL     1       2.313   3.906  21.166  0.00  0.00    +0.000 C 
ATOM      3  C   UNL     1       1.057   3.200  20.752  0.00  0.00    +0.000 C 
ATOM      4  C   UNL     1       0.718   2.989  19.474  0.00  0.00    +0.000 C 
ATOM      5  C   UNL     1       1.577   3.390  18.315  0.00  0.00    +0.000 C 
ATOM      6  C   UNL     1       3.011   3.795  18.705  0.00  0.00    +0.000 C 
ENDROOT
BRANCH   1   8
ATOM      7  O   UNL     1       2.611   6.643  18.723  0.00  0.00    +0.000 OA
ATOM      8  C   UNL     1       2.488   6.021  19.769  0.00  0.00    +0.000 C 
BRANCH   8   9
ATOM      9  O   UNL     1       1.897   6.576  20.851  0.00  0.00    +0.000 OA
ATOM     10  H   UNL     1       1.845   5.998  21.636  0.00  0.00    +0.000 HD
ENDBRANCH   8   9
ENDBRANCH   1   8
BRANCH   6  11
ATOM     11  C   UNL     1       3.936   2.592  18.824  0.00  0.00    +0.000 C 
ATOM     12  O   UNL     1       3.627   1.447  18.528  0.00  0.00    +0.000 OA
BRANCH  11  13
ATOM     13  O   UNL     1       5.140   2.873  19.371  0.00  0.00    +0.000 OA
ATOM     14  H   UNL     1       5.868   2.284  19.098  0.00  0.00    +0.000 HD
ENDBRANCH  11  13
ENDBRANCH   6  11
TORSDOF 4
ENDMDL
MODEL 2
REMARK VINA RESULT:      -5.7      0.013      3.704
REMARK  Name = 
REMARK  4 active torsions:
REMARK  status: ('A' for Active; 'I' for Inactive)
REMARK    1  A    between atoms: C_2  and  O_3
REMARK    2  A    between atoms: C_2  and  C_4
REMARK    3  A    between atoms: C_9  and  C_10
REMARK    4  A    between atoms: C_10  and  O_12
REMARK                            x       y       z     vdW  Elec       q    Type
REMARK                         _______ _______ _______ _____ _____    ______ ____
ROOT
ATOM      1  C   UNL     1       3.017   3.791  18.700  0.00  0.00    +0.000 C 
ATOM      2  C   UNL     1       1.585   3.385  18.303  0.00  0.00    +0.000 C 
ATOM      3  C   UNL     1       0.717   2.988  19.458  0.00  0.00    +0.000 C 
ATOM      4  C   UNL     1       1.051   3.199  20.737  0.00  0.00    +0.000 C 
ATOM      5  C   UNL     1       2.306   3.899  21.158  0.00  0.00    +0.000 C 
ATOM      6  C   UNL     1       3.040   4.619  20.011  0.00  0.00    +0.000 C 
ENDROOT
BRANCH   1   8
ATOM      7  O   UNL     1       3.634   1.443  18.520  0.00  0.00    +0.000 OA
ATOM      8  C   UNL     1       3.941   2.588  18.819  0.00  0.00    +0.000 C 
BRANCH   8   9
ATOM      9  O   UNL     1       5.143   2.872  19.371  0.00  0.00    +0.000 OA
ATOM     10  H   UNL     1       5.418   2.275  20.093  0.00  0.00    +0.000 HD
ENDBRANCH   8   9
ENDBRANCH   1   8
BRANCH   6  11
ATOM     11  C   UNL     1       2.486   6.014  19.761  0.00  0.00    +0.000 C 
ATOM     12  O   UNL     1       2.599   6.628  18.710  0.00  0.00    +0.000 OA
BRANCH  11  13
ATOM     13  O   UNL     1       1.907   6.580  20.844  0.00  0.00    +0.000 OA
ATOM     14  H   UNL     1       1.129   7.138  20.654  0.00  0.00    +0.000 HD
ENDBRANCH  11  13
ENDBRANCH   6  11
TORSDOF 4
ENDMDL
MODEL 3
REMARK VINA RESULT:      -5.6      4.244      5.768
REMARK  Name = 
REMARK  4 active torsions:
REMARK  status: ('A' for Active; 'I' for Inactive)
REMARK    1  A    between atoms: C_2  and  O_3
REMARK    2  A    between atoms: C_2  and  C_4
REMARK    3  A    between atoms: C_9  and  C_10
REMARK    4  A    between atoms: C_10  and  O_12
REMARK                            x       y       z     vdW  Elec       q    Type
REMARK                         _______ _______ _______ _____ _____    ______ ____
ROOT
ATOM      1  C   UNL     1       6.413   4.202  16.171  0.00  0.00    +0.000 C 
ATOM      2  C   UNL     1       7.395   4.748  17.225  0.00  0.00    +0.000 C 
ATOM      3  C   UNL     1       7.206   6.199  17.546  0.00  0.00    +0.000 C 
ATOM      4  C   UNL     1       6.138   6.907  17.157  0.00  0.00    +0.000 C 
ATOM      5  C   UNL     1       4.989   6.318  16.400  0.00  0.00    +0.000 C 
ATOM      6  C   UNL     1       4.986   4.778  16.358  0.00  0.00    +0.000 C 
ENDROOT
BRANCH   1   8
ATOM      7  O   UNL     1       7.648   5.360  14.422  0.00  0.00    +0.000 OA
ATOM      8  C   UNL     1       6.901   4.450  14.751  0.00  0.00    +0.000 C 
BRANCH   8   9
ATOM      9  O   UNL     1       6.369   3.611  13.833  0.00  0.00    +0.000 OA
ATOM     10  H   UNL     1       6.439   2.662  14.050  0.00  0.00    +0.000 HD
ENDBRANCH   8   9
ENDBRANCH   1   8
BRANCH   6  11
ATOM     11  C   UNL     1       4.332   4.171  17.591  0.00  0.00    +0.000 C 
ATOM     12  O   UNL     1       3.770   4.814  18.467  0.00  0.00    +0.000 OA
BRANCH  11  13
ATOM     13  O   UNL     1       4.488   2.832  17.696  0.00  0.00    +0.000 OA
ATOM     14  H   UNL     1       3.816   2.299  17.231  0.00  0.00    +0.000 HD
ENDBRANCH  11  13
ENDBRANCH   6  11
TORSDOF 4
ENDMDL
MODEL 4
REMARK VINA RESULT:      -5.6      4.317      5.648
REMARK  Name = 
REMARK  4 active torsions:
REMARK  status: ('A' for Active; 'I' for Inactive)
REMARK    1  A    between atoms: C_2  and  O_3
REMARK    2  A    between atoms: C_2  and  C_4
REMARK    3  A    between atoms: C_9  and  C_10
REMARK    4  A    between atoms: C_10  and  O_12
REMARK                            x       y       z     vdW  Elec       q    Type
REMARK                         _______ _______ _______ _____ _____    ______ ____
ROOT
ATOM      1  C   UNL     1       4.991   4.818  16.271  0.00  0.00    +0.000 C 
ATOM      2  C   UNL     1       5.003   6.352  16.409  0.00  0.00    +0.000 C 
ATOM      3  C   UNL     1       6.161   6.888  17.195  0.00  0.00    +0.000 C 
ATOM      4  C   UNL     1       7.224   6.150  17.537  0.00  0.00    +0.000 C 
ATOM      5  C   UNL     1       7.401   4.719  17.132  0.00  0.00    +0.000 C 
ATOM      6  C   UNL     1       6.415   4.246  16.047  0.00  0.00    +0.000 C 
ENDROOT
BRANCH   1   8
ATOM      7  O   UNL     1       3.753   4.730  18.365  0.00  0.00    +0.000 OA
ATOM      8  C   UNL     1       4.332   4.141  17.464  0.00  0.00    +0.000 C 
BRANCH   8   9
ATOM      9  O   UNL     1       4.504   2.800  17.498  0.00  0.00    +0.000 OA
ATOM     10  H   UNL     1       5.429   2.504  17.600  0.00  0.00    +0.000 HD
ENDBRANCH   8   9
ENDBRANCH   1   8
BRANCH   6  11
ATOM     11  C   UNL     1       6.900   4.582  14.644  0.00  0.00    +0.000 C 
ATOM     12  O   UNL     1       7.765   5.408  14.387  0.00  0.00    +0.000 OA
BRANCH  11  13
ATOM     13  O   UNL     1       6.232   3.938  13.660  0.00  0.00    +0.000 OA
ATOM     14  H   UNL     1       5.355   4.306  13.445  0.00  0.00    +0.000 HD
ENDBRANCH  11  13
ENDBRANCH   6  11
TORSDOF 4
ENDMDL
MODEL 5
REMARK VINA RESULT:      -5.5      1.912      3.315
REMARK  Name = 
REMARK  4 active torsions:
REMARK  status: ('A' for Active; 'I' for Inactive)
REMARK    1  A    between atoms: C_2  and  O_3
REMARK    2  A    between atoms: C_2  and  C_4
REMARK    3  A    between atoms: C_9  and  C_10
REMARK    4  A    between atoms: C_10  and  O_12
REMARK                            x       y       z     vdW  Elec       q    Type
REMARK                         _______ _______ _______ _____ _____    ______ ____
ROOT
ATOM      1  C   UNL     1       3.569   4.202  19.858  0.00  0.00    +0.000 C 
ATOM      2  C   UNL     1       2.886   5.477  19.328  0.00  0.00    +0.000 C 
ATOM      3  C   UNL     1       2.021   5.254  18.125  0.00  0.00    +0.000 C 
ATOM      4  C   UNL     1       1.661   4.040  17.690  0.00  0.00    +0.000 C 
ATOM      5  C   UNL     1       2.042   2.769  18.385  0.00  0.00    +0.000 C 
ATOM      6  C   UNL     1       2.627   2.973  19.795  0.00  0.00    +0.000 C 
ENDROOT
BRANCH   1   8
ATOM      7  O   UNL     1       5.397   4.647  18.312  0.00  0.00    +0.000 OA
ATOM      8  C   UNL     1       4.873   3.905  19.131  0.00  0.00    +0.000 C 
BRANCH   8   9
ATOM      9  O   UNL     1       5.390   2.686  19.406  0.00  0.00    +0.000 OA
ATOM     10  H   UNL     1       4.777   1.938  19.276  0.00  0.00    +0.000 HD
ENDBRANCH   8   9
ENDBRANCH   1   8
BRANCH   6  11
ATOM     11  C   UNL     1       1.541   3.089  20.856  0.00  0.00    +0.000 C 
ATOM     12  O   UNL     1       1.745   3.094  22.061  0.00  0.00    +0.000 OA
BRANCH  11  13
ATOM     13  O   UNL     1       0.283   3.108  20.358  0.00  0.00    +0.000 OA
ATOM     14  H   UNL     1       0.053   3.904  19.844  0.00  0.00    +0.000 HD
ENDBRANCH  11  13
ENDBRANCH   6  11
TORSDOF 4
ENDMDL
MODEL 6
REMARK VINA RESULT:      -5.5      1.898      2.986
REMARK  Name = 
REMARK  4 active torsions:
REMARK  status: ('A' for Active; 'I' for Inactive)
REMARK    1  A    between atoms: C_2  and  O_3
REMARK    2  A    between atoms: C_2  and  C_4
REMARK    3  A    between atoms: C_9  and  C_10
REMARK    4  A    between atoms: C_10  and  O_12
REMARK                            x       y       z     vdW  Elec       q    Type
REMARK                         _______ _______ _______ _____ _____    ______ ____
ROOT
ATOM      1  C   UNL     1       2.675   3.093  19.765  0.00  0.00    +0.000 C 
ATOM      2  C   UNL     1       2.051   2.940  18.365  0.00  0.00    +0.000 C 
ATOM      3  C   UNL     1       1.658   4.236  17.724  0.00  0.00    +0.000 C 
ATOM      4  C   UNL     1       2.032   5.433  18.192  0.00  0.00    +0.000 C 
ATOM      5  C   UNL     1       2.925   5.612  19.381  0.00  0.00    +0.000 C 
ATOM      6  C   UNL     1       3.620   4.319  19.846  0.00  0.00    +0.000 C 
ENDROOT
BRANCH   1   8
ATOM      7  O   UNL     1       1.859   3.199  22.057  0.00  0.00    +0.000 OA
ATOM      8  C   UNL     1       1.618   3.168  20.858  0.00  0.00    +0.000 C 
BRANCH   8   9
ATOM      9  O   UNL     1       0.347   3.119  20.398  0.00  0.00    +0.000 OA
ATOM     10  H   UNL     1      -0.329   3.459  21.013  0.00  0.00    +0.000 HD
ENDBRANCH   8   9
ENDBRANCH   1   8
BRANCH   6  11
ATOM     11  C   UNL     1       4.902   4.045  19.072  0.00  0.00    +0.000 C 
ATOM     12  O   UNL     1       5.387   4.801  18.242  0.00  0.00    +0.000 OA
BRANCH  11  13
ATOM     13  O   UNL     1       5.446   2.831  19.315  0.00  0.00    +0.000 OA
ATOM     14  H   UNL     1       5.291   2.480  20.212  0.00  0.00    +0.000 HD
ENDBRANCH  11  13
ENDBRANCH   6  11
TORSDOF 4
ENDMDL
MODEL 7
REMARK VINA RESULT:      -5.5      0.706      1.107
REMARK  Name = 
REMARK  4 active torsions:
REMARK  status: ('A' for Active; 'I' for Inactive)
REMARK    1  A    between atoms: C_2  and  O_3
REMARK    2  A    between atoms: C_2  and  C_4
REMARK    3  A    between atoms: C_9  and  C_10
REMARK    4  A    between atoms: C_10  and  O_12
REMARK                            x       y       z     vdW  Elec       q    Type
REMARK                         _______ _______ _______ _____ _____    ______ ____
ROOT
ATOM      1  C   UNL     1       3.220   4.236  20.021  0.00  0.00    +0.000 C 
ATOM      2  C   UNL     1       2.180   3.720  21.033  0.00  0.00    +0.000 C 
ATOM      3  C   UNL     1       0.998   3.044  20.407  0.00  0.00    +0.000 C 
ATOM      4  C   UNL     1       0.950   2.688  19.118  0.00  0.00    +0.000 C 
ATOM      5  C   UNL     1       2.089   2.880  18.166  0.00  0.00    +0.000 C 
ATOM      6  C   UNL     1       3.423   3.246  18.845  0.00  0.00    +0.000 C 
ENDROOT
BRANCH   1   8
ATOM      7  O   UNL     1       3.201   6.049  18.395  0.00  0.00    +0.000 OA
ATOM      8  C   UNL     1       2.869   5.619  19.491  0.00  0.00    +0.000 C 
BRANCH   8   9
ATOM      9  O   UNL     1       2.207   6.395  20.379  0.00  0.00    +0.000 OA
ATOM     10  H   UNL     1       1.286   6.125  20.559  0.00  0.00    +0.000 HD
ENDBRANCH   8   9
ENDBRANCH   1   8
BRANCH   6  11
ATOM     11  C   UNL     1       4.181   2.015  19.321  0.00  0.00    +0.000 C 
ATOM     12  O   UNL     1       4.930   1.990  20.287  0.00  0.00    +0.000 OA
BRANCH  11  13
ATOM     13  O   UNL     1       4.027   0.931  18.527  0.00  0.00    +0.000 OA
ATOM     14  H   UNL     1       3.330   0.309  18.806  0.00  0.00    +0.000 HD
ENDBRANCH  11  13
ENDBRANCH   6  11
TORSDOF 4
ENDMDL
MODEL 8
REMARK VINA RESULT:      -5.5      2.474      3.785
REMARK  Name = 
REMARK  4 active torsions:
REMARK  status: ('A' for Active; 'I' for Inactive)
REMARK    1  A    between atoms: C_2  and  O_3
REMARK    2  A    between atoms: C_2  and  C_4
REMARK    3  A    between atoms: C_9  and  C_10
REMARK    4  A    between atoms: C_10  and  O_12
REMARK                            x       y       z     vdW  Elec       q    Type
REMARK                         _______ _______ _______ _____ _____    ______ ____
ROOT
ATOM      1  C   UNL     1       3.970   2.924  18.076  0.00  0.00    +0.000 C 
ATOM      2  C   UNL     1       2.581   3.070  17.424  0.00  0.00    +0.000 C 
ATOM      3  C   UNL     1       1.921   4.391  17.678  0.00  0.00    +0.000 C 
ATOM      4  C   UNL     1       2.559   5.445  18.202  0.00  0.00    +0.000 C 
ATOM      5  C   UNL     1       4.016   5.440  18.548  0.00  0.00    +0.000 C 
ATOM      6  C   UNL     1       4.792   4.235  17.985  0.00  0.00    +0.000 C 
ENDROOT
BRANCH   1   8
ATOM      7  O   UNL     1       2.853   2.460  20.189  0.00  0.00    +0.000 OA
ATOM      8  C   UNL     1       3.878   2.458  19.522  0.00  0.00    +0.000 C 
BRANCH   8   9
ATOM      9  O   UNL     1       5.066   2.101  20.061  0.00  0.00    +0.000 OA
ATOM     10  H   UNL     1       5.017   1.424  20.761  0.00  0.00    +0.000 HD
ENDBRANCH   8   9
ENDBRANCH   1   8
BRANCH   6  11
ATOM     11  C   UNL     1       5.253   4.467  16.552  0.00  0.00    +0.000 C 
ATOM     12  O   UNL     1       5.040   5.485  15.911  0.00  0.00    +0.000 OA
BRANCH  11  13
ATOM     13  O   UNL     1       5.868   3.401  15.991  0.00  0.00    +0.000 OA
ATOM     14  H   UNL     1       6.574   2.999  16.530  0.00  0.00    +0.000 HD
ENDBRANCH  11  13
ENDBRANCH   6  11
TORSDOF 4
ENDMDL
MODEL 9
REMARK VINA RESULT:      -5.5      2.472      3.350
REMARK  Name = 
REMARK  4 active torsions:
REMARK  status: ('A' for Active; 'I' for Inactive)
REMARK    1  A    between atoms: C_2  and  O_3
REMARK    2  A    between atoms: C_2  and  C_4
REMARK    3  A    between atoms: C_9  and  C_10
REMARK    4  A    between atoms: C_10  and  O_12
REMARK                            x       y       z     vdW  Elec       q    Type
REMARK                         _______ _______ _______ _____ _____    ______ ____
ROOT
ATOM      1  C   UNL     1       4.787   4.212  17.981  0.00  0.00    +0.000 C 
ATOM      2  C   UNL     1       4.021   5.420  18.555  0.00  0.00    +0.000 C 
ATOM      3  C   UNL     1       2.560   5.435  18.221  0.00  0.00    +0.000 C 
ATOM      4  C   UNL     1       1.914   4.388  17.695  0.00  0.00    +0.000 C 
ATOM      5  C   UNL     1       2.565   3.067  17.425  0.00  0.00    +0.000 C 
ATOM      6  C   UNL     1       3.955   2.907  18.069  0.00  0.00    +0.000 C 
ENDROOT
BRANCH   1   8
ATOM      7  O   UNL     1       5.039   5.477  15.916  0.00  0.00    +0.000 OA
ATOM      8  C   UNL     1       5.245   4.451  16.550  0.00  0.00    +0.000 C 
BRANCH   8   9
ATOM      9  O   UNL     1       5.848   3.383  15.981  0.00  0.00    +0.000 OA
ATOM     10  H   UNL     1       6.234   3.547  15.099  0.00  0.00    +0.000 HD
ENDBRANCH   8   9
ENDBRANCH   1   8
BRANCH   6  11
ATOM     11  C   UNL     1       3.868   2.436  19.514  0.00  0.00    +0.000 C 
ATOM     12  O   UNL     1       2.852   2.468  20.195  0.00  0.00    +0.000 OA
BRANCH  11  13
ATOM     13  O   UNL     1       5.049   2.039  20.037  0.00  0.00    +0.000 OA
ATOM     14  H   UNL     1       5.762   2.704  20.006  0.00  0.00    +0.000 HD
ENDBRANCH  11  13
ENDBRANCH   6  11
TORSDOF 4
ENDMDL
