MODEL 1
REMARK VINA RESULT:      -8.4      0.000      0.000
REMARK  Name = 
REMARK  6 active torsions:
REMARK  status: ('A' for Active; 'I' for Inactive)
REMARK    1  A    between atoms: C_1  and  C_2
REMARK    2  A    between atoms: N_4  and  C_5
REMARK    3  A    between atoms: C_8  and  C_9
REMARK    4  A    between atoms: C_11  and  C_12
REMARK    5  A    between atoms: C_12  and  C_15
REMARK    6  A    between atoms: N_17  and  N_18
REMARK                            x       y       z     vdW  Elec       q    Type
REMARK                         _______ _______ _______ _____ _____    ______ ____
ROOT
ATOM      1  C   UNL     1       7.229   5.316  18.341  0.00  0.00    +0.000 C 
ATOM      2  F   UNL     1       7.533   5.543  19.667  0.00  0.00    +0.000 F 
ATOM      3  F   UNL     1       8.072   4.295  17.981  0.00  0.00    +0.000 F 
ENDROOT
BRANCH   1  10
ATOM      4  C   UNL     1       5.200   4.226  17.092  0.00  0.00    +0.000 A 
ATOM      5  C   UNL     1       3.826   3.922  17.109  0.00  0.00    +0.000 A 
ATOM      6  C   UNL     1       3.023   4.228  18.208  0.00  0.00    +0.000 A 
ATOM      7  C   UNL     1       3.574   4.851  19.321  0.00  0.00    +0.000 A 
ATOM      8  C   UNL     1       2.726   5.214  20.503  0.00  0.00    +0.000 C 
ATOM      9  C   UNL     1       4.940   5.157  19.312  0.00  0.00    +0.000 A 
ATOM     10  C   UNL     1       5.778   4.864  18.205  0.00  0.00    +0.000 A 
BRANCH   4  14
ATOM     11  C   UNL     1       6.726   3.874  13.679  0.00  0.00    +0.000 C 
ATOM     12  C   UNL     1       5.855   4.484  14.741  0.00  0.00    +0.000 C 
ATOM     13  O   UNL     1       5.189   5.491  14.522  0.00  0.00    +0.000 OA
ATOM     14  N   UNL     1       5.947   3.831  15.961  0.00  0.00    +0.000 N 
ATOM     15  H   UNL     1       6.778   3.251  16.084  0.00  0.00    +0.000 HD
ENDBRANCH   4  14
ENDBRANCH   1  10
BRANCH   1  16
ATOM     16  C   UNL     1       7.584   6.591  17.540  0.00  0.00    +0.000 C 
ATOM     17  O   UNL     1       7.585   6.609  16.303  0.00  0.00    +0.000 OA
ATOM     18  N   UNL     1       7.831   7.726  18.310  0.00  0.00    +0.000 N 
ATOM     19  H   UNL     1       7.451   7.812  19.249  0.00  0.00    +0.000 HD
BRANCH  18  20
ATOM     20  N   UNL     1       8.079   8.908  17.623  0.00  0.00    +0.000 N 
ATOM     21  C   UNL     1       8.609  10.015  18.281  0.00  0.00    +0.000 A 
ATOM     22  C   UNL     1       9.274   9.926  19.503  0.00  0.00    +0.000 A 
ATOM     23  C   UNL     1       9.814  11.078  20.075  0.00  0.00    +0.000 A 
ATOM     24  C   UNL     1       9.695  12.288  19.408  0.00  0.00    +0.000 A 
ATOM     25  C   UNL     1       9.028  12.293  18.198  0.00  0.00    +0.000 A 
ATOM     26  N   UNL     1       8.482  11.192  17.634  0.00  0.00    +0.000 NA
ATOM     27  H   UNL     1       7.542   9.145  16.793  0.00  0.00    +0.000 HD
ENDBRANCH  18  20
ENDBRANCH   1  16
TORSDOF 4
ENDMDL
MODEL 2
REMARK VINA RESULT:      -8.3      4.119      6.498
REMARK  Name = 
REMARK  6 active torsions:
REMARK  status: ('A' for Active; 'I' for Inactive)
REMARK    1  A    between atoms: C_1  and  C_2
REMARK    2  A    between atoms: N_4  and  C_5
REMARK    3  A    between atoms: C_8  and  C_9
REMARK    4  A    between atoms: C_11  and  C_12
REMARK    5  A    between atoms: C_12  and  C_15
REMARK    6  A    between atoms: N_17  and  N_18
REMARK                            x       y       z     vdW  Elec       q    Type
REMARK                         _______ _______ _______ _____ _____    ______ ____
ROOT
ATOM      1  C   UNL     1       3.946   5.072  18.494  0.00  0.00    +0.000 C 
ATOM      2  F   UNL     1       4.548   4.339  19.495  0.00  0.00    +0.000 F 
ATOM      3  F   UNL     1       3.201   4.144  17.810  0.00  0.00    +0.000 F 
ENDROOT
BRANCH   1  10
ATOM      4  C   UNL     1       2.262   6.006  20.271  0.00  0.00    +0.000 A 
ATOM      5  C   UNL     1       1.423   7.066  20.663  0.00  0.00    +0.000 A 
ATOM      6  C   UNL     1       1.340   8.245  19.922  0.00  0.00    +0.000 A 
ATOM      7  C   UNL     1       2.094   8.394  18.763  0.00  0.00    +0.000 A 
ATOM      8  C   UNL     1       2.001   9.640  17.936  0.00  0.00    +0.000 C 
ATOM      9  C   UNL     1       2.931   7.343  18.367  0.00  0.00    +0.000 A 
ATOM     10  C   UNL     1       3.028   6.131  19.098  0.00  0.00    +0.000 A 
BRANCH   4  14
ATOM     11  C   UNL     1       1.741   2.689  21.954  0.00  0.00    +0.000 C 
ATOM     12  C   UNL     1       1.512   3.763  20.927  0.00  0.00    +0.000 C 
ATOM     13  O   UNL     1       0.718   3.608  20.005  0.00  0.00    +0.000 OA
ATOM     14  N   UNL     1       2.324   4.872  21.110  0.00  0.00    +0.000 N 
ATOM     15  H   UNL     1       3.153   4.716  21.685  0.00  0.00    +0.000 HD
ENDBRANCH   4  14
ENDBRANCH   1  10
BRANCH   1  16
ATOM     16  C   UNL     1       5.055   5.632  17.573  0.00  0.00    +0.000 C 
ATOM     17  O   UNL     1       6.065   6.186  18.024  0.00  0.00    +0.000 OA
ATOM     18  N   UNL     1       4.866   5.406  16.210  0.00  0.00    +0.000 N 
ATOM     19  H   UNL     1       4.281   4.640  15.885  0.00  0.00    +0.000 HD
BRANCH  18  20
ATOM     20  N   UNL     1       5.878   5.830  15.358  0.00  0.00    +0.000 N 
ATOM     21  C   UNL     1       6.235   5.071  14.246  0.00  0.00    +0.000 A 
ATOM     22  C   UNL     1       5.403   4.100  13.691  0.00  0.00    +0.000 A 
ATOM     23  C   UNL     1       5.817   3.414  12.548  0.00  0.00    +0.000 A 
ATOM     24  C   UNL     1       7.041   3.724  11.976  0.00  0.00    +0.000 A 
ATOM     25  C   UNL     1       7.805   4.704  12.582  0.00  0.00    +0.000 A 
ATOM     26  N   UNL     1       7.431   5.368  13.698  0.00  0.00    +0.000 NA
ATOM     27  H   UNL     1       6.626   6.426  15.702  0.00  0.00    +0.000 HD
ENDBRANCH  18  20
ENDBRANCH   1  16
TORSDOF 4
ENDMDL
MODEL 3
REMARK VINA RESULT:      -7.9      4.567      6.643
REMARK  Name = 
REMARK  6 active torsions:
REMARK  status: ('A' for Active; 'I' for Inactive)
REMARK    1  A    between atoms: C_1  and  C_2
REMARK    2  A    between atoms: N_4  and  C_5
REMARK    3  A    between atoms: C_8  and  C_9
REMARK    4  A    between atoms: C_11  and  C_12
REMARK    5  A    between atoms: C_12  and  C_15
REMARK    6  A    between atoms: N_17  and  N_18
REMARK                            x       y       z     vdW  Elec       q    Type
REMARK                         _______ _______ _______ _____ _____    ______ ____
ROOT
ATOM      1  C   UNL     1       3.049   6.320  18.180  0.00  0.00    +0.000 C 
ATOM      2  F   UNL     1       2.880   7.508  17.499  0.00  0.00    +0.000 F 
ATOM      3  F   UNL     1       2.409   5.396  17.394  0.00  0.00    +0.000 F 
ENDROOT
BRANCH   1  10
ATOM      4  C   UNL     1       5.088   4.803  18.818  0.00  0.00    +0.000 A 
ATOM      5  C   UNL     1       6.487   4.668  18.883  0.00  0.00    +0.000 A 
ATOM      6  C   UNL     1       7.340   5.668  18.416  0.00  0.00    +0.000 A 
ATOM      7  C   UNL     1       6.814   6.835  17.874  0.00  0.00    +0.000 A 
ATOM      8  C   UNL     1       7.711   7.935  17.391  0.00  0.00    +0.000 C 
ATOM      9  C   UNL     1       5.423   6.976  17.806  0.00  0.00    +0.000 A 
ATOM     10  C   UNL     1       4.533   5.978  18.281  0.00  0.00    +0.000 A 
BRANCH   4  14
ATOM     11  C   UNL     1       2.980   1.707  19.099  0.00  0.00    +0.000 C 
ATOM     12  C   UNL     1       3.808   2.751  18.402  0.00  0.00    +0.000 C 
ATOM     13  O   UNL     1       4.043   2.683  17.200  0.00  0.00    +0.000 OA
ATOM     14  N   UNL     1       4.302   3.718  19.264  0.00  0.00    +0.000 N 
ATOM     15  H   UNL     1       4.318   3.456  20.250  0.00  0.00    +0.000 HD
ENDBRANCH   4  14
ENDBRANCH   1  10
BRANCH   1  16
ATOM     16  C   UNL     1       2.323   6.438  19.542  0.00  0.00    +0.000 C 
ATOM     17  O   UNL     1       1.966   5.442  20.183  0.00  0.00    +0.000 OA
ATOM     18  N   UNL     1       2.165   7.738  20.020  0.00  0.00    +0.000 N 
ATOM     19  H   UNL     1       2.783   8.484  19.713  0.00  0.00    +0.000 HD
BRANCH  18  20
ATOM     20  N   UNL     1       1.584   7.878  21.274  0.00  0.00    +0.000 N 
ATOM     21  C   UNL     1       0.750   8.957  21.555  0.00  0.00    +0.000 A 
ATOM     22  C   UNL     1       0.135   9.720  20.563  0.00  0.00    +0.000 A 
ATOM     23  C   UNL     1      -0.722  10.759  20.929  0.00  0.00    +0.000 A 
ATOM     24  C   UNL     1      -0.959  11.002  22.273  0.00  0.00    +0.000 A 
ATOM     25  C   UNL     1      -0.318  10.197  23.195  0.00  0.00    +0.000 A 
ATOM     26  N   UNL     1       0.529   9.197  22.863  0.00  0.00    +0.000 NA
ATOM     27  H   UNL     1       2.032   7.484  22.097  0.00  0.00    +0.000 HD
ENDBRANCH  18  20
ENDBRANCH   1  16
TORSDOF 4
ENDMDL
MODEL 4
REMARK VINA RESULT:      -7.9      4.421      5.919
REMARK  Name = 
REMARK  6 active torsions:
REMARK  status: ('A' for Active; 'I' for Inactive)
REMARK    1  A    between atoms: C_1  and  C_2
REMARK    2  A    between atoms: N_4  and  C_5
REMARK    3  A    between atoms: C_8  and  C_9
REMARK    4  A    between atoms: C_11  and  C_12
REMARK    5  A    between atoms: C_12  and  C_15
REMARK    6  A    between atoms: N_17  and  N_18
REMARK                            x       y       z     vdW  Elec       q    Type
REMARK                         _______ _______ _______ _____ _____    ______ ____
ROOT
ATOM      1  C   UNL     1       2.818   5.045  17.835  0.00  0.00    +0.000 C 
ATOM      2  F   UNL     1       3.593   4.787  16.724  0.00  0.00    +0.000 F 
ATOM      3  F   UNL     1       1.537   4.803  17.406  0.00  0.00    +0.000 F 
ENDROOT
BRANCH   1  10
ATOM      4  C   UNL     1       4.419   3.447  19.158  0.00  0.00    +0.000 A 
ATOM      5  C   UNL     1       4.569   2.542  20.225  0.00  0.00    +0.000 A 
ATOM      6  C   UNL     1       3.521   2.267  21.103  0.00  0.00    +0.000 A 
ATOM      7  C   UNL     1       2.289   2.889  20.935  0.00  0.00    +0.000 A 
ATOM      8  C   UNL     1       1.140   2.589  21.850  0.00  0.00    +0.000 C 
ATOM      9  C   UNL     1       2.132   3.790  19.875  0.00  0.00    +0.000 A 
ATOM     10  C   UNL     1       3.179   4.082  18.963  0.00  0.00    +0.000 A 
BRANCH   4  14
ATOM     11  C   UNL     1       7.553   4.829  17.618  0.00  0.00    +0.000 C 
ATOM     12  C   UNL     1       6.441   4.731  18.625  0.00  0.00    +0.000 C 
ATOM     13  O   UNL     1       6.399   5.468  19.605  0.00  0.00    +0.000 OA
ATOM     14  N   UNL     1       5.548   3.706  18.352  0.00  0.00    +0.000 N 
ATOM     15  H   UNL     1       5.897   2.979  17.725  0.00  0.00    +0.000 HD
ENDBRANCH   4  14
ENDBRANCH   1  10
BRANCH   1  16
ATOM     16  C   UNL     1       2.974   6.542  18.194  0.00  0.00    +0.000 C 
ATOM     17  O   UNL     1       3.954   7.205  17.832  0.00  0.00    +0.000 OA
ATOM     18  N   UNL     1       1.903   7.101  18.889  0.00  0.00    +0.000 N 
ATOM     19  H   UNL     1       0.974   6.691  18.832  0.00  0.00    +0.000 HD
BRANCH  18  20
ATOM     20  N   UNL     1       1.974   8.461  19.163  0.00  0.00    +0.000 N 
ATOM     21  C   UNL     1       1.185   9.028  20.160  0.00  0.00    +0.000 A 
ATOM     22  C   UNL     1       0.595   8.280  21.179  0.00  0.00    +0.000 A 
ATOM     23  C   UNL     1      -0.146   8.931  22.166  0.00  0.00    +0.000 A 
ATOM     24  C   UNL     1      -0.267  10.312  22.126  0.00  0.00    +0.000 A 
ATOM     25  C   UNL     1       0.353  10.982  21.088  0.00  0.00    +0.000 A 
ATOM     26  N   UNL     1       1.060  10.370  20.111  0.00  0.00    +0.000 NA
ATOM     27  H   UNL     1       2.252   9.119  18.439  0.00  0.00    +0.000 HD
ENDBRANCH  18  20
ENDBRANCH   1  16
TORSDOF 4
ENDMDL
MODEL 5
REMARK VINA RESULT:      -7.8      3.751      5.803
REMARK  Name = 
REMARK  6 active torsions:
REMARK  status: ('A' for Active; 'I' for Inactive)
REMARK    1  A    between atoms: C_1  and  C_2
REMARK    2  A    between atoms: N_4  and  C_5
REMARK    3  A    between atoms: C_8  and  C_9
REMARK    4  A    between atoms: C_11  and  C_12
REMARK    5  A    between atoms: C_12  and  C_15
REMARK    6  A    between atoms: N_17  and  N_18
REMARK                            x       y       z     vdW  Elec       q    Type
REMARK                         _______ _______ _______ _____ _____    ______ ____
ROOT
ATOM      1  C   UNL     1       3.285   6.293  18.179  0.00  0.00    +0.000 C 
ATOM      2  F   UNL     1       2.068   6.490  17.560  0.00  0.00    +0.000 F 
ATOM      3  F   UNL     1       3.259   7.161  19.241  0.00  0.00    +0.000 F 
ENDROOT
BRANCH   1  10
ATOM      4  C   UNL     1       4.522   4.252  19.262  0.00  0.00    +0.000 A 
ATOM      5  C   UNL     1       4.466   2.895  19.629  0.00  0.00    +0.000 A 
ATOM      6  C   UNL     1       3.312   2.134  19.445  0.00  0.00    +0.000 A 
ATOM      7  C   UNL     1       2.179   2.713  18.884  0.00  0.00    +0.000 A 
ATOM      8  C   UNL     1       0.935   1.909  18.652  0.00  0.00    +0.000 C 
ATOM      9  C   UNL     1       2.227   4.063  18.517  0.00  0.00    +0.000 A 
ATOM     10  C   UNL     1       3.390   4.856  18.685  0.00  0.00    +0.000 A 
BRANCH   4  14
ATOM     11  C   UNL     1       7.979   5.718  19.207  0.00  0.00    +0.000 C 
ATOM     12  C   UNL     1       6.822   4.901  18.703  0.00  0.00    +0.000 C 
ATOM     13  O   UNL     1       6.876   4.306  17.632  0.00  0.00    +0.000 OA
ATOM     14  N   UNL     1       5.713   4.959  19.535  0.00  0.00    +0.000 N 
ATOM     15  H   UNL     1       5.694   5.748  20.181  0.00  0.00    +0.000 HD
ENDBRANCH   4  14
ENDBRANCH   1  10
BRANCH   1  16
ATOM     16  C   UNL     1       4.401   6.710  17.192  0.00  0.00    +0.000 C 
ATOM     17  O   UNL     1       5.009   7.781  17.305  0.00  0.00    +0.000 OA
ATOM     18  N   UNL     1       4.714   5.766  16.216  0.00  0.00    +0.000 N 
ATOM     19  H   UNL     1       4.515   4.779  16.362  0.00  0.00    +0.000 HD
BRANCH  18  20
ATOM     20  N   UNL     1       5.763   6.075  15.358  0.00  0.00    +0.000 N 
ATOM     21  C   UNL     1       6.111   5.212  14.322  0.00  0.00    +0.000 A 
ATOM     22  C   UNL     1       5.252   4.232  13.828  0.00  0.00    +0.000 A 
ATOM     23  C   UNL     1       5.662   3.437  12.757  0.00  0.00    +0.000 A 
ATOM     24  C   UNL     1       6.911   3.648  12.193  0.00  0.00    +0.000 A 
ATOM     25  C   UNL     1       7.701   4.644  12.735  0.00  0.00    +0.000 A 
ATOM     26  N   UNL     1       7.331   5.413  13.783  0.00  0.00    +0.000 NA
ATOM     27  H   UNL     1       6.527   6.668  15.670  0.00  0.00    +0.000 HD
ENDBRANCH  18  20
ENDBRANCH   1  16
TORSDOF 4
ENDMDL
MODEL 6
REMARK VINA RESULT:      -7.8      3.849      6.510
REMARK  Name = 
REMARK  6 active torsions:
REMARK  status: ('A' for Active; 'I' for Inactive)
REMARK    1  A    between atoms: C_1  and  C_2
REMARK    2  A    between atoms: N_4  and  C_5
REMARK    3  A    between atoms: C_8  and  C_9
REMARK    4  A    between atoms: C_11  and  C_12
REMARK    5  A    between atoms: C_12  and  C_15
REMARK    6  A    between atoms: N_17  and  N_18
REMARK                            x       y       z     vdW  Elec       q    Type
REMARK                         _______ _______ _______ _____ _____    ______ ____
ROOT
ATOM      1  C   UNL     1       5.727   5.934  17.531  0.00  0.00    +0.000 C 
ATOM      2  F   UNL     1       5.477   7.266  17.272  0.00  0.00    +0.000 F 
ATOM      3  F   UNL     1       6.407   5.953  18.722  0.00  0.00    +0.000 F 
ENDROOT
BRANCH   1  10
ATOM      4  C   UNL     1       3.121   5.730  17.722  0.00  0.00    +0.000 A 
ATOM      5  C   UNL     1       2.014   4.889  17.934  0.00  0.00    +0.000 A 
ATOM      6  C   UNL     1       2.163   3.513  18.107  0.00  0.00    +0.000 A 
ATOM      7  C   UNL     1       3.429   2.941  18.075  0.00  0.00    +0.000 A 
ATOM      8  C   UNL     1       3.617   1.468  18.285  0.00  0.00    +0.000 C 
ATOM      9  C   UNL     1       4.536   3.772  17.865  0.00  0.00    +0.000 A 
ATOM     10  C   UNL     1       4.413   5.174  17.694  0.00  0.00    +0.000 A 
BRANCH   4  14
ATOM     11  C   UNL     1       2.152   9.347  18.015  0.00  0.00    +0.000 C 
ATOM     12  C   UNL     1       2.351   7.933  18.484  0.00  0.00    +0.000 C 
ATOM     13  O   UNL     1       2.117   7.604  19.642  0.00  0.00    +0.000 OA
ATOM     14  N   UNL     1       2.872   7.103  17.503  0.00  0.00    +0.000 N 
ATOM     15  H   UNL     1       3.333   7.581  16.727  0.00  0.00    +0.000 HD
ENDBRANCH   4  14
ENDBRANCH   1  10
BRANCH   1  16
ATOM     16  C   UNL     1       6.649   5.392  16.413  0.00  0.00    +0.000 C 
ATOM     17  O   UNL     1       7.670   4.739  16.664  0.00  0.00    +0.000 OA
ATOM     18  N   UNL     1       6.209   5.631  15.112  0.00  0.00    +0.000 N 
ATOM     19  H   UNL     1       5.225   5.796  14.917  0.00  0.00    +0.000 HD
BRANCH  18  20
ATOM     20  N   UNL     1       6.973   5.093  14.083  0.00  0.00    +0.000 N 
ATOM     21  C   UNL     1       6.421   4.175  13.194  0.00  0.00    +0.000 A 
ATOM     22  C   UNL     1       5.047   4.027  13.009  0.00  0.00    +0.000 A 
ATOM     23  C   UNL     1       4.577   3.114  12.065  0.00  0.00    +0.000 A 
ATOM     24  C   UNL     1       5.485   2.383  11.315  0.00  0.00    +0.000 A 
ATOM     25  C   UNL     1       6.831   2.592  11.552  0.00  0.00    +0.000 A 
ATOM     26  N   UNL     1       7.308   3.457  12.474  0.00  0.00    +0.000 NA
ATOM     27  H   UNL     1       7.982   5.015  14.177  0.00  0.00    +0.000 HD
ENDBRANCH  18  20
ENDBRANCH   1  16
TORSDOF 4
ENDMDL
MODEL 7
REMARK VINA RESULT:      -7.8      3.887      6.208
REMARK  Name = 
REMARK  6 active torsions:
REMARK  status: ('A' for Active; 'I' for Inactive)
REMARK    1  A    between atoms: C_1  and  C_2
REMARK    2  A    between atoms: N_4  and  C_5
REMARK    3  A    between atoms: C_8  and  C_9
REMARK    4  A    between atoms: C_11  and  C_12
REMARK    5  A    between atoms: C_12  and  C_15
REMARK    6  A    between atoms: N_17  and  N_18
REMARK                            x       y       z     vdW  Elec       q    Type
REMARK                         _______ _______ _______ _____ _____    ______ ____
ROOT
ATOM      1  C   UNL     1       4.360   6.022  16.954  0.00  0.00    +0.000 C 
ATOM      2  F   UNL     1       4.214   7.026  16.020  0.00  0.00    +0.000 F 
ATOM      3  F   UNL     1       4.286   4.870  16.213  0.00  0.00    +0.000 F 
ENDROOT
BRANCH   1  10
ATOM      4  C   UNL     1       6.340   5.144  18.430  0.00  0.00    +0.000 A 
ATOM      5  C   UNL     1       7.589   5.418  19.016  0.00  0.00    +0.000 A 
ATOM      6  C   UNL     1       8.243   6.633  18.810  0.00  0.00    +0.000 A 
ATOM      7  C   UNL     1       7.661   7.610  18.011  0.00  0.00    +0.000 A 
ATOM      8  C   UNL     1       8.333   8.933  17.796  0.00  0.00    +0.000 C 
ATOM      9  C   UNL     1       6.418   7.344  17.424  0.00  0.00    +0.000 A 
ATOM     10  C   UNL     1       5.728   6.121  17.624  0.00  0.00    +0.000 A 
BRANCH   4  14
ATOM     11  C   UNL     1       4.378   2.197  19.682  0.00  0.00    +0.000 C 
ATOM     12  C   UNL     1       4.813   3.635  19.619  0.00  0.00    +0.000 C 
ATOM     13  O   UNL     1       4.301   4.491  20.332  0.00  0.00    +0.000 OA
ATOM     14  N   UNL     1       5.776   3.868  18.649  0.00  0.00    +0.000 N 
ATOM     15  H   UNL     1       5.843   3.156  17.920  0.00  0.00    +0.000 HD
ENDBRANCH   4  14
ENDBRANCH   1  10
BRANCH   1  16
ATOM     16  C   UNL     1       3.161   6.092  17.929  0.00  0.00    +0.000 C 
ATOM     17  O   UNL     1       2.159   5.379  17.789  0.00  0.00    +0.000 OA
ATOM     18  N   UNL     1       3.322   6.962  19.006  0.00  0.00    +0.000 N 
ATOM     19  H   UNL     1       4.249   7.224  19.330  0.00  0.00    +0.000 HD
BRANCH  18  20
ATOM     20  N   UNL     1       2.295   6.995  19.943  0.00  0.00    +0.000 N 
ATOM     21  C   UNL     1       1.509   8.135  20.095  0.00  0.00    +0.000 A 
ATOM     22  C   UNL     1       1.412   9.126  19.119  0.00  0.00    +0.000 A 
ATOM     23  C   UNL     1       0.566  10.216  19.331  0.00  0.00    +0.000 A 
ATOM     24  C   UNL     1      -0.175  10.283  20.500  0.00  0.00    +0.000 A 
ATOM     25  C   UNL     1      -0.029   9.257  21.415  0.00  0.00    +0.000 A 
ATOM     26  N   UNL     1       0.797   8.202  21.238  0.00  0.00    +0.000 NA
ATOM     27  H   UNL     1       2.338   6.415  20.777  0.00  0.00    +0.000 HD
ENDBRANCH  18  20
ENDBRANCH   1  16
TORSDOF 4
ENDMDL
MODEL 8
REMARK VINA RESULT:      -7.8      3.772      5.764
REMARK  Name = 
REMARK  6 active torsions:
REMARK  status: ('A' for Active; 'I' for Inactive)
REMARK    1  A    between atoms: C_1  and  C_2
REMARK    2  A    between atoms: N_4  and  C_5
REMARK    3  A    between atoms: C_8  and  C_9
REMARK    4  A    between atoms: C_11  and  C_12
REMARK    5  A    between atoms: C_12  and  C_15
REMARK    6  A    between atoms: N_17  and  N_18
REMARK                            x       y       z     vdW  Elec       q    Type
REMARK                         _______ _______ _______ _____ _____    ______ ____
ROOT
ATOM      1  C   UNL     1       5.088   5.272  18.605  0.00  0.00    +0.000 C 
ATOM      2  F   UNL     1       5.077   6.290  19.536  0.00  0.00    +0.000 F 
ATOM      3  F   UNL     1       5.969   4.359  19.126  0.00  0.00    +0.000 F 
ENDROOT
BRANCH   1  10
ATOM      4  C   UNL     1       2.510   5.309  18.134  0.00  0.00    +0.000 A 
ATOM      5  C   UNL     1       1.299   4.593  18.129  0.00  0.00    +0.000 A 
ATOM      6  C   UNL     1       1.248   3.240  18.462  0.00  0.00    +0.000 A 
ATOM      7  C   UNL     1       2.412   2.564  18.812  0.00  0.00    +0.000 A 
ATOM      8  C   UNL     1       2.379   1.116  19.199  0.00  0.00    +0.000 C 
ATOM      9  C   UNL     1       3.621   3.270  18.819  0.00  0.00    +0.000 A 
ATOM     10  C   UNL     1       3.699   4.649  18.493  0.00  0.00    +0.000 A 
BRANCH   4  14
ATOM     11  C   UNL     1       2.214   9.049  17.959  0.00  0.00    +0.000 C 
ATOM     12  C   UNL     1       2.221   7.698  18.618  0.00  0.00    +0.000 C 
ATOM     13  O   UNL     1       2.068   7.576  19.828  0.00  0.00    +0.000 OA
ATOM     14  N   UNL     1       2.476   6.662  17.732  0.00  0.00    +0.000 N 
ATOM     15  H   UNL     1       2.919   6.938  16.854  0.00  0.00    +0.000 HD
ENDBRANCH   4  14
ENDBRANCH   1  10
BRANCH   1  16
ATOM     16  C   UNL     1       5.647   5.839  17.279  0.00  0.00    +0.000 C 
ATOM     17  O   UNL     1       5.201   6.873  16.767  0.00  0.00    +0.000 OA
ATOM     18  N   UNL     1       6.729   5.140  16.744  0.00  0.00    +0.000 N 
ATOM     19  H   UNL     1       7.324   4.568  17.338  0.00  0.00    +0.000 HD
BRANCH  18  20
ATOM     20  N   UNL     1       7.306   5.663  15.593  0.00  0.00    +0.000 N 
ATOM     21  C   UNL     1       7.124   5.039  14.361  0.00  0.00    +0.000 A 
ATOM     22  C   UNL     1       6.092   4.135  14.113  0.00  0.00    +0.000 A 
ATOM     23  C   UNL     1       5.954   3.586  12.837  0.00  0.00    +0.000 A 
ATOM     24  C   UNL     1       6.836   3.964  11.835  0.00  0.00    +0.000 A 
ATOM     25  C   UNL     1       7.827   4.871  12.160  0.00  0.00    +0.000 A 
ATOM     26  N   UNL     1       7.990   5.401  13.393  0.00  0.00    +0.000 NA
ATOM     27  H   UNL     1       8.155   6.219  15.648  0.00  0.00    +0.000 HD
ENDBRANCH  18  20
ENDBRANCH   1  16
TORSDOF 4
ENDMDL
MODEL 9
REMARK VINA RESULT:      -7.7      5.061      6.875
REMARK  Name = 
REMARK  6 active torsions:
REMARK  status: ('A' for Active; 'I' for Inactive)
REMARK    1  A    between atoms: C_1  and  C_2
REMARK    2  A    between atoms: N_4  and  C_5
REMARK    3  A    between atoms: C_8  and  C_9
REMARK    4  A    between atoms: C_11  and  C_12
REMARK    5  A    between atoms: C_12  and  C_15
REMARK    6  A    between atoms: N_17  and  N_18
REMARK                            x       y       z     vdW  Elec       q    Type
REMARK                         _______ _______ _______ _____ _____    ______ ____
ROOT
ATOM      1  C   UNL     1       2.552   6.832  18.219  0.00  0.00    +0.000 C 
ATOM      2  F   UNL     1       2.762   8.012  17.537  0.00  0.00    +0.000 F 
ATOM      3  F   UNL     1       1.605   6.182  17.468  0.00  0.00    +0.000 F 
ENDROOT
BRANCH   1  10
ATOM      4  C   UNL     1       3.971   4.682  18.698  0.00  0.00    +0.000 A 
ATOM      5  C   UNL     1       5.246   4.086  18.717  0.00  0.00    +0.000 A 
ATOM      6  C   UNL     1       6.382   4.778  18.297  0.00  0.00    +0.000 A 
ATOM      7  C   UNL     1       6.274   6.090  17.850  0.00  0.00    +0.000 A 
ATOM      8  C   UNL     1       7.484   6.862  17.419  0.00  0.00    +0.000 C 
ATOM      9  C   UNL     1       5.008   6.688  17.828  0.00  0.00    +0.000 A 
ATOM     10  C   UNL     1       3.838   6.011  18.257  0.00  0.00    +0.000 A 
BRANCH   4  14
ATOM     11  C   UNL     1       0.965   2.434  18.824  0.00  0.00    +0.000 C 
ATOM     12  C   UNL     1       2.094   3.189  18.179  0.00  0.00    +0.000 C 
ATOM     13  O   UNL     1       2.305   3.117  16.972  0.00  0.00    +0.000 OA
ATOM     14  N   UNL     1       2.870   3.890  19.089  0.00  0.00    +0.000 N 
ATOM     15  H   UNL     1       2.791   3.580  20.059  0.00  0.00    +0.000 HD
ENDBRANCH   4  14
ENDBRANCH   1  10
BRANCH   1  16
ATOM     16  C   UNL     1       1.968   7.176  19.609  0.00  0.00    +0.000 C 
ATOM     17  O   UNL     1       1.890   6.336  20.514  0.00  0.00    +0.000 OA
ATOM     18  N   UNL     1       1.604   8.510  19.787  0.00  0.00    +0.000 N 
ATOM     19  H   UNL     1       2.023   9.244  19.222  0.00  0.00    +0.000 HD
BRANCH  18  20
ATOM     20  N   UNL     1       1.145   8.872  21.048  0.00  0.00    +0.000 N 
ATOM     21  C   UNL     1       0.272   9.945  21.205  0.00  0.00    +0.000 A 
ATOM     22  C   UNL     1      -0.491  10.463  20.160  0.00  0.00    +0.000 A 
ATOM     23  C   UNL     1      -1.376  11.512  20.411  0.00  0.00    +0.000 A 
ATOM     24  C   UNL     1      -1.493  12.009  21.700  0.00  0.00    +0.000 A 
ATOM     25  C   UNL     1      -0.707  11.437  22.683  0.00  0.00    +0.000 A 
ATOM     26  N   UNL     1       0.169  10.433  22.459  0.00  0.00    +0.000 NA
ATOM     27  H   UNL     1       1.700   8.673  21.876  0.00  0.00    +0.000 HD
ENDBRANCH  18  20
ENDBRANCH   1  16
TORSDOF 4
ENDMDL
