MODEL 1
REMARK VINA RESULT:      -7.3      0.000      0.000
REMARK  Name = 
REMARK  12 active torsions:
REMARK  status: ('A' for Active; 'I' for Inactive)
REMARK    1  A    between atoms: C_1  and  C_2
REMARK    2  A    between atoms: C_2  and  C_3
REMARK    3  A    between atoms: C_3  and  C_4
REMARK    4  A    between atoms: C_3  and  C_7
REMARK    5  A    between atoms: C_4  and  C_5
REMARK    6  A    between atoms: C_4  and  C_6
REMARK    7  A    between atoms: C_9  and  C_10
REMARK    8  A    between atoms: C_10  and  C_11
REMARK    9  A    between atoms: C_10  and  C_12
REMARK   10  A    between atoms: C_21  and  O_22
REMARK   11  A    between atoms: C_25  and  C_26
REMARK   12  A    between atoms: C_30  and  C_31
REMARK                            x       y       z     vdW  Elec       q    Type
REMARK                         _______ _______ _______ _____ _____    ______ ____
ROOT
ATOM      1  C   UNL     1       1.196  10.616  19.635  0.00  0.00    +0.000 C 
ATOM      2  C   UNL     1       0.478  10.342  20.998  0.00  0.00    +0.000 C 
ATOM      3  C   UNL     1       0.533   8.836  21.288  0.00  0.00    +0.000 C 
ATOM      4  C   UNL     1       1.529   8.302  20.273  0.00  0.00    +0.000 C 
ATOM      5  C   UNL     1       1.519   6.800  19.957  0.00  0.00    +0.000 C 
ATOM      6  C   UNL     1       1.746   5.936  21.201  0.00  0.00    +0.000 C 
ATOM      7  C   UNL     1       2.059   4.503  20.878  0.00  0.00    +0.000 C 
ATOM      8  C   UNL     1       2.408   4.041  19.657  0.00  0.00    +0.000 C 
ATOM      9  C   UNL     1       2.673   2.579  19.433  0.00  0.00    +0.000 C 
ATOM     10  C   UNL     1       3.999   2.329  18.711  0.00  0.00    +0.000 C 
ATOM     11  C   UNL     1       4.113   3.159  17.434  0.00  0.00    +0.000 C 
ATOM     12  C   UNL     1       3.900   4.643  17.716  0.00  0.00    +0.000 C 
ATOM     13  C   UNL     1       2.561   4.968  18.444  0.00  0.00    +0.000 C 
ATOM     14  C   UNL     1       1.379   4.705  17.480  0.00  0.00    +0.000 C 
ATOM     15  C   UNL     1       2.616   6.483  18.897  0.00  0.00    +0.000 C 
ATOM     16  C   UNL     1       2.643   7.483  17.709  0.00  0.00    +0.000 C 
ATOM     17  C   UNL     1       2.544   8.950  18.152  0.00  0.00    +0.000 C 
ATOM     18  C   UNL     1       1.296   9.187  19.013  0.00  0.00    +0.000 C 
ATOM     19  C   UNL     1      -0.011   8.826  18.267  0.00  0.00    +0.000 C 
ENDROOT
BRANCH   1  20
ATOM     20  C   UNL     1       0.498  11.781  18.836  0.00  0.00    +0.000 C 
ATOM     21  C   UNL     1      -0.631  12.394  19.674  0.00  0.00    +0.000 C 
BRANCH  20  24
ATOM     22  C   UNL     1       2.572  13.470  19.155  0.00  0.00    +0.000 C 
ATOM     23  O   UNL     1       2.788  12.553  18.073  0.00  0.00    +0.000 OA
ATOM     24  C   UNL     1       1.423  12.858  18.308  0.00  0.00    +0.000 C 
BRANCH  22  25
ATOM     25  C   UNL     1       2.817  14.974  19.021  0.00  0.00    +0.000 C 
BRANCH  25  26
ATOM     26  C   UNL     1       3.568  15.423  17.728  0.00  0.00    +0.000 C 
ATOM     27  C   UNL     1       3.224  16.812  17.187  0.00  0.00    +0.000 C 
ATOM     28  C   UNL     1       5.098  15.331  17.862  0.00  0.00    +0.000 C 
ENDBRANCH  25  26
BRANCH  25  30
ATOM     29  C   UNL     1       3.952  14.347  21.324  0.00  0.00    +0.000 C 
ATOM     30  C   UNL     1       3.471  15.431  20.368  0.00  0.00    +0.000 C 
ENDBRANCH  25  30
ENDBRANCH  22  25
ENDBRANCH  20  24
ENDBRANCH   1  20
BRANCH  10  31
ATOM     31  O   UNL     1       4.122   0.947  18.379  0.00  0.00    +0.000 OA
ATOM     32  H   UNL     1       4.184   0.445  19.211  0.00  0.00    +0.000 HD
ENDBRANCH  10  31
TORSDOF 6
ENDMDL
MODEL 2
REMARK VINA RESULT:      -7.2      0.946      1.307
REMARK  Name = 
REMARK  12 active torsions:
REMARK  status: ('A' for Active; 'I' for Inactive)
REMARK    1  A    between atoms: C_1  and  C_2
REMARK    2  A    between atoms: C_2  and  C_3
REMARK    3  A    between atoms: C_3  and  C_4
REMARK    4  A    between atoms: C_3  and  C_7
REMARK    5  A    between atoms: C_4  and  C_5
REMARK    6  A    between atoms: C_4  and  C_6
REMARK    7  A    between atoms: C_9  and  C_10
REMARK    8  A    between atoms: C_10  and  C_11
REMARK    9  A    between atoms: C_10  and  C_12
REMARK   10  A    between atoms: C_21  and  O_22
REMARK   11  A    between atoms: C_25  and  C_26
REMARK   12  A    between atoms: C_30  and  C_31
REMARK                            x       y       z     vdW  Elec       q    Type
REMARK                         _______ _______ _______ _____ _____    ______ ____
ROOT
ATOM      1  C   UNL     1       1.189  10.883  19.735  0.00  0.00    +0.000 C 
ATOM      2  C   UNL     1       0.415  10.564  21.057  0.00  0.00    +0.000 C 
ATOM      3  C   UNL     1       0.434   9.046  21.284  0.00  0.00    +0.000 C 
ATOM      4  C   UNL     1       1.459   8.538  20.284  0.00  0.00    +0.000 C 
ATOM      5  C   UNL     1       1.437   7.052  19.904  0.00  0.00    +0.000 C 
ATOM      6  C   UNL     1       1.602   6.132  21.117  0.00  0.00    +0.000 C 
ATOM      7  C   UNL     1       1.904   4.708  20.744  0.00  0.00    +0.000 C 
ATOM      8  C   UNL     1       2.291   4.292  19.518  0.00  0.00    +0.000 C 
ATOM      9  C   UNL     1       2.540   2.837  19.242  0.00  0.00    +0.000 C 
ATOM     10  C   UNL     1       3.889   2.594  18.560  0.00  0.00    +0.000 C 
ATOM     11  C   UNL     1       4.065   3.475  17.325  0.00  0.00    +0.000 C 
ATOM     12  C   UNL     1       3.866   4.949  17.662  0.00  0.00    +0.000 C 
ATOM     13  C   UNL     1       2.505   5.267  18.353  0.00  0.00    +0.000 C 
ATOM     14  C   UNL     1       1.357   5.067  17.335  0.00  0.00    +0.000 C 
ATOM     15  C   UNL     1       2.568   6.761  18.873  0.00  0.00    +0.000 C 
ATOM     16  C   UNL     1       2.656   7.809  17.731  0.00  0.00    +0.000 C 
ATOM     17  C   UNL     1       2.565   9.258  18.233  0.00  0.00    +0.000 C 
ATOM     18  C   UNL     1       1.289   9.481  19.056  0.00  0.00    +0.000 C 
ATOM     19  C   UNL     1       0.006   9.175  18.246  0.00  0.00    +0.000 C 
ENDROOT
BRANCH   1  20
ATOM     20  C   UNL     1       0.541  12.094  18.961  0.00  0.00    +0.000 C 
ATOM     21  C   UNL     1      -0.975  12.118  19.193  0.00  0.00    +0.000 C 
BRANCH  20  24
ATOM     22  C   UNL     1       1.992  14.230  18.194  0.00  0.00    +0.000 C 
ATOM     23  O   UNL     1       0.655  14.593  18.563  0.00  0.00    +0.000 OA
ATOM     24  C   UNL     1       1.151  13.451  19.242  0.00  0.00    +0.000 C 
BRANCH  22  25
ATOM     25  C   UNL     1       3.221  14.984  18.703  0.00  0.00    +0.000 C 
BRANCH  25  26
ATOM     26  C   UNL     1       3.221  16.524  18.450  0.00  0.00    +0.000 C 
ATOM     27  C   UNL     1       2.725  16.989  17.078  0.00  0.00    +0.000 C 
ATOM     28  C   UNL     1       2.449  17.309  19.525  0.00  0.00    +0.000 C 
ENDBRANCH  25  26
BRANCH  25  30
ATOM     29  C   UNL     1       5.761  14.998  17.971  0.00  0.00    +0.000 C 
ATOM     30  C   UNL     1       4.466  14.214  18.148  0.00  0.00    +0.000 C 
ENDBRANCH  25  30
ENDBRANCH  22  25
ENDBRANCH  20  24
ENDBRANCH   1  20
BRANCH  10  31
ATOM     31  O   UNL     1       4.002   1.225  18.173  0.00  0.00    +0.000 OA
ATOM     32  H   UNL     1       4.827   0.875  18.553  0.00  0.00    +0.000 HD
ENDBRANCH  10  31
TORSDOF 6
ENDMDL
MODEL 3
REMARK VINA RESULT:      -7.1      0.979      1.419
REMARK  Name = 
REMARK  12 active torsions:
REMARK  status: ('A' for Active; 'I' for Inactive)
REMARK    1  A    between atoms: C_1  and  C_2
REMARK    2  A    between atoms: C_2  and  C_3
REMARK    3  A    between atoms: C_3  and  C_4
REMARK    4  A    between atoms: C_3  and  C_7
REMARK    5  A    between atoms: C_4  and  C_5
REMARK    6  A    between atoms: C_4  and  C_6
REMARK    7  A    between atoms: C_9  and  C_10
REMARK    8  A    between atoms: C_10  and  C_11
REMARK    9  A    between atoms: C_10  and  C_12
REMARK   10  A    between atoms: C_21  and  O_22
REMARK   11  A    between atoms: C_25  and  C_26
REMARK   12  A    between atoms: C_30  and  C_31
REMARK                            x       y       z     vdW  Elec       q    Type
REMARK                         _______ _______ _______ _____ _____    ______ ____
ROOT
ATOM      1  C   UNL     1       1.145  10.770  19.619  0.00  0.00    +0.000 C 
ATOM      2  C   UNL     1       0.387  10.492  20.959  0.00  0.00    +0.000 C 
ATOM      3  C   UNL     1       0.432   8.985  21.246  0.00  0.00    +0.000 C 
ATOM      4  C   UNL     1       1.457   8.454  20.258  0.00  0.00    +0.000 C 
ATOM      5  C   UNL     1       1.455   6.953  19.938  0.00  0.00    +0.000 C 
ATOM      6  C   UNL     1       1.643   6.085  21.185  0.00  0.00    +0.000 C 
ATOM      7  C   UNL     1       1.965   4.652  20.866  0.00  0.00    +0.000 C 
ATOM      8  C   UNL     1       2.349   4.193  19.655  0.00  0.00    +0.000 C 
ATOM      9  C   UNL     1       2.619   2.732  19.434  0.00  0.00    +0.000 C 
ATOM     10  C   UNL     1       3.966   2.483  18.751  0.00  0.00    +0.000 C 
ATOM     11  C   UNL     1       4.119   3.317  17.481  0.00  0.00    +0.000 C 
ATOM     12  C   UNL     1       3.899   4.800  17.761  0.00  0.00    +0.000 C 
ATOM     13  C   UNL     1       2.539   5.125  18.450  0.00  0.00    +0.000 C 
ATOM     14  C   UNL     1       1.386   4.866  17.451  0.00  0.00    +0.000 C 
ATOM     15  C   UNL     1       2.583   6.638  18.909  0.00  0.00    +0.000 C 
ATOM     16  C   UNL     1       2.646   7.642  17.726  0.00  0.00    +0.000 C 
ATOM     17  C   UNL     1       2.535   9.107  18.171  0.00  0.00    +0.000 C 
ATOM     18  C   UNL     1       1.262   9.343  18.996  0.00  0.00    +0.000 C 
ATOM     19  C   UNL     1      -0.022   8.986  18.209  0.00  0.00    +0.000 C 
ENDROOT
BRANCH   1  20
ATOM     20  C   UNL     1       0.473  11.939  18.803  0.00  0.00    +0.000 C 
ATOM     21  C   UNL     1      -0.760  12.463  19.551  0.00  0.00    +0.000 C 
BRANCH  20  24
ATOM     22  C   UNL     1       1.770  14.226  19.390  0.00  0.00    +0.000 C 
ATOM     23  O   UNL     1       2.673  13.178  19.013  0.00  0.00    +0.000 OA
ATOM     24  C   UNL     1       1.391  13.078  18.414  0.00  0.00    +0.000 C 
BRANCH  22  25
ATOM     25  C   UNL     1       1.859  15.638  18.810  0.00  0.00    +0.000 C 
BRANCH  25  26
ATOM     26  C   UNL     1       3.251  16.333  18.936  0.00  0.00    +0.000 C 
ATOM     27  C   UNL     1       4.000  16.126  20.254  0.00  0.00    +0.000 C 
ATOM     28  C   UNL     1       4.207  15.973  17.785  0.00  0.00    +0.000 C 
ENDBRANCH  25  26
BRANCH  25  30
ATOM     29  C   UNL     1      -0.499  16.788  18.488  0.00  0.00    +0.000 C 
ATOM     30  C   UNL     1       0.656  16.435  19.417  0.00  0.00    +0.000 C 
ENDBRANCH  25  30
ENDBRANCH  22  25
ENDBRANCH  20  24
ENDBRANCH   1  20
BRANCH  10  31
ATOM     31  O   UNL     1       4.097   1.102  18.418  0.00  0.00    +0.000 OA
ATOM     32  H   UNL     1       4.799   1.022  17.749  0.00  0.00    +0.000 HD
ENDBRANCH  10  31
TORSDOF 6
ENDMDL
MODEL 4
REMARK VINA RESULT:      -7.0      1.965      3.953
REMARK  Name = 
REMARK  12 active torsions:
REMARK  status: ('A' for Active; 'I' for Inactive)
REMARK    1  A    between atoms: C_1  and  C_2
REMARK    2  A    between atoms: C_2  and  C_3
REMARK    3  A    between atoms: C_3  and  C_4
REMARK    4  A    between atoms: C_3  and  C_7
REMARK    5  A    between atoms: C_4  and  C_5
REMARK    6  A    between atoms: C_4  and  C_6
REMARK    7  A    between atoms: C_9  and  C_10
REMARK    8  A    between atoms: C_10  and  C_11
REMARK    9  A    between atoms: C_10  and  C_12
REMARK   10  A    between atoms: C_21  and  O_22
REMARK   11  A    between atoms: C_25  and  C_26
REMARK   12  A    between atoms: C_30  and  C_31
REMARK                            x       y       z     vdW  Elec       q    Type
REMARK                         _______ _______ _______ _____ _____    ______ ____
ROOT
ATOM      1  C   UNL     1       1.518  10.590  19.886  0.00  0.00    +0.000 C 
ATOM      2  C   UNL     1       0.692  10.289  21.180  0.00  0.00    +0.000 C 
ATOM      3  C   UNL     1       0.622   8.769  21.377  0.00  0.00    +0.000 C 
ATOM      4  C   UNL     1       1.645   8.223  20.394  0.00  0.00    +0.000 C 
ATOM      5  C   UNL     1       1.551   6.748  19.984  0.00  0.00    +0.000 C 
ATOM      6  C   UNL     1       1.632   5.798  21.182  0.00  0.00    +0.000 C 
ATOM      7  C   UNL     1       1.866   4.366  20.789  0.00  0.00    +0.000 C 
ATOM      8  C   UNL     1       2.263   3.952  19.565  0.00  0.00    +0.000 C 
ATOM      9  C   UNL     1       2.439   2.491  19.266  0.00  0.00    +0.000 C 
ATOM     10  C   UNL     1       3.791   2.187  18.614  0.00  0.00    +0.000 C 
ATOM     11  C   UNL     1       4.048   3.080  17.403  0.00  0.00    +0.000 C 
ATOM     12  C   UNL     1       3.921   4.556  17.764  0.00  0.00    +0.000 C 
ATOM     13  C   UNL     1       2.562   4.936  18.426  0.00  0.00    +0.000 C 
ATOM     14  C   UNL     1       1.432   4.818  17.374  0.00  0.00    +0.000 C 
ATOM     15  C   UNL     1       2.693   6.414  18.977  0.00  0.00    +0.000 C 
ATOM     16  C   UNL     1       2.869   7.477  17.859  0.00  0.00    +0.000 C 
ATOM     17  C   UNL     1       2.843   8.918  18.388  0.00  0.00    +0.000 C 
ATOM     18  C   UNL     1       1.559   9.196  19.181  0.00  0.00    +0.000 C 
ATOM     19  C   UNL     1       0.284   8.977  18.332  0.00  0.00    +0.000 C 
ENDROOT
BRANCH   1  20
ATOM     20  C   UNL     1       0.959  11.848  19.120  0.00  0.00    +0.000 C 
ATOM     21  C   UNL     1       1.966  12.311  18.060  0.00  0.00    +0.000 C 
BRANCH  20  24
ATOM     22  C   UNL     1      -1.652  12.500  19.006  0.00  0.00    +0.000 C 
ATOM     23  O   UNL     1      -0.982  12.750  17.764  0.00  0.00    +0.000 OA
ATOM     24  C   UNL     1      -0.421  11.688  18.518  0.00  0.00    +0.000 C 
BRANCH  22  25
ATOM     25  C   UNL     1      -2.990  11.763  19.087  0.00  0.00    +0.000 C 
BRANCH  25  26
ATOM     26  C   UNL     1      -3.707  11.515  17.723  0.00  0.00    +0.000 C 
ATOM     27  C   UNL     1      -3.491  10.144  17.078  0.00  0.00    +0.000 C 
ATOM     28  C   UNL     1      -5.222  11.777  17.785  0.00  0.00    +0.000 C 
ENDBRANCH  25  26
BRANCH  25  30
ATOM     29  C   UNL     1      -3.254  13.792  20.760  0.00  0.00    +0.000 C 
ATOM     30  C   UNL     1      -3.841  12.519  20.162  0.00  0.00    +0.000 C 
ENDBRANCH  25  30
ENDBRANCH  22  25
ENDBRANCH  20  24
ENDBRANCH   1  20
BRANCH  10  31
ATOM     31  O   UNL     1       3.839   0.821  18.204  0.00  0.00    +0.000 OA
ATOM     32  H   UNL     1       3.641   0.269  18.981  0.00  0.00    +0.000 HD
ENDBRANCH  10  31
TORSDOF 6
ENDMDL
MODEL 5
REMARK VINA RESULT:      -6.9      3.100      9.430
REMARK  Name = 
REMARK  12 active torsions:
REMARK  status: ('A' for Active; 'I' for Inactive)
REMARK    1  A    between atoms: C_1  and  C_2
REMARK    2  A    between atoms: C_2  and  C_3
REMARK    3  A    between atoms: C_3  and  C_4
REMARK    4  A    between atoms: C_3  and  C_7
REMARK    5  A    between atoms: C_4  and  C_5
REMARK    6  A    between atoms: C_4  and  C_6
REMARK    7  A    between atoms: C_9  and  C_10
REMARK    8  A    between atoms: C_10  and  C_11
REMARK    9  A    between atoms: C_10  and  C_12
REMARK   10  A    between atoms: C_21  and  O_22
REMARK   11  A    between atoms: C_25  and  C_26
REMARK   12  A    between atoms: C_30  and  C_31
REMARK                            x       y       z     vdW  Elec       q    Type
REMARK                         _______ _______ _______ _____ _____    ______ ____
ROOT
ATOM      1  C   UNL     1       0.815   8.545  19.425  0.00  0.00    +0.000 C 
ATOM      2  C   UNL     1       1.458   8.271  20.825  0.00  0.00    +0.000 C 
ATOM      3  C   UNL     1       0.896   9.285  21.831  0.00  0.00    +0.000 C 
ATOM      4  C   UNL     1      -0.272   9.921  21.097  0.00  0.00    +0.000 C 
ATOM      5  C   UNL     1      -0.802  11.272  21.597  0.00  0.00    +0.000 C 
ATOM      6  C   UNL     1      -1.254  11.222  23.059  0.00  0.00    +0.000 C 
ATOM      7  C   UNL     1      -2.063  12.420  23.470  0.00  0.00    +0.000 C 
ATOM      8  C   UNL     1      -2.610  13.316  22.620  0.00  0.00    +0.000 C 
ATOM      9  C   UNL     1      -3.379  14.499  23.137  0.00  0.00    +0.000 C 
ATOM     10  C   UNL     1      -4.743  14.652  22.459  0.00  0.00    +0.000 C 
ATOM     11  C   UNL     1      -4.623  14.637  20.936  0.00  0.00    +0.000 C 
ATOM     12  C   UNL     1      -3.892  13.389  20.450  0.00  0.00    +0.000 C 
ATOM     13  C   UNL     1      -2.490  13.178  21.097  0.00  0.00    +0.000 C 
ATOM     14  C   UNL     1      -1.522  14.273  20.586  0.00  0.00    +0.000 C 
ATOM     15  C   UNL     1      -1.991  11.730  20.700  0.00  0.00    +0.000 C 
ATOM     16  C   UNL     1      -1.725  11.562  19.179  0.00  0.00    +0.000 C 
ATOM     17  C   UNL     1      -1.100  10.206  18.821  0.00  0.00    +0.000 C 
ATOM     18  C   UNL     1       0.193   9.965  19.612  0.00  0.00    +0.000 C 
ATOM     19  C   UNL     1       1.254  11.062  19.354  0.00  0.00    +0.000 C 
ENDROOT
BRANCH   1  20
ATOM     20  C   UNL     1       1.836   8.274  18.255  0.00  0.00    +0.000 C 
ATOM     21  C   UNL     1       2.390   9.601  17.721  0.00  0.00    +0.000 C 
BRANCH  20  24
ATOM     22  C   UNL     1       2.810   5.770  18.449  0.00  0.00    +0.000 C 
ATOM     23  O   UNL     1       3.566   6.571  17.530  0.00  0.00    +0.000 OA
ATOM     24  C   UNL     1       2.959   7.311  18.577  0.00  0.00    +0.000 C 
BRANCH  22  25
ATOM     25  C   UNL     1       3.470   4.911  19.528  0.00  0.00    +0.000 C 
BRANCH  25  26
ATOM     26  C   UNL     1       4.260   3.668  19.012  0.00  0.00    +0.000 C 
ATOM     27  C   UNL     1       4.406   2.498  19.988  0.00  0.00    +0.000 C 
ATOM     28  C   UNL     1       3.707   3.114  17.687  0.00  0.00    +0.000 C 
ENDBRANCH  25  26
BRANCH  25  30
ATOM     29  C   UNL     1       1.042   4.022  20.077  0.00  0.00    +0.000 C 
ATOM     30  C   UNL     1       2.356   4.604  20.584  0.00  0.00    +0.000 C 
ENDBRANCH  25  30
ENDBRANCH  22  25
ENDBRANCH  20  24
ENDBRANCH   1  20
BRANCH  10  31
ATOM     31  O   UNL     1      -5.356  15.875  22.864  0.00  0.00    +0.000 OA
ATOM     32  H   UNL     1      -6.077  15.656  23.480  0.00  0.00    +0.000 HD
ENDBRANCH  10  31
TORSDOF 6
ENDMDL
MODEL 6
REMARK VINA RESULT:      -6.8      1.554      1.913
REMARK  Name = 
REMARK  12 active torsions:
REMARK  status: ('A' for Active; 'I' for Inactive)
REMARK    1  A    between atoms: C_1  and  C_2
REMARK    2  A    between atoms: C_2  and  C_3
REMARK    3  A    between atoms: C_3  and  C_4
REMARK    4  A    between atoms: C_3  and  C_7
REMARK    5  A    between atoms: C_4  and  C_5
REMARK    6  A    between atoms: C_4  and  C_6
REMARK    7  A    between atoms: C_9  and  C_10
REMARK    8  A    between atoms: C_10  and  C_11
REMARK    9  A    between atoms: C_10  and  C_12
REMARK   10  A    between atoms: C_21  and  O_22
REMARK   11  A    between atoms: C_25  and  C_26
REMARK   12  A    between atoms: C_30  and  C_31
REMARK                            x       y       z     vdW  Elec       q    Type
REMARK                         _______ _______ _______ _____ _____    ______ ____
ROOT
ATOM      1  C   UNL     1       0.694  11.456  19.751  0.00  0.00    +0.000 C 
ATOM      2  C   UNL     1      -0.008  11.067  21.094  0.00  0.00    +0.000 C 
ATOM      3  C   UNL     1       0.157   9.558  21.316  0.00  0.00    +0.000 C 
ATOM      4  C   UNL     1       1.194   9.146  20.286  0.00  0.00    +0.000 C 
ATOM      5  C   UNL     1       1.297   7.664  19.902  0.00  0.00    +0.000 C 
ATOM      6  C   UNL     1       1.580   6.763  21.108  0.00  0.00    +0.000 C 
ATOM      7  C   UNL     1       2.001   5.372  20.723  0.00  0.00    +0.000 C 
ATOM      8  C   UNL     1       2.388   4.994  19.485  0.00  0.00    +0.000 C 
ATOM      9  C   UNL     1       2.762   3.568  19.197  0.00  0.00    +0.000 C 
ATOM     10  C   UNL     1       4.107   3.449  18.475  0.00  0.00    +0.000 C 
ATOM     11  C   UNL     1       4.165   4.343  17.238  0.00  0.00    +0.000 C 
ATOM     12  C   UNL     1       3.842   5.793  17.585  0.00  0.00    +0.000 C 
ATOM     13  C   UNL     1       2.479   5.985  18.317  0.00  0.00    +0.000 C 
ATOM     14  C   UNL     1       1.324   5.680  17.332  0.00  0.00    +0.000 C 
ATOM     15  C   UNL     1       2.420   7.478  18.838  0.00  0.00    +0.000 C 
ATOM     16  C   UNL     1       2.378   8.530  17.697  0.00  0.00    +0.000 C 
ATOM     17  C   UNL     1       2.169   9.964  18.206  0.00  0.00    +0.000 C 
ATOM     18  C   UNL     1       0.902  10.069  19.066  0.00  0.00    +0.000 C 
ATOM     19  C   UNL     1      -0.370   9.647  18.293  0.00  0.00    +0.000 C 
ENDROOT
BRANCH   1  20
ATOM     20  C   UNL     1      -0.084  12.603  19.000  0.00  0.00    +0.000 C 
ATOM     21  C   UNL     1      -1.597  12.406  19.160  0.00  0.00    +0.000 C 
BRANCH  20  24
ATOM     22  C   UNL     1       0.781  15.060  18.315  0.00  0.00    +0.000 C 
ATOM     23  O   UNL     1      -0.498  15.102  18.961  0.00  0.00    +0.000 OA
ATOM     24  C   UNL     1       0.318  14.016  19.367  0.00  0.00    +0.000 C 
BRANCH  22  25
ATOM     25  C   UNL     1       1.933  15.986  18.707  0.00  0.00    +0.000 C 
BRANCH  25  26
ATOM     26  C   UNL     1       1.618  17.514  18.657  0.00  0.00    +0.000 C 
ATOM     27  C   UNL     1       0.806  18.004  17.456  0.00  0.00    +0.000 C 
ATOM     28  C   UNL     1       0.930  18.026  19.935  0.00  0.00    +0.000 C 
ENDBRANCH  25  26
BRANCH  25  30
ATOM     29  C   UNL     1       3.897  14.265  18.294  0.00  0.00    +0.000 C 
ATOM     30  C   UNL     1       3.167  15.530  17.858  0.00  0.00    +0.000 C 
ENDBRANCH  25  30
ENDBRANCH  22  25
ENDBRANCH  20  24
ENDBRANCH   1  20
BRANCH  10  31
ATOM     31  O   UNL     1       4.333   2.096  18.082  0.00  0.00    +0.000 OA
ATOM     32  H   UNL     1       4.675   2.104  17.171  0.00  0.00    +0.000 HD
ENDBRANCH  10  31
TORSDOF 6
ENDMDL
MODEL 7
REMARK VINA RESULT:      -6.8      1.148      1.722
REMARK  Name = 
REMARK  12 active torsions:
REMARK  status: ('A' for Active; 'I' for Inactive)
REMARK    1  A    between atoms: C_1  and  C_2
REMARK    2  A    between atoms: C_2  and  C_3
REMARK    3  A    between atoms: C_3  and  C_4
REMARK    4  A    between atoms: C_3  and  C_7
REMARK    5  A    between atoms: C_4  and  C_5
REMARK    6  A    between atoms: C_4  and  C_6
REMARK    7  A    between atoms: C_9  and  C_10
REMARK    8  A    between atoms: C_10  and  C_11
REMARK    9  A    between atoms: C_10  and  C_12
REMARK   10  A    between atoms: C_21  and  O_22
REMARK   11  A    between atoms: C_25  and  C_26
REMARK   12  A    between atoms: C_30  and  C_31
REMARK                            x       y       z     vdW  Elec       q    Type
REMARK                         _______ _______ _______ _____ _____    ______ ____
ROOT
ATOM      1  C   UNL     1       1.148  10.932  19.431  0.00  0.00    +0.000 C 
ATOM      2  C   UNL     1       0.385  10.683  20.774  0.00  0.00    +0.000 C 
ATOM      3  C   UNL     1       0.427   9.183  21.093  0.00  0.00    +0.000 C 
ATOM      4  C   UNL     1       1.455   8.629  20.121  0.00  0.00    +0.000 C 
ATOM      5  C   UNL     1       1.452   7.122  19.832  0.00  0.00    +0.000 C 
ATOM      6  C   UNL     1       1.636   6.280  21.098  0.00  0.00    +0.000 C 
ATOM      7  C   UNL     1       1.957   4.841  20.811  0.00  0.00    +0.000 C 
ATOM      8  C   UNL     1       2.345   4.356  19.611  0.00  0.00    +0.000 C 
ATOM      9  C   UNL     1       2.614   2.891  19.422  0.00  0.00    +0.000 C 
ATOM     10  C   UNL     1       3.963   2.626  18.748  0.00  0.00    +0.000 C 
ATOM     11  C   UNL     1       4.120   3.432  17.461  0.00  0.00    +0.000 C 
ATOM     12  C   UNL     1       3.901   4.921  17.709  0.00  0.00    +0.000 C 
ATOM     13  C   UNL     1       2.540   5.261  18.387  0.00  0.00    +0.000 C 
ATOM     14  C   UNL     1       1.390   4.983  17.390  0.00  0.00    +0.000 C 
ATOM     15  C   UNL     1       2.583   6.784  18.814  0.00  0.00    +0.000 C 
ATOM     16  C   UNL     1       2.651   7.763  17.610  0.00  0.00    +0.000 C 
ATOM     17  C   UNL     1       2.540   9.237  18.024  0.00  0.00    +0.000 C 
ATOM     18  C   UNL     1       1.265   9.492  18.839  0.00  0.00    +0.000 C 
ATOM     19  C   UNL     1      -0.017   9.119  18.056  0.00  0.00    +0.000 C 
ENDROOT
BRANCH   1  20
ATOM     20  C   UNL     1       0.479  12.084  18.589  0.00  0.00    +0.000 C 
ATOM     21  C   UNL     1      -0.893  12.439  19.176  0.00  0.00    +0.000 C 
BRANCH  20  24
ATOM     22  C   UNL     1       1.970  14.097  19.579  0.00  0.00    +0.000 C 
ATOM     23  O   UNL     1       2.712  13.277  18.666  0.00  0.00    +0.000 OA
ATOM     24  C   UNL     1       1.321  13.327  18.396  0.00  0.00    +0.000 C 
BRANCH  22  25
ATOM     25  C   UNL     1       1.972  15.624  19.504  0.00  0.00    +0.000 C 
BRANCH  25  26
ATOM     26  C   UNL     1       0.592  16.314  19.741  0.00  0.00    +0.000 C 
ATOM     27  C   UNL     1      -0.301  16.492  18.511  0.00  0.00    +0.000 C 
ATOM     28  C   UNL     1      -0.241  15.627  20.837  0.00  0.00    +0.000 C 
ENDBRANCH  25  26
BRANCH  25  30
ATOM     29  C   UNL     1       4.091  16.570  18.238  0.00  0.00    +0.000 C 
ATOM     30  C   UNL     1       2.683  15.993  18.159  0.00  0.00    +0.000 C 
ENDBRANCH  25  30
ENDBRANCH  22  25
ENDBRANCH  20  24
ENDBRANCH   1  20
BRANCH  10  31
ATOM     31  O   UNL     1       4.094   1.237  18.445  0.00  0.00    +0.000 OA
ATOM     32  H   UNL     1       4.894   1.125  17.902  0.00  0.00    +0.000 HD
ENDBRANCH  10  31
TORSDOF 6
ENDMDL
MODEL 8
REMARK VINA RESULT:      -6.7      1.475      1.730
REMARK  Name = 
REMARK  12 active torsions:
REMARK  status: ('A' for Active; 'I' for Inactive)
REMARK    1  A    between atoms: C_1  and  C_2
REMARK    2  A    between atoms: C_2  and  C_3
REMARK    3  A    between atoms: C_3  and  C_4
REMARK    4  A    between atoms: C_3  and  C_7
REMARK    5  A    between atoms: C_4  and  C_5
REMARK    6  A    between atoms: C_4  and  C_6
REMARK    7  A    between atoms: C_9  and  C_10
REMARK    8  A    between atoms: C_10  and  C_11
REMARK    9  A    between atoms: C_10  and  C_12
REMARK   10  A    between atoms: C_21  and  O_22
REMARK   11  A    between atoms: C_25  and  C_26
REMARK   12  A    between atoms: C_30  and  C_31
REMARK                            x       y       z     vdW  Elec       q    Type
REMARK                         _______ _______ _______ _____ _____    ______ ____
ROOT
ATOM      1  C   UNL     1       0.629  11.359  19.439  0.00  0.00    +0.000 C 
ATOM      2  C   UNL     1      -0.105  11.053  20.786  0.00  0.00    +0.000 C 
ATOM      3  C   UNL     1       0.078   9.566  21.118  0.00  0.00    +0.000 C 
ATOM      4  C   UNL     1       1.151   9.101  20.148  0.00  0.00    +0.000 C 
ATOM      5  C   UNL     1       1.288   7.598  19.873  0.00  0.00    +0.000 C 
ATOM      6  C   UNL     1       1.552   6.789  21.146  0.00  0.00    +0.000 C 
ATOM      7  C   UNL     1       2.005   5.383  20.871  0.00  0.00    +0.000 C 
ATOM      8  C   UNL     1       2.434   4.925  19.674  0.00  0.00    +0.000 C 
ATOM      9  C   UNL     1       2.839   3.490  19.497  0.00  0.00    +0.000 C 
ATOM     10  C   UNL     1       4.205   3.345  18.823  0.00  0.00    +0.000 C 
ATOM     11  C   UNL     1       4.285   4.151  17.528  0.00  0.00    +0.000 C 
ATOM     12  C   UNL     1       3.928   5.616  17.763  0.00  0.00    +0.000 C 
ATOM     13  C   UNL     1       2.542   5.834  18.442  0.00  0.00    +0.000 C 
ATOM     14  C   UNL     1       1.421   5.440  17.450  0.00  0.00    +0.000 C 
ATOM     15  C   UNL     1       2.444   7.358  18.855  0.00  0.00    +0.000 C 
ATOM     16  C   UNL     1       2.418   8.327  17.642  0.00  0.00    +0.000 C 
ATOM     17  C   UNL     1       2.172   9.789  18.043  0.00  0.00    +0.000 C 
ATOM     18  C   UNL     1       0.879   9.931  18.859  0.00  0.00    +0.000 C 
ATOM     19  C   UNL     1      -0.364   9.434  18.083  0.00  0.00    +0.000 C 
ENDROOT
BRANCH   1  20
ATOM     20  C   UNL     1      -0.145  12.436  18.588  0.00  0.00    +0.000 C 
ATOM     21  C   UNL     1      -1.611  12.507  19.034  0.00  0.00    +0.000 C 
BRANCH  20  24
ATOM     22  C   UNL     1       1.267  14.411  19.754  0.00  0.00    +0.000 C 
ATOM     23  O   UNL     1       1.888  13.947  18.549  0.00  0.00    +0.000 OA
ATOM     24  C   UNL     1       0.477  13.817  18.557  0.00  0.00    +0.000 C 
BRANCH  22  25
ATOM     25  C   UNL     1       1.066  15.897  20.058  0.00  0.00    +0.000 C 
BRANCH  25  26
ATOM     26  C   UNL     1       2.354  16.776  20.010  0.00  0.00    +0.000 C 
ATOM     27  C   UNL     1       2.187  18.253  20.375  0.00  0.00    +0.000 C 
ATOM     28  C   UNL     1       3.502  16.204  20.861  0.00  0.00    +0.000 C 
ENDBRANCH  25  26
BRANCH  25  30
ATOM     29  C   UNL     1       0.150  14.685  22.221  0.00  0.00    +0.000 C 
ATOM     30  C   UNL     1       0.260  15.963  21.398  0.00  0.00    +0.000 C 
ENDBRANCH  25  30
ENDBRANCH  22  25
ENDBRANCH  20  24
ENDBRANCH   1  20
BRANCH  10  31
ATOM     31  O   UNL     1       4.464   1.973  18.532  0.00  0.00    +0.000 OA
ATOM     32  H   UNL     1       3.940   1.433  19.150  0.00  0.00    +0.000 HD
ENDBRANCH  10  31
TORSDOF 6
ENDMDL
MODEL 9
REMARK VINA RESULT:      -6.6      1.529      2.072
REMARK  Name = 
REMARK  12 active torsions:
REMARK  status: ('A' for Active; 'I' for Inactive)
REMARK    1  A    between atoms: C_1  and  C_2
REMARK    2  A    between atoms: C_2  and  C_3
REMARK    3  A    between atoms: C_3  and  C_4
REMARK    4  A    between atoms: C_3  and  C_7
REMARK    5  A    between atoms: C_4  and  C_5
REMARK    6  A    between atoms: C_4  and  C_6
REMARK    7  A    between atoms: C_9  and  C_10
REMARK    8  A    between atoms: C_10  and  C_11
REMARK    9  A    between atoms: C_10  and  C_12
REMARK   10  A    between atoms: C_21  and  O_22
REMARK   11  A    between atoms: C_25  and  C_26
REMARK   12  A    between atoms: C_30  and  C_31
REMARK                            x       y       z     vdW  Elec       q    Type
REMARK                         _______ _______ _______ _____ _____    ______ ____
ROOT
ATOM      1  C   UNL     1      -0.013  11.887  20.351  0.00  0.00    +0.000 C 
ATOM      2  C   UNL     1      -0.614  11.275  21.659  0.00  0.00    +0.000 C 
ATOM      3  C   UNL     1      -0.233   9.790  21.726  0.00  0.00    +0.000 C 
ATOM      4  C   UNL     1       0.821   9.631  20.643  0.00  0.00    +0.000 C 
ATOM      5  C   UNL     1       1.118   8.222  20.112  0.00  0.00    +0.000 C 
ATOM      6  C   UNL     1       1.560   7.258  21.216  0.00  0.00    +0.000 C 
ATOM      7  C   UNL     1       2.159   5.985  20.688  0.00  0.00    +0.000 C 
ATOM      8  C   UNL     1       2.558   5.787  19.412  0.00  0.00    +0.000 C 
ATOM      9  C   UNL     1       3.119   4.463  18.977  0.00  0.00    +0.000 C 
ATOM     10  C   UNL     1       4.444   4.607  18.226  0.00  0.00    +0.000 C 
ATOM     11  C   UNL     1       4.340   5.616  17.083  0.00  0.00    +0.000 C 
ATOM     12  C   UNL     1       3.828   6.964  17.579  0.00  0.00    +0.000 C 
ATOM     13  C   UNL     1       2.474   6.889  18.347  0.00  0.00    +0.000 C 
ATOM     14  C   UNL     1       1.344   6.520  17.356  0.00  0.00    +0.000 C 
ATOM     15  C   UNL     1       2.223   8.301  19.016  0.00  0.00    +0.000 C 
ATOM     16  C   UNL     1       2.000   9.442  17.987  0.00  0.00    +0.000 C 
ATOM     17  C   UNL     1       1.609  10.776  18.640  0.00  0.00    +0.000 C 
ATOM     18  C   UNL     1       0.366  10.616  19.527  0.00  0.00    +0.000 C 
ATOM     19  C   UNL     1      -0.858  10.095  18.736  0.00  0.00    +0.000 C 
ENDROOT
BRANCH   1  20
ATOM     20  C   UNL     1      -0.966  12.979  19.731  0.00  0.00    +0.000 C 
ATOM     21  C   UNL     1      -2.286  13.032  20.511  0.00  0.00    +0.000 C 
BRANCH  20  24
ATOM     22  C   UNL     1       0.972  14.628  18.848  0.00  0.00    +0.000 C 
ATOM     23  O   UNL     1      -0.311  14.968  18.305  0.00  0.00    +0.000 OA
ATOM     24  C   UNL     1      -0.369  14.363  19.586  0.00  0.00    +0.000 C 
BRANCH  22  25
ATOM     25  C   UNL     1       1.911  15.671  19.455  0.00  0.00    +0.000 C 
BRANCH  25  26
ATOM     26  C   UNL     1       2.579  16.650  18.440  0.00  0.00    +0.000 C 
ATOM     27  C   UNL     1       3.334  16.011  17.272  0.00  0.00    +0.000 C 
ATOM     28  C   UNL     1       1.593  17.679  17.861  0.00  0.00    +0.000 C 
ENDBRANCH  25  26
BRANCH  25  30
ATOM     29  C   UNL     1       2.774  15.074  21.881  0.00  0.00    +0.000 C 
ATOM     30  C   UNL     1       2.902  14.882  20.375  0.00  0.00    +0.000 C 
ENDBRANCH  25  30
ENDBRANCH  22  25
ENDBRANCH  20  24
ENDBRANCH   1  20
BRANCH  10  31
ATOM     31  O   UNL     1       4.846   3.345  17.695  0.00  0.00    +0.000 OA
ATOM     32  H   UNL     1       5.420   2.914  18.353  0.00  0.00    +0.000 HD
ENDBRANCH  10  31
TORSDOF 6
ENDMDL
