MODEL 1
REMARK VINA RESULT:      -8.1      0.000      0.000
REMARK  Name = 
REMARK  9 active torsions:
REMARK  status: ('A' for Active; 'I' for Inactive)
REMARK    1  A    between atoms: C_1  and  C_2
REMARK    2  A    between atoms: C_2  and  C_3
REMARK    3  A    between atoms: C_2  and  N_4
REMARK    4  A    between atoms: N_4  and  C_5
REMARK    5  A    between atoms: C_5  and  C_6
REMARK    6  A    between atoms: C_9  and  C_10
REMARK    7  A    between atoms: C_13  and  N_14
REMARK    8  A    between atoms: C_15  and  C_17
REMARK    9  A    between atoms: C_20  and  C_21
REMARK                            x       y       z     vdW  Elec       q    Type
REMARK                         _______ _______ _______ _____ _____    ______ ____
ROOT
ATOM      1  C   UNL     1       2.749   7.425  18.291  0.00  0.00    +0.000 A 
ATOM      2  C   UNL     1       2.308   8.530  17.555  0.00  0.00    +0.000 A 
ATOM      3  C   UNL     1       1.402   9.439  18.093  0.00  0.00    +0.000 A 
ATOM      4  C   UNL     1       0.892   9.259  19.375  0.00  0.00    +0.000 A 
ATOM      5  C   UNL     1       1.352   8.195  20.146  0.00  0.00    +0.000 A 
ATOM      6  C   UNL     1       2.270   7.287  19.607  0.00  0.00    +0.000 A 
ENDROOT
BRANCH   1  10
ATOM      7  C   UNL     1       5.397   4.632  16.386  0.00  0.00    +0.000 A 
ATOM      8  C   UNL     1       4.254   4.173  17.046  0.00  0.00    +0.000 A 
ATOM      9  C   UNL     1       3.408   5.081  17.680  0.00  0.00    +0.000 A 
ATOM     10  C   UNL     1       3.692   6.459  17.698  0.00  0.00    +0.000 A 
ATOM     11  C   UNL     1       4.894   6.884  17.113  0.00  0.00    +0.000 A 
ATOM     12  C   UNL     1       5.738   5.985  16.467  0.00  0.00    +0.000 A 
BRANCH   7  13
ATOM     13  C   UNL     1       6.126   3.732  15.420  0.00  0.00    +0.000 C 
BRANCH  13  14
ATOM     14  N   UNL     1       6.551   4.445  14.201  0.00  0.00    +0.000 NA
ATOM     15  H   UNL     1       5.991   5.288  14.098  0.00  0.00    +0.000 HD
BRANCH  14  17
ATOM     16  C   UNL     1       4.958   3.579  12.511  0.00  0.00    +0.000 C 
ATOM     17  C   UNL     1       6.415   3.645  12.966  0.00  0.00    +0.000 C 
ATOM     18  C   UNL     1       7.294   4.246  11.869  0.00  0.00    +0.000 C 
ENDBRANCH  14  17
ENDBRANCH  13  14
ENDBRANCH   7  13
ENDBRANCH   1  10
BRANCH   4  19
ATOM     19  N   UNL     1      -0.059  10.130  19.936  0.00  0.00    +0.000 N 
ATOM     20  C   UNL     1       0.171  10.949  21.023  0.00  0.00    +0.000 C 
ATOM     21  O   UNL     1       1.250  11.138  21.576  0.00  0.00    +0.000 OA
ATOM     22  H   UNL     1      -0.957  10.161  19.474  0.00  0.00    +0.000 HD
BRANCH  20  23
ATOM     23  C   UNL     1      -1.002  11.656  21.583  0.00  0.00    +0.000 A 
ATOM     24  C   UNL     1      -1.366  11.327  22.897  0.00  0.00    +0.000 A 
ATOM     25  C   UNL     1      -2.466  11.931  23.496  0.00  0.00    +0.000 A 
ATOM     26  C   UNL     1      -3.214  12.871  22.785  0.00  0.00    +0.000 A 
ATOM     27  C   UNL     1      -2.837  13.217  21.476  0.00  0.00    +0.000 A 
ATOM     28  C   UNL     1      -1.732  12.616  20.873  0.00  0.00    +0.000 A 
BRANCH  26  29
ATOM     29  C   UNL     1      -4.349  13.494  23.387  0.00  0.00    +0.000 C 
ATOM     30  N   UNL     1      -5.268  14.008  23.865  0.00  0.00    +0.000 NA
ENDBRANCH  26  29
ENDBRANCH  20  23
ENDBRANCH   4  19
TORSDOF 7
ENDMDL
MODEL 2
REMARK VINA RESULT:      -8.1      1.074      1.406
REMARK  Name = 
REMARK  9 active torsions:
REMARK  status: ('A' for Active; 'I' for Inactive)
REMARK    1  A    between atoms: C_1  and  C_2
REMARK    2  A    between atoms: C_2  and  C_3
REMARK    3  A    between atoms: C_2  and  N_4
REMARK    4  A    between atoms: N_4  and  C_5
REMARK    5  A    between atoms: C_5  and  C_6
REMARK    6  A    between atoms: C_9  and  C_10
REMARK    7  A    between atoms: C_13  and  N_14
REMARK    8  A    between atoms: C_15  and  C_17
REMARK    9  A    between atoms: C_20  and  C_21
REMARK                            x       y       z     vdW  Elec       q    Type
REMARK                         _______ _______ _______ _____ _____    ______ ____
ROOT
ATOM      1  C   UNL     1       2.749   7.275  18.420  0.00  0.00    +0.000 A 
ATOM      2  C   UNL     1       2.398   7.041  19.754  0.00  0.00    +0.000 A 
ATOM      3  C   UNL     1       1.593   7.934  20.455  0.00  0.00    +0.000 A 
ATOM      4  C   UNL     1       1.132   9.099  19.850  0.00  0.00    +0.000 A 
ATOM      5  C   UNL     1       1.426   9.332  18.509  0.00  0.00    +0.000 A 
ATOM      6  C   UNL     1       2.228   8.429  17.804  0.00  0.00    +0.000 A 
ENDROOT
BRANCH   1  10
ATOM      7  C   UNL     1       5.175   4.551  16.152  0.00  0.00    +0.000 A 
ATOM      8  C   UNL     1       4.110   4.069  16.918  0.00  0.00    +0.000 A 
ATOM      9  C   UNL     1       3.338   4.953  17.668  0.00  0.00    +0.000 A 
ATOM     10  C   UNL     1       3.622   6.331  17.698  0.00  0.00    +0.000 A 
ATOM     11  C   UNL     1       4.753   6.778  17.001  0.00  0.00    +0.000 A 
ATOM     12  C   UNL     1       5.523   5.903  16.239  0.00  0.00    +0.000 A 
BRANCH   7  13
ATOM     13  C   UNL     1       5.795   3.685  15.086  0.00  0.00    +0.000 C 
BRANCH  13  14
ATOM     14  N   UNL     1       5.723   4.303  13.748  0.00  0.00    +0.000 NA
ATOM     15  H   UNL     1       4.828   4.777  13.651  0.00  0.00    +0.000 HD
BRANCH  14  17
ATOM     16  C   UNL     1       4.611   3.332  11.757  0.00  0.00    +0.000 C 
ATOM     17  C   UNL     1       5.858   3.338  12.638  0.00  0.00    +0.000 C 
ATOM     18  C   UNL     1       7.098   3.680  11.812  0.00  0.00    +0.000 C 
ENDBRANCH  14  17
ENDBRANCH  13  14
ENDBRANCH   7  13
ENDBRANCH   1  10
BRANCH   4  19
ATOM     19  N   UNL     1       0.355  10.048  20.540  0.00  0.00    +0.000 N 
ATOM     20  C   UNL     1       0.705  11.371  20.714  0.00  0.00    +0.000 C 
ATOM     21  O   UNL     1       1.659  11.946  20.198  0.00  0.00    +0.000 OA
ATOM     22  H   UNL     1      -0.529   9.718  20.899  0.00  0.00    +0.000 HD
BRANCH  20  23
ATOM     23  C   UNL     1      -0.147  12.170  21.623  0.00  0.00    +0.000 A 
ATOM     24  C   UNL     1      -1.166  11.481  22.296  0.00  0.00    +0.000 A 
ATOM     25  C   UNL     1      -2.023  12.158  23.158  0.00  0.00    +0.000 A 
ATOM     26  C   UNL     1      -1.869  13.532  23.353  0.00  0.00    +0.000 A 
ATOM     27  C   UNL     1      -0.834  14.218  22.695  0.00  0.00    +0.000 A 
ATOM     28  C   UNL     1       0.030  13.543  21.834  0.00  0.00    +0.000 A 
BRANCH  26  29
ATOM     29  C   UNL     1      -2.746  14.238  24.230  0.00  0.00    +0.000 C 
ATOM     30  N   UNL     1      -3.461  14.799  24.945  0.00  0.00    +0.000 NA
ENDBRANCH  26  29
ENDBRANCH  20  23
ENDBRANCH   4  19
TORSDOF 7
ENDMDL
MODEL 3
REMARK VINA RESULT:      -8.0      2.100      3.101
REMARK  Name = 
REMARK  9 active torsions:
REMARK  status: ('A' for Active; 'I' for Inactive)
REMARK    1  A    between atoms: C_1  and  C_2
REMARK    2  A    between atoms: C_2  and  C_3
REMARK    3  A    between atoms: C_2  and  N_4
REMARK    4  A    between atoms: N_4  and  C_5
REMARK    5  A    between atoms: C_5  and  C_6
REMARK    6  A    between atoms: C_9  and  C_10
REMARK    7  A    between atoms: C_13  and  N_14
REMARK    8  A    between atoms: C_15  and  C_17
REMARK    9  A    between atoms: C_20  and  C_21
REMARK                            x       y       z     vdW  Elec       q    Type
REMARK                         _______ _______ _______ _____ _____    ______ ____
ROOT
ATOM      1  C   UNL     1       1.761   8.177  19.503  0.00  0.00    +0.000 A 
ATOM      2  C   UNL     1       1.468   8.046  20.864  0.00  0.00    +0.000 A 
ATOM      3  C   UNL     1       0.789   9.045  21.556  0.00  0.00    +0.000 A 
ATOM      4  C   UNL     1       0.402  10.216  20.912  0.00  0.00    +0.000 A 
ATOM      5  C   UNL     1       0.637  10.351  19.547  0.00  0.00    +0.000 A 
ATOM      6  C   UNL     1       1.312   9.342  18.851  0.00  0.00    +0.000 A 
ENDROOT
BRANCH   1  10
ATOM      7  C   UNL     1       4.065   5.114  17.566  0.00  0.00    +0.000 A 
ATOM      8  C   UNL     1       4.185   6.444  17.156  0.00  0.00    +0.000 A 
ATOM      9  C   UNL     1       3.421   7.433  17.773  0.00  0.00    +0.000 A 
ATOM     10  C   UNL     1       2.501   7.119  18.790  0.00  0.00    +0.000 A 
ATOM     11  C   UNL     1       2.327   5.767  19.118  0.00  0.00    +0.000 A 
ATOM     12  C   UNL     1       3.095   4.775  18.515  0.00  0.00    +0.000 A 
BRANCH   7  13
ATOM     13  C   UNL     1       5.106   4.101  17.164  0.00  0.00    +0.000 C 
BRANCH  13  14
ATOM     14  N   UNL     1       6.211   4.014  18.138  0.00  0.00    +0.000 NA
ATOM     15  H   UNL     1       5.920   4.454  19.008  0.00  0.00    +0.000 HD
BRANCH  14  17
ATOM     16  C   UNL     1       7.439   4.899  16.175  0.00  0.00    +0.000 C 
ATOM     17  C   UNL     1       7.457   4.665  17.685  0.00  0.00    +0.000 C 
ATOM     18  C   UNL     1       7.644   5.986  18.431  0.00  0.00    +0.000 C 
ENDBRANCH  14  17
ENDBRANCH  13  14
ENDBRANCH   7  13
ENDBRANCH   1  10
BRANCH   4  19
ATOM     19  N   UNL     1      -0.245  11.267  21.587  0.00  0.00    +0.000 N 
ATOM     20  C   UNL     1      -1.016  11.114  22.722  0.00  0.00    +0.000 C 
ATOM     21  O   UNL     1      -1.149  10.085  23.377  0.00  0.00    +0.000 OA
ATOM     22  H   UNL     1      -0.096  12.192  21.211  0.00  0.00    +0.000 HD
BRANCH  20  23
ATOM     23  C   UNL     1      -1.766  12.304  23.182  0.00  0.00    +0.000 A 
ATOM     24  C   UNL     1      -1.055  13.511  23.238  0.00  0.00    +0.000 A 
ATOM     25  C   UNL     1      -1.678  14.675  23.675  0.00  0.00    +0.000 A 
ATOM     26  C   UNL     1      -3.018  14.642  24.063  0.00  0.00    +0.000 A 
ATOM     27  C   UNL     1      -3.736  13.436  23.986  0.00  0.00    +0.000 A 
ATOM     28  C   UNL     1      -3.117  12.268  23.544  0.00  0.00    +0.000 A 
BRANCH  26  29
ATOM     29  C   UNL     1      -3.667  15.829  24.518  0.00  0.00    +0.000 C 
ATOM     30  N   UNL     1      -4.197  16.793  24.875  0.00  0.00    +0.000 NA
ENDBRANCH  26  29
ENDBRANCH  20  23
ENDBRANCH   4  19
TORSDOF 7
ENDMDL
MODEL 4
REMARK VINA RESULT:      -8.0      2.067      2.993
REMARK  Name = 
REMARK  9 active torsions:
REMARK  status: ('A' for Active; 'I' for Inactive)
REMARK    1  A    between atoms: C_1  and  C_2
REMARK    2  A    between atoms: C_2  and  C_3
REMARK    3  A    between atoms: C_2  and  N_4
REMARK    4  A    between atoms: N_4  and  C_5
REMARK    5  A    between atoms: C_5  and  C_6
REMARK    6  A    between atoms: C_9  and  C_10
REMARK    7  A    between atoms: C_13  and  N_14
REMARK    8  A    between atoms: C_15  and  C_17
REMARK    9  A    between atoms: C_20  and  C_21
REMARK                            x       y       z     vdW  Elec       q    Type
REMARK                         _______ _______ _______ _____ _____    ______ ____
ROOT
ATOM      1  C   UNL     1       1.790   8.284  19.789  0.00  0.00    +0.000 A 
ATOM      2  C   UNL     1       1.334   9.378  19.046  0.00  0.00    +0.000 A 
ATOM      3  C   UNL     1       0.687  10.446  19.659  0.00  0.00    +0.000 A 
ATOM      4  C   UNL     1       0.456  10.444  21.031  0.00  0.00    +0.000 A 
ATOM      5  C   UNL     1       0.943   9.390  21.800  0.00  0.00    +0.000 A 
ATOM      6  C   UNL     1       1.601   8.321  21.183  0.00  0.00    +0.000 A 
ENDROOT
BRANCH   1  10
ATOM      7  C   UNL     1       3.890   5.020  17.950  0.00  0.00    +0.000 A 
ATOM      8  C   UNL     1       3.872   6.275  17.336  0.00  0.00    +0.000 A 
ATOM      9  C   UNL     1       3.173   7.326  17.925  0.00  0.00    +0.000 A 
ATOM     10  C   UNL     1       2.453   7.148  19.121  0.00  0.00    +0.000 A 
ATOM     11  C   UNL     1       2.405   5.858  19.667  0.00  0.00    +0.000 A 
ATOM     12  C   UNL     1       3.111   4.805  19.091  0.00  0.00    +0.000 A 
BRANCH   7  13
ATOM     13  C   UNL     1       4.900   3.983  17.526  0.00  0.00    +0.000 C 
BRANCH  13  14
ATOM     14  N   UNL     1       6.110   4.001  18.369  0.00  0.00    +0.000 NA
ATOM     15  H   UNL     1       5.912   4.521  19.221  0.00  0.00    +0.000 HD
BRANCH  14  17
ATOM     16  C   UNL     1       7.098   4.678  16.199  0.00  0.00    +0.000 C 
ATOM     17  C   UNL     1       7.283   4.614  17.714  0.00  0.00    +0.000 C 
ATOM     18  C   UNL     1       7.515   6.012  18.287  0.00  0.00    +0.000 C 
ENDBRANCH  14  17
ENDBRANCH  13  14
ENDBRANCH   7  13
ENDBRANCH   1  10
BRANCH   4  19
ATOM     19  N   UNL     1      -0.234  11.483  21.679  0.00  0.00    +0.000 N 
ATOM     20  C   UNL     1      -1.066  11.314  22.768  0.00  0.00    +0.000 C 
ATOM     21  O   UNL     1      -1.227  10.278  23.406  0.00  0.00    +0.000 OA
ATOM     22  H   UNL     1      -0.072  12.413  21.321  0.00  0.00    +0.000 HD
BRANCH  20  23
ATOM     23  C   UNL     1      -1.849  12.494  23.197  0.00  0.00    +0.000 A 
ATOM     24  C   UNL     1      -3.210  12.283  23.460  0.00  0.00    +0.000 A 
ATOM     25  C   UNL     1      -4.023  13.341  23.853  0.00  0.00    +0.000 A 
ATOM     26  C   UNL     1      -3.482  14.621  23.985  0.00  0.00    +0.000 A 
ATOM     27  C   UNL     1      -2.114  14.828  23.743  0.00  0.00    +0.000 A 
ATOM     28  C   UNL     1      -1.294  13.769  23.353  0.00  0.00    +0.000 A 
BRANCH  26  29
ATOM     29  C   UNL     1      -4.309  15.715  24.382  0.00  0.00    +0.000 C 
ATOM     30  N   UNL     1      -4.980  16.596  24.715  0.00  0.00    +0.000 NA
ENDBRANCH  26  29
ENDBRANCH  20  23
ENDBRANCH   4  19
TORSDOF 7
ENDMDL
MODEL 5
REMARK VINA RESULT:      -7.9      0.501      1.229
REMARK  Name = 
REMARK  9 active torsions:
REMARK  status: ('A' for Active; 'I' for Inactive)
REMARK    1  A    between atoms: C_1  and  C_2
REMARK    2  A    between atoms: C_2  and  C_3
REMARK    3  A    between atoms: C_2  and  N_4
REMARK    4  A    between atoms: N_4  and  C_5
REMARK    5  A    between atoms: C_5  and  C_6
REMARK    6  A    between atoms: C_9  and  C_10
REMARK    7  A    between atoms: C_13  and  N_14
REMARK    8  A    between atoms: C_15  and  C_17
REMARK    9  A    between atoms: C_20  and  C_21
REMARK                            x       y       z     vdW  Elec       q    Type
REMARK                         _______ _______ _______ _____ _____    ______ ____
ROOT
ATOM      1  C   UNL     1       3.062   7.330  18.256  0.00  0.00    +0.000 A 
ATOM      2  C   UNL     1       2.571   8.460  17.593  0.00  0.00    +0.000 A 
ATOM      3  C   UNL     1       1.603   9.273  18.175  0.00  0.00    +0.000 A 
ATOM      4  C   UNL     1       1.080   8.969  19.428  0.00  0.00    +0.000 A 
ATOM      5  C   UNL     1       1.587   7.878  20.130  0.00  0.00    +0.000 A 
ATOM      6  C   UNL     1       2.566   7.067  19.547  0.00  0.00    +0.000 A 
ENDROOT
BRANCH   1  10
ATOM      7  C   UNL     1       5.925   4.868  16.210  0.00  0.00    +0.000 A 
ATOM      8  C   UNL     1       4.711   4.323  16.635  0.00  0.00    +0.000 A 
ATOM      9  C   UNL     1       3.793   5.119  17.316  0.00  0.00    +0.000 A 
ATOM     10  C   UNL     1       4.071   6.466  17.615  0.00  0.00    +0.000 A 
ATOM     11  C   UNL     1       5.334   6.964  17.266  0.00  0.00    +0.000 A 
ATOM     12  C   UNL     1       6.252   6.178  16.575  0.00  0.00    +0.000 A 
BRANCH   7  13
ATOM     13  C   UNL     1       6.767   4.141  15.193  0.00  0.00    +0.000 C 
BRANCH  13  14
ATOM     14  N   UNL     1       5.950   3.366  14.239  0.00  0.00    +0.000 NA
ATOM     15  H   UNL     1       6.362   2.443  14.125  0.00  0.00    +0.000 HD
BRANCH  14  17
ATOM     16  C   UNL     1       7.191   4.018  12.195  0.00  0.00    +0.000 C 
ATOM     17  C   UNL     1       5.839   3.991  12.905  0.00  0.00    +0.000 C 
ATOM     18  C   UNL     1       4.808   3.232  12.070  0.00  0.00    +0.000 C 
ENDBRANCH  14  17
ENDBRANCH  13  14
ENDBRANCH   7  13
ENDBRANCH   1  10
BRANCH   4  19
ATOM     19  N   UNL     1       0.068   9.740  20.029  0.00  0.00    +0.000 N 
ATOM     20  C   UNL     1       0.293  10.808  20.873  0.00  0.00    +0.000 C 
ATOM     21  O   UNL     1       1.380  11.322  21.124  0.00  0.00    +0.000 OA
ATOM     22  H   UNL     1      -0.880   9.492  19.786  0.00  0.00    +0.000 HD
BRANCH  20  23
ATOM     23  C   UNL     1      -0.891  11.379  21.553  0.00  0.00    +0.000 A 
ATOM     24  C   UNL     1      -1.740  12.176  20.772  0.00  0.00    +0.000 A 
ATOM     25  C   UNL     1      -2.867  12.766  21.335  0.00  0.00    +0.000 A 
ATOM     26  C   UNL     1      -3.154  12.565  22.686  0.00  0.00    +0.000 A 
ATOM     27  C   UNL     1      -2.315  11.749  23.463  0.00  0.00    +0.000 A 
ATOM     28  C   UNL     1      -1.187  11.152  22.902  0.00  0.00    +0.000 A 
BRANCH  26  29
ATOM     29  C   UNL     1      -4.305  13.170  23.276  0.00  0.00    +0.000 C 
ATOM     30  N   UNL     1      -5.243  13.658  23.743  0.00  0.00    +0.000 NA
ENDBRANCH  26  29
ENDBRANCH  20  23
ENDBRANCH   4  19
TORSDOF 7
ENDMDL
MODEL 6
REMARK VINA RESULT:      -7.9      6.490      9.603
REMARK  Name = 
REMARK  9 active torsions:
REMARK  status: ('A' for Active; 'I' for Inactive)
REMARK    1  A    between atoms: C_1  and  C_2
REMARK    2  A    between atoms: C_2  and  C_3
REMARK    3  A    between atoms: C_2  and  N_4
REMARK    4  A    between atoms: N_4  and  C_5
REMARK    5  A    between atoms: C_5  and  C_6
REMARK    6  A    between atoms: C_9  and  C_10
REMARK    7  A    between atoms: C_13  and  N_14
REMARK    8  A    between atoms: C_15  and  C_17
REMARK    9  A    between atoms: C_20  and  C_21
REMARK                            x       y       z     vdW  Elec       q    Type
REMARK                         _______ _______ _______ _____ _____    ______ ____
ROOT
ATOM      1  C   UNL     1       6.124   6.077  18.042  0.00  0.00    +0.000 A 
ATOM      2  C   UNL     1       7.386   6.090  18.644  0.00  0.00    +0.000 A 
ATOM      3  C   UNL     1       8.221   7.199  18.543  0.00  0.00    +0.000 A 
ATOM      4  C   UNL     1       7.828   8.319  17.818  0.00  0.00    +0.000 A 
ATOM      5  C   UNL     1       6.558   8.351  17.250  0.00  0.00    +0.000 A 
ATOM      6  C   UNL     1       5.716   7.239  17.360  0.00  0.00    +0.000 A 
ENDROOT
BRANCH   1  10
ATOM      7  C   UNL     1       3.474   2.719  18.429  0.00  0.00    +0.000 A 
ATOM      8  C   UNL     1       4.485   2.924  19.371  0.00  0.00    +0.000 A 
ATOM      9  C   UNL     1       5.355   4.003  19.231  0.00  0.00    +0.000 A 
ATOM     10  C   UNL     1       5.260   4.885  18.139  0.00  0.00    +0.000 A 
ATOM     11  C   UNL     1       4.301   4.603  17.155  0.00  0.00    +0.000 A 
ATOM     12  C   UNL     1       3.420   3.535  17.294  0.00  0.00    +0.000 A 
BRANCH   7  13
ATOM     13  C   UNL     1       2.330   1.785  18.736  0.00  0.00    +0.000 C 
BRANCH  13  14
ATOM     14  N   UNL     1       1.044   2.497  18.862  0.00  0.00    +0.000 NA
ATOM     15  H   UNL     1       1.007   3.240  18.168  0.00  0.00    +0.000 HD
BRANCH  14  17
ATOM     16  C   UNL     1       1.601   2.343  21.272  0.00  0.00    +0.000 C 
ATOM     17  C   UNL     1       0.823   3.095  20.194  0.00  0.00    +0.000 C 
ATOM     18  C   UNL     1       1.230   4.568  20.166  0.00  0.00    +0.000 C 
ENDBRANCH  14  17
ENDBRANCH  13  14
ENDBRANCH   7  13
ENDBRANCH   1  10
BRANCH   4  19
ATOM     19  N   UNL     1       8.663   9.440  17.655  0.00  0.00    +0.000 N 
ATOM     20  C   UNL     1       9.153  10.211  18.690  0.00  0.00    +0.000 C 
ATOM     21  O   UNL     1       9.048   9.970  19.889  0.00  0.00    +0.000 OA
ATOM     22  H   UNL     1       8.930   9.658  16.706  0.00  0.00    +0.000 HD
BRANCH  20  23
ATOM     23  C   UNL     1       9.861  11.455  18.316  0.00  0.00    +0.000 A 
ATOM     24  C   UNL     1       9.082  12.617  18.220  0.00  0.00    +0.000 A 
ATOM     25  C   UNL     1       9.664  13.827  17.858  0.00  0.00    +0.000 A 
ATOM     26  C   UNL     1      11.031  13.886  17.585  0.00  0.00    +0.000 A 
ATOM     27  C   UNL     1      11.816  12.726  17.702  0.00  0.00    +0.000 A 
ATOM     28  C   UNL     1      11.238  11.512  18.070  0.00  0.00    +0.000 A 
BRANCH  26  29
ATOM     29  C   UNL     1      11.639  15.122  17.207  0.00  0.00    +0.000 C 
ATOM     30  N   UNL     1      12.142  16.116  16.901  0.00  0.00    +0.000 NA
ENDBRANCH  26  29
ENDBRANCH  20  23
ENDBRANCH   4  19
TORSDOF 7
ENDMDL
MODEL 7
REMARK VINA RESULT:      -7.9      1.001      1.505
REMARK  Name = 
REMARK  9 active torsions:
REMARK  status: ('A' for Active; 'I' for Inactive)
REMARK    1  A    between atoms: C_1  and  C_2
REMARK    2  A    between atoms: C_2  and  C_3
REMARK    3  A    between atoms: C_2  and  N_4
REMARK    4  A    between atoms: N_4  and  C_5
REMARK    5  A    between atoms: C_5  and  C_6
REMARK    6  A    between atoms: C_9  and  C_10
REMARK    7  A    between atoms: C_13  and  N_14
REMARK    8  A    between atoms: C_15  and  C_17
REMARK    9  A    between atoms: C_20  and  C_21
REMARK                            x       y       z     vdW  Elec       q    Type
REMARK                         _______ _______ _______ _____ _____    ______ ____
ROOT
ATOM      1  C   UNL     1       2.602   7.547  18.493  0.00  0.00    +0.000 A 
ATOM      2  C   UNL     1       2.249   7.347  19.831  0.00  0.00    +0.000 A 
ATOM      3  C   UNL     1       1.407   8.234  20.495  0.00  0.00    +0.000 A 
ATOM      4  C   UNL     1       0.910   9.361  19.847  0.00  0.00    +0.000 A 
ATOM      5  C   UNL     1       1.206   9.557  18.501  0.00  0.00    +0.000 A 
ATOM      6  C   UNL     1       2.045   8.659  17.833  0.00  0.00    +0.000 A 
ENDROOT
BRANCH   1  10
ATOM      7  C   UNL     1       5.118   4.799  16.357  0.00  0.00    +0.000 A 
ATOM      8  C   UNL     1       4.247   4.328  17.343  0.00  0.00    +0.000 A 
ATOM      9  C   UNL     1       3.447   5.225  18.048  0.00  0.00    +0.000 A 
ATOM     10  C   UNL     1       3.514   6.610  17.810  0.00  0.00    +0.000 A 
ATOM     11  C   UNL     1       4.465   7.068  16.887  0.00  0.00    +0.000 A 
ATOM     12  C   UNL     1       5.259   6.178  16.170  0.00  0.00    +0.000 A 
BRANCH   7  13
ATOM     13  C   UNL     1       5.727   3.841  15.364  0.00  0.00    +0.000 C 
BRANCH  13  14
ATOM     14  N   UNL     1       6.828   4.454  14.596  0.00  0.00    +0.000 NA
ATOM     15  H   UNL     1       6.709   5.465  14.598  0.00  0.00    +0.000 HD
BRANCH  14  17
ATOM     16  C   UNL     1       5.515   3.643  12.657  0.00  0.00    +0.000 C 
ATOM     17  C   UNL     1       6.900   3.998  13.193  0.00  0.00    +0.000 C 
ATOM     18  C   UNL     1       7.545   5.086  12.335  0.00  0.00    +0.000 C 
ENDBRANCH  14  17
ENDBRANCH  13  14
ENDBRANCH   7  13
ENDBRANCH   1  10
BRANCH   4  19
ATOM     19  N   UNL     1       0.094  10.304  20.498  0.00  0.00    +0.000 N 
ATOM     20  C   UNL     1       0.560  11.429  21.147  0.00  0.00    +0.000 C 
ATOM     21  O   UNL     1       1.715  11.843  21.147  0.00  0.00    +0.000 OA
ATOM     22  H   UNL     1      -0.901  10.137  20.448  0.00  0.00    +0.000 HD
BRANCH  20  23
ATOM     23  C   UNL     1      -0.429  12.203  21.930  0.00  0.00    +0.000 A 
ATOM     24  C   UNL     1      -0.212  13.585  22.026  0.00  0.00    +0.000 A 
ATOM     25  C   UNL     1      -1.083  14.386  22.757  0.00  0.00    +0.000 A 
ATOM     26  C   UNL     1      -2.181  13.810  23.400  0.00  0.00    +0.000 A 
ATOM     27  C   UNL     1      -2.411  12.429  23.285  0.00  0.00    +0.000 A 
ATOM     28  C   UNL     1      -1.542  11.623  22.550  0.00  0.00    +0.000 A 
BRANCH  26  29
ATOM     29  C   UNL     1      -3.079  14.621  24.157  0.00  0.00    +0.000 C 
ATOM     30  N   UNL     1      -3.797  15.282  24.778  0.00  0.00    +0.000 NA
ENDBRANCH  26  29
ENDBRANCH  20  23
ENDBRANCH   4  19
TORSDOF 7
ENDMDL
MODEL 8
REMARK VINA RESULT:      -7.8      1.140      1.455
REMARK  Name = 
REMARK  9 active torsions:
REMARK  status: ('A' for Active; 'I' for Inactive)
REMARK    1  A    between atoms: C_1  and  C_2
REMARK    2  A    between atoms: C_2  and  C_3
REMARK    3  A    between atoms: C_2  and  N_4
REMARK    4  A    between atoms: N_4  and  C_5
REMARK    5  A    between atoms: C_5  and  C_6
REMARK    6  A    between atoms: C_9  and  C_10
REMARK    7  A    between atoms: C_13  and  N_14
REMARK    8  A    between atoms: C_15  and  C_17
REMARK    9  A    between atoms: C_20  and  C_21
REMARK                            x       y       z     vdW  Elec       q    Type
REMARK                         _______ _______ _______ _____ _____    ______ ____
ROOT
ATOM      1  C   UNL     1       2.803   7.305  18.410  0.00  0.00    +0.000 A 
ATOM      2  C   UNL     1       2.398   7.023  19.719  0.00  0.00    +0.000 A 
ATOM      3  C   UNL     1       1.604   7.913  20.435  0.00  0.00    +0.000 A 
ATOM      4  C   UNL     1       1.208   9.123  19.872  0.00  0.00    +0.000 A 
ATOM      5  C   UNL     1       1.556   9.405  18.554  0.00  0.00    +0.000 A 
ATOM      6  C   UNL     1       2.347   8.505  17.833  0.00  0.00    +0.000 A 
ENDROOT
BRANCH   1  10
ATOM      7  C   UNL     1       5.184   4.576  16.102  0.00  0.00    +0.000 A 
ATOM      8  C   UNL     1       4.171   4.090  16.932  0.00  0.00    +0.000 A 
ATOM      9  C   UNL     1       3.414   4.976  17.695  0.00  0.00    +0.000 A 
ATOM     10  C   UNL     1       3.664   6.361  17.672  0.00  0.00    +0.000 A 
ATOM     11  C   UNL     1       4.748   6.815  16.908  0.00  0.00    +0.000 A 
ATOM     12  C   UNL     1       5.501   5.937  16.134  0.00  0.00    +0.000 A 
BRANCH   7  13
ATOM     13  C   UNL     1       5.774   3.694  15.030  0.00  0.00    +0.000 C 
BRANCH  13  14
ATOM     14  N   UNL     1       5.583   4.250  13.677  0.00  0.00    +0.000 NA
ATOM     15  H   UNL     1       4.603   4.496  13.557  0.00  0.00    +0.000 HD
BRANCH  14  17
ATOM     16  C   UNL     1       4.792   3.066  11.648  0.00  0.00    +0.000 C 
ATOM     17  C   UNL     1       5.964   3.322  12.593  0.00  0.00    +0.000 C 
ATOM     18  C   UNL     1       7.156   3.896  11.827  0.00  0.00    +0.000 C 
ENDBRANCH  14  17
ENDBRANCH  13  14
ENDBRANCH   7  13
ENDBRANCH   1  10
BRANCH   4  19
ATOM     19  N   UNL     1       0.445  10.068  20.581  0.00  0.00    +0.000 N 
ATOM     20  C   UNL     1      -0.736  10.620  20.128  0.00  0.00    +0.000 C 
ATOM     21  O   UNL     1      -1.357  10.288  19.123  0.00  0.00    +0.000 OA
ATOM     22  H   UNL     1       0.792  10.321  21.494  0.00  0.00    +0.000 HD
BRANCH  20  23
ATOM     23  C   UNL     1      -1.299  11.732  20.927  0.00  0.00    +0.000 A 
ATOM     24  C   UNL     1      -1.004  11.734  22.297  0.00  0.00    +0.000 A 
ATOM     25  C   UNL     1      -1.506  12.733  23.125  0.00  0.00    +0.000 A 
ATOM     26  C   UNL     1      -2.311  13.739  22.588  0.00  0.00    +0.000 A 
ATOM     27  C   UNL     1      -2.589  13.749  21.211  0.00  0.00    +0.000 A 
ATOM     28  C   UNL     1      -2.084  12.752  20.377  0.00  0.00    +0.000 A 
BRANCH  26  29
ATOM     29  C   UNL     1      -2.836  14.767  23.429  0.00  0.00    +0.000 C 
ATOM     30  N   UNL     1      -3.253  15.607  24.104  0.00  0.00    +0.000 NA
ENDBRANCH  26  29
ENDBRANCH  20  23
ENDBRANCH   4  19
TORSDOF 7
ENDMDL
MODEL 9
REMARK VINA RESULT:      -7.8      1.129      1.668
REMARK  Name = 
REMARK  9 active torsions:
REMARK  status: ('A' for Active; 'I' for Inactive)
REMARK    1  A    between atoms: C_1  and  C_2
REMARK    2  A    between atoms: C_2  and  C_3
REMARK    3  A    between atoms: C_2  and  N_4
REMARK    4  A    between atoms: N_4  and  C_5
REMARK    5  A    between atoms: C_5  and  C_6
REMARK    6  A    between atoms: C_9  and  C_10
REMARK    7  A    between atoms: C_13  and  N_14
REMARK    8  A    between atoms: C_15  and  C_17
REMARK    9  A    between atoms: C_20  and  C_21
REMARK                            x       y       z     vdW  Elec       q    Type
REMARK                         _______ _______ _______ _____ _____    ______ ____
ROOT
ATOM      1  C   UNL     1       2.518   7.732  18.476  0.00  0.00    +0.000 A 
ATOM      2  C   UNL     1       2.067   8.891  17.836  0.00  0.00    +0.000 A 
ATOM      3  C   UNL     1       1.269   9.817  18.501  0.00  0.00    +0.000 A 
ATOM      4  C   UNL     1       0.880   9.602  19.819  0.00  0.00    +0.000 A 
ATOM      5  C   UNL     1       1.356   8.482  20.495  0.00  0.00    +0.000 A 
ATOM      6  C   UNL     1       2.165   7.556  19.827  0.00  0.00    +0.000 A 
ENDROOT
BRANCH   1  10
ATOM      7  C   UNL     1       5.047   4.861  16.524  0.00  0.00    +0.000 A 
ATOM      8  C   UNL     1       5.257   6.228  16.325  0.00  0.00    +0.000 A 
ATOM      9  C   UNL     1       4.422   7.156  16.944  0.00  0.00    +0.000 A 
ATOM     10  C   UNL     1       3.344   6.748  17.750  0.00  0.00    +0.000 A 
ATOM     11  C   UNL     1       3.093   5.373  17.857  0.00  0.00    +0.000 A 
ATOM     12  C   UNL     1       3.930   4.439  17.252  0.00  0.00    +0.000 A 
BRANCH   7  13
ATOM     13  C   UNL     1       6.120   3.868  16.156  0.00  0.00    +0.000 C 
BRANCH  13  14
ATOM     14  N   UNL     1       5.858   3.214  14.860  0.00  0.00    +0.000 NA
ATOM     15  H   UNL     1       6.502   2.435  14.746  0.00  0.00    +0.000 HD
BRANCH  14  17
ATOM     16  C   UNL     1       7.366   4.819  13.721  0.00  0.00    +0.000 C 
ATOM     17  C   UNL     1       6.011   4.114  13.698  0.00  0.00    +0.000 C 
ATOM     18  C   UNL     1       5.845   3.312  12.406  0.00  0.00    +0.000 C 
ENDBRANCH  14  17
ENDBRANCH  13  14
ENDBRANCH   7  13
ENDBRANCH   1  10
BRANCH   4  19
ATOM     19  N   UNL     1       0.037  10.493  20.509  0.00  0.00    +0.000 N 
ATOM     20  C   UNL     1       0.465  11.629  21.166  0.00  0.00    +0.000 C 
ATOM     21  O   UNL     1       1.599  12.099  21.143  0.00  0.00    +0.000 OA
ATOM     22  H   UNL     1      -0.949  10.278  20.483  0.00  0.00    +0.000 HD
BRANCH  20  23
ATOM     23  C   UNL     1      -0.538  12.339  21.990  0.00  0.00    +0.000 A 
ATOM     24  C   UNL     1      -0.317  13.706  22.208  0.00  0.00    +0.000 A 
ATOM     25  C   UNL     1      -1.202  14.447  22.985  0.00  0.00    +0.000 A 
ATOM     26  C   UNL     1      -2.316  13.826  23.551  0.00  0.00    +0.000 A 
ATOM     27  C   UNL     1      -2.549  12.461  23.314  0.00  0.00    +0.000 A 
ATOM     28  C   UNL     1      -1.667  11.715  22.533  0.00  0.00    +0.000 A 
BRANCH  26  29
ATOM     29  C   UNL     1      -3.229  14.575  24.354  0.00  0.00    +0.000 C 
ATOM     30  N   UNL     1      -3.969  15.171  25.012  0.00  0.00    +0.000 NA
ENDBRANCH  26  29
ENDBRANCH  20  23
ENDBRANCH   4  19
TORSDOF 7
ENDMDL
