MODEL 1
REMARK VINA RESULT:      -8.7      0.000      0.000
REMARK  Name = 
REMARK  14 active torsions:
REMARK  status: ('A' for Active; 'I' for Inactive)
REMARK    1  A    between atoms: C_1  and  O_2
REMARK    2  A    between atoms: O_2  and  C_3
REMARK    3  A    between atoms: C_6  and  C_7
REMARK    4  A    between atoms: C_7  and  C_8
REMARK    5  A    between atoms: C_8  and  N_9
REMARK    6  A    between atoms: N_9  and  C_10
REMARK    7  A    between atoms: C_13  and  C_14
REMARK    8  A    between atoms: C_14  and  C_15
REMARK    9  A    between atoms: C_14  and  N_19
REMARK   10  A    between atoms: C_15  and  C_16
REMARK   11  A    between atoms: C_20  and  C_22
REMARK   12  A    between atoms: C_24  and  C_25
REMARK   13  A    between atoms: C_27  and  C_28
REMARK   14  A    between atoms: C_31  and  N_32
REMARK                            x       y       z     vdW  Elec       q    Type
REMARK                         _______ _______ _______ _____ _____    ______ ____
ROOT
ATOM      1  C   UNL     1       0.778  10.181  20.534  0.00  0.00    +0.000 A 
ATOM      2  C   UNL     1       1.478   9.587  19.482  0.00  0.00    +0.000 A 
ATOM      3  C   UNL     1       1.868   8.248  19.495  0.00  0.00    +0.000 A 
ATOM      4  C   UNL     1       1.657   7.426  20.607  0.00  0.00    +0.000 A 
ATOM      5  C   UNL     1       0.978   7.996  21.695  0.00  0.00    +0.000 A 
ATOM      6  C   UNL     1       0.554   9.345  21.650  0.00  0.00    +0.000 A 
ENDROOT
BRANCH   6   7
ATOM      7  N   UNL     1      -0.129   9.859  22.824  0.00  0.00    +0.000 N 
ATOM      8  O   UNL     1       0.382   9.612  23.935  0.00  0.00    +0.000 OA
ATOM      9  O   UNL     1      -1.140  10.549  22.643  0.00  0.00    +0.000 OA
ENDBRANCH   6   7
BRANCH   1  10
ATOM     10  N   UNL     1       0.441  11.554  20.490  0.00  0.00    +0.000 N 
ATOM     11  H   UNL     1       0.044  11.871  21.381  0.00  0.00    +0.000 HD
BRANCH  10  12
ATOM     12  C   UNL     1      -0.286  12.026  19.300  0.00  0.00    +0.000 C 
BRANCH  12  13
ATOM     13  C   UNL     1      -1.800  11.847  19.386  0.00  0.00    +0.000 C 
BRANCH  13  17
ATOM     14  C   UNL     1      -3.301   9.908  15.805  0.00  0.00    +0.000 A 
ATOM     15  C   UNL     1      -3.996  10.974  16.377  0.00  0.00    +0.000 A 
ATOM     16  C   UNL     1      -3.512  11.606  17.529  0.00  0.00    +0.000 A 
ATOM     17  C   UNL     1      -2.324  11.172  18.132  0.00  0.00    +0.000 A 
ATOM     18  C   UNL     1      -1.660  10.067  17.581  0.00  0.00    +0.000 A 
ATOM     19  C   UNL     1      -2.143   9.441  16.423  0.00  0.00    +0.000 A 
BRANCH  14  21
ATOM     20  C   UNL     1      -3.820  10.208  13.518  0.00  0.00    +0.000 C 
ATOM     21  O   UNL     1      -3.864   9.379  14.676  0.00  0.00    +0.000 OA
ENDBRANCH  14  21
ENDBRANCH  13  17
ENDBRANCH  12  13
ENDBRANCH  10  12
ENDBRANCH   1  10
BRANCH   4  22
ATOM     22  C   UNL     1       2.138   5.973  20.643  0.00  0.00    +0.000 C 
BRANCH  22  23
ATOM     23  N   UNL     1       3.306   5.805  19.791  0.00  0.00    +0.000 N 
ATOM     24  C   UNL     1       3.199   5.445  18.463  0.00  0.00    +0.000 C 
ATOM     25  O   UNL     1       2.139   5.158  17.920  0.00  0.00    +0.000 OA
ATOM     26  H   UNL     1       4.122   6.343  20.069  0.00  0.00    +0.000 HD
BRANCH  24  27
ATOM     27  C   UNL     1       4.470   5.491  17.686  0.00  0.00    +0.000 A 
ATOM     28  C   UNL     1       5.475   6.406  18.023  0.00  0.00    +0.000 A 
ATOM     29  C   UNL     1       6.624   6.519  17.233  0.00  0.00    +0.000 A 
ATOM     30  C   UNL     1       7.658   7.563  17.535  0.00  0.00    +0.000 C 
ATOM     31  C   UNL     1       6.771   5.685  16.117  0.00  0.00    +0.000 A 
ATOM     32  C   UNL     1       5.787   4.744  15.784  0.00  0.00    +0.000 A 
ATOM     33  C   UNL     1       5.932   3.891  14.557  0.00  0.00    +0.000 C 
ATOM     34  C   UNL     1       4.638   4.642  16.585  0.00  0.00    +0.000 A 
ENDBRANCH  24  27
ENDBRANCH  22  23
BRANCH  22  35
ATOM     35  C   UNL     1       1.068   4.899  20.338  0.00  0.00    +0.000 C 
BRANCH  35  36
ATOM     36  C   UNL     1       1.421   3.510  20.839  0.00  0.00    +0.000 C 
ATOM     37  N   UNL     1       1.365   2.535  19.883  0.00  0.00    +0.000 N 
ATOM     38  O   UNL     1       1.761   3.239  21.984  0.00  0.00    +0.000 OA
ATOM     39  H   UNL     1       1.032   2.694  18.943  0.00  0.00    +0.000 HD
ATOM     40  H   UNL     1       1.598   1.589  20.160  0.00  0.00    +0.000 HD
ENDBRANCH  35  36
ENDBRANCH  22  35
ENDBRANCH   4  22
TORSDOF 11
ENDMDL
MODEL 2
REMARK VINA RESULT:      -8.6      0.576      1.738
REMARK  Name = 
REMARK  14 active torsions:
REMARK  status: ('A' for Active; 'I' for Inactive)
REMARK    1  A    between atoms: C_1  and  O_2
REMARK    2  A    between atoms: O_2  and  C_3
REMARK    3  A    between atoms: C_6  and  C_7
REMARK    4  A    between atoms: C_7  and  C_8
REMARK    5  A    between atoms: C_8  and  N_9
REMARK    6  A    between atoms: N_9  and  C_10
REMARK    7  A    between atoms: C_13  and  C_14
REMARK    8  A    between atoms: C_14  and  C_15
REMARK    9  A    between atoms: C_14  and  N_19
REMARK   10  A    between atoms: C_15  and  C_16
REMARK   11  A    between atoms: C_20  and  C_22
REMARK   12  A    between atoms: C_24  and  C_25
REMARK   13  A    between atoms: C_27  and  C_28
REMARK   14  A    between atoms: C_31  and  N_32
REMARK                            x       y       z     vdW  Elec       q    Type
REMARK                         _______ _______ _______ _____ _____    ______ ____
ROOT
ATOM      1  C   UNL     1       0.632   9.909  20.418  0.00  0.00    +0.000 A 
ATOM      2  C   UNL     1       1.385   9.387  19.364  0.00  0.00    +0.000 A 
ATOM      3  C   UNL     1       1.889   8.087  19.367  0.00  0.00    +0.000 A 
ATOM      4  C   UNL     1       1.746   7.240  20.471  0.00  0.00    +0.000 A 
ATOM      5  C   UNL     1       1.015   7.739  21.561  0.00  0.00    +0.000 A 
ATOM      6  C   UNL     1       0.476   9.047  21.526  0.00  0.00    +0.000 A 
ENDROOT
BRANCH   6   7
ATOM      7  N   UNL     1      -0.252   9.490  22.700  0.00  0.00    +0.000 N 
ATOM      8  O   UNL     1       0.056  10.600  23.178  0.00  0.00    +0.000 OA
ATOM      9  O   UNL     1      -1.163   8.763  23.118  0.00  0.00    +0.000 OA
ENDBRANCH   6   7
BRANCH   1  10
ATOM     10  N   UNL     1       0.178  11.248  20.383  0.00  0.00    +0.000 N 
ATOM     11  H   UNL     1      -0.248  11.522  21.276  0.00  0.00    +0.000 HD
BRANCH  10  12
ATOM     12  C   UNL     1      -0.583  11.666  19.194  0.00  0.00    +0.000 C 
BRANCH  12  13
ATOM     13  C   UNL     1      -2.089  11.453  19.315  0.00  0.00    +0.000 C 
BRANCH  13  17
ATOM     14  C   UNL     1      -3.782  10.412  15.458  0.00  0.00    +0.000 A 
ATOM     15  C   UNL     1      -2.514   9.956  15.820  0.00  0.00    +0.000 A 
ATOM     16  C   UNL     1      -1.967  10.284  17.066  0.00  0.00    +0.000 A 
ATOM     17  C   UNL     1      -2.681  11.085  17.967  0.00  0.00    +0.000 A 
ATOM     18  C   UNL     1      -3.931  11.583  17.574  0.00  0.00    +0.000 A 
ATOM     19  C   UNL     1      -4.480  11.246  16.328  0.00  0.00    +0.000 A 
BRANCH  14  21
ATOM     20  C   UNL     1      -3.195   9.726  13.272  0.00  0.00    +0.000 C 
ATOM     21  O   UNL     1      -4.217  10.017  14.221  0.00  0.00    +0.000 OA
ENDBRANCH  14  21
ENDBRANCH  13  17
ENDBRANCH  12  13
ENDBRANCH  10  12
ENDBRANCH   1  10
BRANCH   4  22
ATOM     22  C   UNL     1       2.350   5.834  20.498  0.00  0.00    +0.000 C 
BRANCH  22  23
ATOM     23  N   UNL     1       3.482   5.752  19.588  0.00  0.00    +0.000 N 
ATOM     24  C   UNL     1       3.339   5.373  18.269  0.00  0.00    +0.000 C 
ATOM     25  O   UNL     1       2.280   4.996  17.783  0.00  0.00    +0.000 OA
ATOM     26  H   UNL     1       4.266   6.356  19.822  0.00  0.00    +0.000 HD
BRANCH  24  27
ATOM     27  C   UNL     1       4.561   5.514  17.428  0.00  0.00    +0.000 A 
ATOM     28  C   UNL     1       4.750   4.696  16.308  0.00  0.00    +0.000 A 
ATOM     29  C   UNL     1       5.942   4.757  15.578  0.00  0.00    +0.000 A 
ATOM     30  C   UNL     1       6.188   3.815  14.437  0.00  0.00    +0.000 C 
ATOM     31  C   UNL     1       6.933   5.669  15.964  0.00  0.00    +0.000 A 
ATOM     32  C   UNL     1       6.745   6.517  17.066  0.00  0.00    +0.000 A 
ATOM     33  C   UNL     1       7.835   7.454  17.499  0.00  0.00    +0.000 C 
ATOM     34  C   UNL     1       5.546   6.443  17.790  0.00  0.00    +0.000 A 
ENDBRANCH  24  27
ENDBRANCH  22  23
BRANCH  22  35
ATOM     35  C   UNL     1       1.360   4.668  20.259  0.00  0.00    +0.000 C 
BRANCH  35  36
ATOM     36  C   UNL     1       1.799   3.347  20.865  0.00  0.00    +0.000 C 
ATOM     37  N   UNL     1       2.210   2.417  19.952  0.00  0.00    +0.000 N 
ATOM     38  O   UNL     1       1.828   3.096  22.064  0.00  0.00    +0.000 OA
ATOM     39  H   UNL     1       2.147   2.551  18.953  0.00  0.00    +0.000 HD
ATOM     40  H   UNL     1       2.521   1.518  20.301  0.00  0.00    +0.000 HD
ENDBRANCH  35  36
ENDBRANCH  22  35
ENDBRANCH   4  22
TORSDOF 11
ENDMDL
MODEL 3
REMARK VINA RESULT:      -8.5      3.470      6.475
REMARK  Name = 
REMARK  14 active torsions:
REMARK  status: ('A' for Active; 'I' for Inactive)
REMARK    1  A    between atoms: C_1  and  O_2
REMARK    2  A    between atoms: O_2  and  C_3
REMARK    3  A    between atoms: C_6  and  C_7
REMARK    4  A    between atoms: C_7  and  C_8
REMARK    5  A    between atoms: C_8  and  N_9
REMARK    6  A    between atoms: N_9  and  C_10
REMARK    7  A    between atoms: C_13  and  C_14
REMARK    8  A    between atoms: C_14  and  C_15
REMARK    9  A    between atoms: C_14  and  N_19
REMARK   10  A    between atoms: C_15  and  C_16
REMARK   11  A    between atoms: C_20  and  C_22
REMARK   12  A    between atoms: C_24  and  C_25
REMARK   13  A    between atoms: C_27  and  C_28
REMARK   14  A    between atoms: C_31  and  N_32
REMARK                            x       y       z     vdW  Elec       q    Type
REMARK                         _______ _______ _______ _____ _____    ______ ____
ROOT
ATOM      1  C   UNL     1      -4.032  11.395  17.747  0.00  0.00    +0.000 A 
ATOM      2  C   UNL     1      -3.738  11.825  19.042  0.00  0.00    +0.000 A 
ATOM      3  C   UNL     1      -2.445  11.824  19.563  0.00  0.00    +0.000 A 
ATOM      4  C   UNL     1      -1.359  11.308  18.847  0.00  0.00    +0.000 A 
ATOM      5  C   UNL     1      -1.620  10.843  17.549  0.00  0.00    +0.000 A 
ATOM      6  C   UNL     1      -2.932  10.888  17.020  0.00  0.00    +0.000 A 
ENDROOT
BRANCH   6   7
ATOM      7  N   UNL     1      -3.118  10.373  15.676  0.00  0.00    +0.000 N 
ATOM      8  O   UNL     1      -3.484  11.182  14.800  0.00  0.00    +0.000 OA
ATOM      9  O   UNL     1      -2.852   9.181  15.477  0.00  0.00    +0.000 OA
ENDBRANCH   6   7
BRANCH   1  10
ATOM     10  N   UNL     1      -5.368  11.378  17.280  0.00  0.00    +0.000 N 
ATOM     11  H   UNL     1      -5.486  10.712  16.509  0.00  0.00    +0.000 HD
BRANCH  10  12
ATOM     12  C   UNL     1      -6.016  12.682  17.060  0.00  0.00    +0.000 C 
BRANCH  12  13
ATOM     13  C   UNL     1      -7.380  12.817  17.730  0.00  0.00    +0.000 C 
BRANCH  13  17
ATOM     14  C   UNL     1      -6.940  13.043  22.041  0.00  0.00    +0.000 A 
ATOM     15  C   UNL     1      -7.407  11.874  21.438  0.00  0.00    +0.000 A 
ATOM     16  C   UNL     1      -7.545  11.795  20.047  0.00  0.00    +0.000 A 
ATOM     17  C   UNL     1      -7.224  12.893  19.238  0.00  0.00    +0.000 A 
ATOM     18  C   UNL     1      -6.805  14.080  19.855  0.00  0.00    +0.000 A 
ATOM     19  C   UNL     1      -6.661  14.153  21.249  0.00  0.00    +0.000 A 
BRANCH  14  21
ATOM     20  C   UNL     1      -7.910  13.592  24.127  0.00  0.00    +0.000 C 
ATOM     21  O   UNL     1      -6.835  12.997  23.405  0.00  0.00    +0.000 OA
ENDBRANCH  14  21
ENDBRANCH  13  17
ENDBRANCH  12  13
ENDBRANCH  10  12
ENDBRANCH   1  10
BRANCH   4  22
ATOM     22  C   UNL     1       0.051  11.252  19.442  0.00  0.00    +0.000 C 
BRANCH  22  23
ATOM     23  N   UNL     1       0.615   9.920  19.279  0.00  0.00    +0.000 N 
ATOM     24  C   UNL     1       1.646   9.662  18.399  0.00  0.00    +0.000 C 
ATOM     25  O   UNL     1       2.108  10.497  17.631  0.00  0.00    +0.000 OA
ATOM     26  H   UNL     1       0.524   9.313  20.090  0.00  0.00    +0.000 HD
BRANCH  24  27
ATOM     27  C   UNL     1       2.228   8.293  18.483  0.00  0.00    +0.000 A 
ATOM     28  C   UNL     1       1.855   7.425  19.517  0.00  0.00    +0.000 A 
ATOM     29  C   UNL     1       2.475   6.179  19.655  0.00  0.00    +0.000 A 
ATOM     30  C   UNL     1       2.148   5.288  20.816  0.00  0.00    +0.000 C 
ATOM     31  C   UNL     1       3.454   5.797  18.728  0.00  0.00    +0.000 A 
ATOM     32  C   UNL     1       3.816   6.642  17.670  0.00  0.00    +0.000 A 
ATOM     33  C   UNL     1       4.901   6.242  16.713  0.00  0.00    +0.000 C 
ATOM     34  C   UNL     1       3.187   7.890  17.544  0.00  0.00    +0.000 A 
ENDBRANCH  24  27
ENDBRANCH  22  23
BRANCH  22  35
ATOM     35  C   UNL     1       0.188  11.739  20.904  0.00  0.00    +0.000 C 
BRANCH  35  36
ATOM     36  C   UNL     1       0.283  10.619  21.924  0.00  0.00    +0.000 C 
ATOM     37  N   UNL     1      -0.865  10.403  22.633  0.00  0.00    +0.000 N 
ATOM     38  O   UNL     1       1.272   9.923  22.116  0.00  0.00    +0.000 OA
ATOM     39  H   UNL     1      -1.685  10.988  22.558  0.00  0.00    +0.000 HD
ATOM     40  H   UNL     1      -0.861   9.662  23.324  0.00  0.00    +0.000 HD
ENDBRANCH  35  36
ENDBRANCH  22  35
ENDBRANCH   4  22
TORSDOF 11
ENDMDL
MODEL 4
REMARK VINA RESULT:      -8.4      1.436      1.951
REMARK  Name = 
REMARK  14 active torsions:
REMARK  status: ('A' for Active; 'I' for Inactive)
REMARK    1  A    between atoms: C_1  and  O_2
REMARK    2  A    between atoms: O_2  and  C_3
REMARK    3  A    between atoms: C_6  and  C_7
REMARK    4  A    between atoms: C_7  and  C_8
REMARK    5  A    between atoms: C_8  and  N_9
REMARK    6  A    between atoms: N_9  and  C_10
REMARK    7  A    between atoms: C_13  and  C_14
REMARK    8  A    between atoms: C_14  and  C_15
REMARK    9  A    between atoms: C_14  and  N_19
REMARK   10  A    between atoms: C_15  and  C_16
REMARK   11  A    between atoms: C_20  and  C_22
REMARK   12  A    between atoms: C_24  and  C_25
REMARK   13  A    between atoms: C_27  and  C_28
REMARK   14  A    between atoms: C_31  and  N_32
REMARK                            x       y       z     vdW  Elec       q    Type
REMARK                         _______ _______ _______ _____ _____    ______ ____
ROOT
ATOM      1  C   UNL     1       0.717   9.798  20.235  0.00  0.00    +0.000 A 
ATOM      2  C   UNL     1       1.439   9.218  19.190  0.00  0.00    +0.000 A 
ATOM      3  C   UNL     1       1.907   7.905  19.234  0.00  0.00    +0.000 A 
ATOM      4  C   UNL     1       1.758   7.103  20.370  0.00  0.00    +0.000 A 
ATOM      5  C   UNL     1       1.059   7.662  21.451  0.00  0.00    +0.000 A 
ATOM      6  C   UNL     1       0.555   8.983  21.376  0.00  0.00    +0.000 A 
ENDROOT
BRANCH   6   7
ATOM      7  N   UNL     1      -0.143   9.488  22.544  0.00  0.00    +0.000 N 
ATOM      8  O   UNL     1       0.230  10.587  23.001  0.00  0.00    +0.000 OA
ATOM      9  O   UNL     1      -1.092   8.822  22.978  0.00  0.00    +0.000 OA
ENDBRANCH   6   7
BRANCH   1  10
ATOM     10  N   UNL     1       0.299  11.148  20.158  0.00  0.00    +0.000 N 
ATOM     11  H   UNL     1       0.680  11.702  20.933  0.00  0.00    +0.000 HD
BRANCH  10  12
ATOM     12  C   UNL     1      -1.125  11.392  19.880  0.00  0.00    +0.000 C 
BRANCH  12  13
ATOM     13  C   UNL     1      -1.491  11.314  18.400  0.00  0.00    +0.000 C 
BRANCH  13  17
ATOM     14  C   UNL     1      -5.746  11.971  17.859  0.00  0.00    +0.000 A 
ATOM     15  C   UNL     1      -4.967  11.480  16.811  0.00  0.00    +0.000 A 
ATOM     16  C   UNL     1      -3.595  11.260  16.983  0.00  0.00    +0.000 A 
ATOM     17  C   UNL     1      -2.979  11.540  18.210  0.00  0.00    +0.000 A 
ATOM     18  C   UNL     1      -3.759  12.083  19.241  0.00  0.00    +0.000 A 
ATOM     19  C   UNL     1      -5.134  12.294  19.068  0.00  0.00    +0.000 A 
BRANCH  14  21
ATOM     20  C   UNL     1      -7.722  13.212  18.245  0.00  0.00    +0.000 C 
ATOM     21  O   UNL     1      -7.075  12.133  17.576  0.00  0.00    +0.000 OA
ENDBRANCH  14  21
ENDBRANCH  13  17
ENDBRANCH  12  13
ENDBRANCH  10  12
ENDBRANCH   1  10
BRANCH   4  22
ATOM     22  C   UNL     1       2.324   5.683  20.440  0.00  0.00    +0.000 C 
BRANCH  22  23
ATOM     23  N   UNL     1       3.493   5.561  19.582  0.00  0.00    +0.000 N 
ATOM     24  C   UNL     1       3.403   5.134  18.273  0.00  0.00    +0.000 C 
ATOM     25  O   UNL     1       2.362   4.745  17.757  0.00  0.00    +0.000 OA
ATOM     26  H   UNL     1       4.270   6.169  19.826  0.00  0.00    +0.000 HD
BRANCH  24  27
ATOM     27  C   UNL     1       4.660   5.237  17.480  0.00  0.00    +0.000 A 
ATOM     28  C   UNL     1       5.653   6.155  17.841  0.00  0.00    +0.000 A 
ATOM     29  C   UNL     1       6.788   6.324  17.040  0.00  0.00    +0.000 A 
ATOM     30  C   UNL     1       7.806   7.374  17.371  0.00  0.00    +0.000 C 
ATOM     31  C   UNL     1       6.932   5.541  15.887  0.00  0.00    +0.000 A 
ATOM     32  C   UNL     1       5.961   4.596  15.529  0.00  0.00    +0.000 A 
ATOM     33  C   UNL     1       6.103   3.799  14.265  0.00  0.00    +0.000 C 
ATOM     34  C   UNL     1       4.827   4.438  16.341  0.00  0.00    +0.000 A 
ENDBRANCH  24  27
ENDBRANCH  22  23
BRANCH  22  35
ATOM     35  C   UNL     1       1.316   4.540  20.170  0.00  0.00    +0.000 C 
BRANCH  35  36
ATOM     36  C   UNL     1       1.696   3.214  20.806  0.00  0.00    +0.000 C 
ATOM     37  N   UNL     1       1.916   2.203  19.913  0.00  0.00    +0.000 N 
ATOM     38  O   UNL     1       1.834   3.023  22.008  0.00  0.00    +0.000 OA
ATOM     39  H   UNL     1       1.755   2.292  18.919  0.00  0.00    +0.000 HD
ATOM     40  H   UNL     1       2.180   1.298  20.281  0.00  0.00    +0.000 HD
ENDBRANCH  35  36
ENDBRANCH  22  35
ENDBRANCH   4  22
TORSDOF 11
ENDMDL
MODEL 5
REMARK VINA RESULT:      -8.3      2.791      4.001
REMARK  Name = 
REMARK  14 active torsions:
REMARK  status: ('A' for Active; 'I' for Inactive)
REMARK    1  A    between atoms: C_1  and  O_2
REMARK    2  A    between atoms: O_2  and  C_3
REMARK    3  A    between atoms: C_6  and  C_7
REMARK    4  A    between atoms: C_7  and  C_8
REMARK    5  A    between atoms: C_8  and  N_9
REMARK    6  A    between atoms: N_9  and  C_10
REMARK    7  A    between atoms: C_13  and  C_14
REMARK    8  A    between atoms: C_14  and  C_15
REMARK    9  A    between atoms: C_14  and  N_19
REMARK   10  A    between atoms: C_15  and  C_16
REMARK   11  A    between atoms: C_20  and  C_22
REMARK   12  A    between atoms: C_24  and  C_25
REMARK   13  A    between atoms: C_27  and  C_28
REMARK   14  A    between atoms: C_31  and  N_32
REMARK                            x       y       z     vdW  Elec       q    Type
REMARK                         _______ _______ _______ _____ _____    ______ ____
ROOT
ATOM      1  C   UNL     1       0.621  10.094  20.172  0.00  0.00    +0.000 A 
ATOM      2  C   UNL     1       1.277   9.424  19.136  0.00  0.00    +0.000 A 
ATOM      3  C   UNL     1       1.741   8.116  19.259  0.00  0.00    +0.000 A 
ATOM      4  C   UNL     1       1.658   7.410  20.463  0.00  0.00    +0.000 A 
ATOM      5  C   UNL     1       1.028   8.060  21.535  0.00  0.00    +0.000 A 
ATOM      6  C   UNL     1       0.525   9.374  21.383  0.00  0.00    +0.000 A 
ENDROOT
BRANCH   6   7
ATOM      7  N   UNL     1      -0.099   9.979  22.546  0.00  0.00    +0.000 N 
ATOM      8  O   UNL     1       0.437   9.774  23.653  0.00  0.00    +0.000 OA
ATOM      9  O   UNL     1      -1.089  10.697  22.357  0.00  0.00    +0.000 OA
ENDBRANCH   6   7
BRANCH   1  10
ATOM     10  N   UNL     1       0.204  11.436  20.011  0.00  0.00    +0.000 N 
ATOM     11  H   UNL     1      -0.464  11.531  19.238  0.00  0.00    +0.000 HD
BRANCH  10  12
ATOM     12  C   UNL     1       1.252  12.470  20.036  0.00  0.00    +0.000 C 
BRANCH  12  13
ATOM     13  C   UNL     1       0.884  13.708  20.849  0.00  0.00    +0.000 C 
BRANCH  13  17
ATOM     14  C   UNL     1       1.221  17.283  18.413  0.00  0.00    +0.000 A 
ATOM     15  C   UNL     1       2.287  16.868  19.212  0.00  0.00    +0.000 A 
ATOM     16  C   UNL     1       2.185  15.712  19.994  0.00  0.00    +0.000 A 
ATOM     17  C   UNL     1       1.005  14.957  19.995  0.00  0.00    +0.000 A 
ATOM     18  C   UNL     1      -0.080  15.409  19.231  0.00  0.00    +0.000 A 
ATOM     19  C   UNL     1       0.029  16.564  18.442  0.00  0.00    +0.000 A 
BRANCH  14  21
ATOM     20  C   UNL     1       0.693  18.534  16.477  0.00  0.00    +0.000 C 
ATOM     21  O   UNL     1       1.443  18.419  17.683  0.00  0.00    +0.000 OA
ENDBRANCH  14  21
ENDBRANCH  13  17
ENDBRANCH  12  13
ENDBRANCH  10  12
ENDBRANCH   1  10
BRANCH   4  22
ATOM     22  C   UNL     1       2.222   5.995  20.614  0.00  0.00    +0.000 C 
BRANCH  22  23
ATOM     23  N   UNL     1       3.393   5.824  19.766  0.00  0.00    +0.000 N 
ATOM     24  C   UNL     1       3.298   5.380  18.463  0.00  0.00    +0.000 C 
ATOM     25  O   UNL     1       2.248   5.017  17.945  0.00  0.00    +0.000 OA
ATOM     26  H   UNL     1       4.188   6.410  20.008  0.00  0.00    +0.000 HD
BRANCH  24  27
ATOM     27  C   UNL     1       4.563   5.432  17.678  0.00  0.00    +0.000 A 
ATOM     28  C   UNL     1       5.566   6.351  18.008  0.00  0.00    +0.000 A 
ATOM     29  C   UNL     1       6.709   6.469  17.210  0.00  0.00    +0.000 A 
ATOM     30  C   UNL     1       7.739   7.519  17.504  0.00  0.00    +0.000 C 
ATOM     31  C   UNL     1       6.852   5.635  16.094  0.00  0.00    +0.000 A 
ATOM     32  C   UNL     1       5.871   4.688  15.769  0.00  0.00    +0.000 A 
ATOM     33  C   UNL     1       6.012   3.836  14.542  0.00  0.00    +0.000 C 
ATOM     34  C   UNL     1       4.728   4.582  16.576  0.00  0.00    +0.000 A 
ENDBRANCH  24  27
ENDBRANCH  22  23
BRANCH  22  35
ATOM     35  C   UNL     1       1.214   4.840  20.408  0.00  0.00    +0.000 C 
BRANCH  35  36
ATOM     36  C   UNL     1       1.680   3.503  20.958  0.00  0.00    +0.000 C 
ATOM     37  N   UNL     1       1.716   2.496  20.035  0.00  0.00    +0.000 N 
ATOM     38  O   UNL     1       2.029   3.300  22.114  0.00  0.00    +0.000 OA
ATOM     39  H   UNL     1       1.380   2.595  19.087  0.00  0.00    +0.000 HD
ATOM     40  H   UNL     1       2.027   1.583  20.345  0.00  0.00    +0.000 HD
ENDBRANCH  35  36
ENDBRANCH  22  35
ENDBRANCH   4  22
TORSDOF 11
ENDMDL
MODEL 6
REMARK VINA RESULT:      -8.3      2.331      3.231
REMARK  Name = 
REMARK  14 active torsions:
REMARK  status: ('A' for Active; 'I' for Inactive)
REMARK    1  A    between atoms: C_1  and  O_2
REMARK    2  A    between atoms: O_2  and  C_3
REMARK    3  A    between atoms: C_6  and  C_7
REMARK    4  A    between atoms: C_7  and  C_8
REMARK    5  A    between atoms: C_8  and  N_9
REMARK    6  A    between atoms: N_9  and  C_10
REMARK    7  A    between atoms: C_13  and  C_14
REMARK    8  A    between atoms: C_14  and  C_15
REMARK    9  A    between atoms: C_14  and  N_19
REMARK   10  A    between atoms: C_15  and  C_16
REMARK   11  A    between atoms: C_20  and  C_22
REMARK   12  A    between atoms: C_24  and  C_25
REMARK   13  A    between atoms: C_27  and  C_28
REMARK   14  A    between atoms: C_31  and  N_32
REMARK                            x       y       z     vdW  Elec       q    Type
REMARK                         _______ _______ _______ _____ _____    ______ ____
ROOT
ATOM      1  C   UNL     1       1.747   8.994  18.925  0.00  0.00    +0.000 A 
ATOM      2  C   UNL     1       2.478   8.728  17.765  0.00  0.00    +0.000 A 
ATOM      3  C   UNL     1       3.121   7.512  17.539  0.00  0.00    +0.000 A 
ATOM      4  C   UNL     1       3.150   6.500  18.504  0.00  0.00    +0.000 A 
ATOM      5  C   UNL     1       2.446   6.740  19.695  0.00  0.00    +0.000 A 
ATOM      6  C   UNL     1       1.765   7.965  19.892  0.00  0.00    +0.000 A 
ENDROOT
BRANCH   6   7
ATOM      7  N   UNL     1       1.075   8.138  21.157  0.00  0.00    +0.000 N 
ATOM      8  O   UNL     1       0.000   7.524  21.310  0.00  0.00    +0.000 OA
ATOM      9  O   UNL     1       1.623   8.839  22.017  0.00  0.00    +0.000 OA
ENDBRANCH   6   7
BRANCH   1  10
ATOM     10  N   UNL     1       1.146  10.259  19.123  0.00  0.00    +0.000 N 
ATOM     11  H   UNL     1       0.762  10.346  20.070  0.00  0.00    +0.000 HD
BRANCH  10  12
ATOM     12  C   UNL     1       0.255  10.751  18.059  0.00  0.00    +0.000 C 
BRANCH  12  13
ATOM     13  C   UNL     1      -0.907   9.813  17.740  0.00  0.00    +0.000 C 
BRANCH  13  17
ATOM     14  C   UNL     1      -4.693  11.703  18.703  0.00  0.00    +0.000 A 
ATOM     15  C   UNL     1      -3.501  12.190  19.243  0.00  0.00    +0.000 A 
ATOM     16  C   UNL     1      -2.277  11.587  18.930  0.00  0.00    +0.000 A 
ATOM     17  C   UNL     1      -2.230  10.478  18.076  0.00  0.00    +0.000 A 
ATOM     18  C   UNL     1      -3.435   9.963  17.579  0.00  0.00    +0.000 A 
ATOM     19  C   UNL     1      -4.659  10.574  17.888  0.00  0.00    +0.000 A 
BRANCH  14  21
ATOM     20  C   UNL     1      -6.325  13.309  18.113  0.00  0.00    +0.000 C 
ATOM     21  O   UNL     1      -5.823  12.381  19.071  0.00  0.00    +0.000 OA
ENDBRANCH  14  21
ENDBRANCH  13  17
ENDBRANCH  12  13
ENDBRANCH  10  12
ENDBRANCH   1  10
BRANCH   4  22
ATOM     22  C   UNL     1       3.906   5.188  18.280  0.00  0.00    +0.000 C 
BRANCH  22  23
ATOM     23  N   UNL     1       4.494   5.164  16.949  0.00  0.00    +0.000 N 
ATOM     24  C   UNL     1       5.771   4.695  16.719  0.00  0.00    +0.000 C 
ATOM     25  O   UNL     1       6.537   4.345  17.609  0.00  0.00    +0.000 OA
ATOM     26  H   UNL     1       3.826   5.106  16.185  0.00  0.00    +0.000 HD
BRANCH  24  27
ATOM     27  C   UNL     1       6.156   4.570  15.284  0.00  0.00    +0.000 A 
ATOM     28  C   UNL     1       7.326   5.173  14.809  0.00  0.00    +0.000 A 
ATOM     29  C   UNL     1       7.635   5.142  13.444  0.00  0.00    +0.000 A 
ATOM     30  C   UNL     1       8.837   5.869  12.918  0.00  0.00    +0.000 C 
ATOM     31  C   UNL     1       6.774   4.475  12.564  0.00  0.00    +0.000 A 
ATOM     32  C   UNL     1       5.614   3.840  13.030  0.00  0.00    +0.000 A 
ATOM     33  C   UNL     1       4.673   3.172  12.070  0.00  0.00    +0.000 C 
ATOM     34  C   UNL     1       5.315   3.881  14.401  0.00  0.00    +0.000 A 
ENDBRANCH  24  27
ENDBRANCH  22  23
BRANCH  22  35
ATOM     35  C   UNL     1       3.108   3.892  18.559  0.00  0.00    +0.000 C 
BRANCH  35  36
ATOM     36  C   UNL     1       3.641   3.072  19.720  0.00  0.00    +0.000 C 
ATOM     37  N   UNL     1       4.895   2.566  19.525  0.00  0.00    +0.000 N 
ATOM     38  O   UNL     1       3.049   2.875  20.774  0.00  0.00    +0.000 OA
ATOM     39  H   UNL     1       5.399   2.646  18.653  0.00  0.00    +0.000 HD
ATOM     40  H   UNL     1       5.304   2.016  20.271  0.00  0.00    +0.000 HD
ENDBRANCH  35  36
ENDBRANCH  22  35
ENDBRANCH   4  22
TORSDOF 11
ENDMDL
MODEL 7
REMARK VINA RESULT:      -8.3      2.870      4.244
REMARK  Name = 
REMARK  14 active torsions:
REMARK  status: ('A' for Active; 'I' for Inactive)
REMARK    1  A    between atoms: C_1  and  O_2
REMARK    2  A    between atoms: O_2  and  C_3
REMARK    3  A    between atoms: C_6  and  C_7
REMARK    4  A    between atoms: C_7  and  C_8
REMARK    5  A    between atoms: C_8  and  N_9
REMARK    6  A    between atoms: N_9  and  C_10
REMARK    7  A    between atoms: C_13  and  C_14
REMARK    8  A    between atoms: C_14  and  C_15
REMARK    9  A    between atoms: C_14  and  N_19
REMARK   10  A    between atoms: C_15  and  C_16
REMARK   11  A    between atoms: C_20  and  C_22
REMARK   12  A    between atoms: C_24  and  C_25
REMARK   13  A    between atoms: C_27  and  C_28
REMARK   14  A    between atoms: C_31  and  N_32
REMARK                            x       y       z     vdW  Elec       q    Type
REMARK                         _______ _______ _______ _____ _____    ______ ____
ROOT
ATOM      1  C   UNL     1       0.605   9.786  20.090  0.00  0.00    +0.000 A 
ATOM      2  C   UNL     1       0.167   9.008  21.165  0.00  0.00    +0.000 A 
ATOM      3  C   UNL     1       0.655   7.727  21.416  0.00  0.00    +0.000 A 
ATOM      4  C   UNL     1       1.557   7.095  20.554  0.00  0.00    +0.000 A 
ATOM      5  C   UNL     1       2.001   7.837  19.448  0.00  0.00    +0.000 A 
ATOM      6  C   UNL     1       1.527   9.153  19.229  0.00  0.00    +0.000 A 
ENDROOT
BRANCH   6   7
ATOM      7  N   UNL     1       2.025   9.844  18.054  0.00  0.00    +0.000 N 
ATOM      8  O   UNL     1       2.171   9.170  17.015  0.00  0.00    +0.000 OA
ATOM      9  O   UNL     1       2.223  11.062  18.146  0.00  0.00    +0.000 OA
ENDBRANCH   6   7
BRANCH   1  10
ATOM     10  N   UNL     1       0.049  11.066  19.855  0.00  0.00    +0.000 N 
ATOM     11  H   UNL     1       0.738  11.809  20.017  0.00  0.00    +0.000 HD
BRANCH  10  12
ATOM     12  C   UNL     1      -1.279  11.334  20.430  0.00  0.00    +0.000 C 
BRANCH  12  13
ATOM     13  C   UNL     1      -1.372  12.656  21.188  0.00  0.00    +0.000 C 
BRANCH  13  17
ATOM     14  C   UNL     1      -5.065  12.830  23.460  0.00  0.00    +0.000 A 
ATOM     15  C   UNL     1      -3.881  12.409  24.066  0.00  0.00    +0.000 A 
ATOM     16  C   UNL     1      -2.686  12.357  23.338  0.00  0.00    +0.000 A 
ATOM     17  C   UNL     1      -2.662  12.719  21.985  0.00  0.00    +0.000 A 
ATOM     18  C   UNL     1      -3.866  13.091  21.370  0.00  0.00    +0.000 A 
ATOM     19  C   UNL     1      -5.060  13.149  22.104  0.00  0.00    +0.000 A 
BRANCH  14  21
ATOM     20  C   UNL     1      -7.396  12.484  23.657  0.00  0.00    +0.000 C 
ATOM     21  O   UNL     1      -6.165  12.852  24.274  0.00  0.00    +0.000 OA
ENDBRANCH  14  21
ENDBRANCH  13  17
ENDBRANCH  12  13
ENDBRANCH  10  12
ENDBRANCH   1  10
BRANCH   4  22
ATOM     22  C   UNL     1       2.047   5.665  20.798  0.00  0.00    +0.000 C 
BRANCH  22  23
ATOM     23  N   UNL     1       3.286   5.424  20.075  0.00  0.00    +0.000 N 
ATOM     24  C   UNL     1       3.300   5.001  18.762  0.00  0.00    +0.000 C 
ATOM     25  O   UNL     1       2.289   4.715  18.131  0.00  0.00    +0.000 OA
ATOM     26  H   UNL     1       4.088   5.954  20.408  0.00  0.00    +0.000 HD
BRANCH  24  27
ATOM     27  C   UNL     1       4.642   4.975  18.114  0.00  0.00    +0.000 A 
ATOM     28  C   UNL     1       5.745   5.564  18.744  0.00  0.00    +0.000 A 
ATOM     29  C   UNL     1       6.981   5.630  18.092  0.00  0.00    +0.000 A 
ATOM     30  C   UNL     1       8.139   6.345  18.722  0.00  0.00    +0.000 C 
ATOM     31  C   UNL     1       7.109   5.072  16.813  0.00  0.00    +0.000 A 
ATOM     32  C   UNL     1       6.021   4.452  16.183  0.00  0.00    +0.000 A 
ATOM     33  C   UNL     1       6.159   3.903  14.792  0.00  0.00    +0.000 C 
ATOM     34  C   UNL     1       4.787   4.395  16.847  0.00  0.00    +0.000 A 
ENDBRANCH  24  27
ENDBRANCH  22  23
BRANCH  22  35
ATOM     35  C   UNL     1       1.017   4.543  20.526  0.00  0.00    +0.000 C 
BRANCH  35  36
ATOM     36  C   UNL     1       1.448   3.172  21.016  0.00  0.00    +0.000 C 
ATOM     37  N   UNL     1       1.441   2.201  20.055  0.00  0.00    +0.000 N 
ATOM     38  O   UNL     1       1.808   2.914  22.159  0.00  0.00    +0.000 OA
ATOM     39  H   UNL     1       1.095   2.348  19.117  0.00  0.00    +0.000 HD
ATOM     40  H   UNL     1       1.727   1.268  20.325  0.00  0.00    +0.000 HD
ENDBRANCH  35  36
ENDBRANCH  22  35
ENDBRANCH   4  22
TORSDOF 11
ENDMDL
MODEL 8
REMARK VINA RESULT:      -8.3      2.257      9.279
REMARK  Name = 
REMARK  14 active torsions:
REMARK  status: ('A' for Active; 'I' for Inactive)
REMARK    1  A    between atoms: C_1  and  O_2
REMARK    2  A    between atoms: O_2  and  C_3
REMARK    3  A    between atoms: C_6  and  C_7
REMARK    4  A    between atoms: C_7  and  C_8
REMARK    5  A    between atoms: C_8  and  N_9
REMARK    6  A    between atoms: N_9  and  C_10
REMARK    7  A    between atoms: C_13  and  C_14
REMARK    8  A    between atoms: C_14  and  C_15
REMARK    9  A    between atoms: C_14  and  N_19
REMARK   10  A    between atoms: C_15  and  C_16
REMARK   11  A    between atoms: C_20  and  C_22
REMARK   12  A    between atoms: C_24  and  C_25
REMARK   13  A    between atoms: C_27  and  C_28
REMARK   14  A    between atoms: C_31  and  N_32
REMARK                            x       y       z     vdW  Elec       q    Type
REMARK                         _______ _______ _______ _____ _____    ______ ____
ROOT
ATOM      1  C   UNL     1       3.313   6.086  18.365  0.00  0.00    +0.000 A 
ATOM      2  C   UNL     1       3.634   7.114  17.476  0.00  0.00    +0.000 A 
ATOM      3  C   UNL     1       3.101   8.398  17.583  0.00  0.00    +0.000 A 
ATOM      4  C   UNL     1       2.138   8.722  18.544  0.00  0.00    +0.000 A 
ATOM      5  C   UNL     1       1.771   7.706  19.440  0.00  0.00    +0.000 A 
ATOM      6  C   UNL     1       2.351   6.419  19.343  0.00  0.00    +0.000 A 
ENDROOT
BRANCH   6   7
ATOM      7  N   UNL     1       1.904   5.423  20.300  0.00  0.00    +0.000 N 
ATOM      8  O   UNL     1       1.926   5.739  21.506  0.00  0.00    +0.000 OA
ATOM      9  O   UNL     1       1.485   4.347  19.854  0.00  0.00    +0.000 OA
ENDBRANCH   6   7
BRANCH   1  10
ATOM     10  N   UNL     1       3.849   4.788  18.188  0.00  0.00    +0.000 N 
ATOM     11  H   UNL     1       4.579   4.588  18.880  0.00  0.00    +0.000 HD
BRANCH  10  12
ATOM     12  C   UNL     1       4.190   4.387  16.813  0.00  0.00    +0.000 C 
BRANCH  12  13
ATOM     13  C   UNL     1       5.675   4.108  16.599  0.00  0.00    +0.000 C 
BRANCH  13  17
ATOM     14  C   UNL     1       8.064   7.332  18.251  0.00  0.00    +0.000 A 
ATOM     15  C   UNL     1       7.839   6.168  18.988  0.00  0.00    +0.000 A 
ATOM     16  C   UNL     1       7.075   5.123  18.456  0.00  0.00    +0.000 A 
ATOM     17  C   UNL     1       6.513   5.233  17.177  0.00  0.00    +0.000 A 
ATOM     18  C   UNL     1       6.700   6.426  16.465  0.00  0.00    +0.000 A 
ATOM     19  C   UNL     1       7.473   7.468  16.998  0.00  0.00    +0.000 A 
BRANCH  14  21
ATOM     20  C   UNL     1       8.637   9.619  18.432  0.00  0.00    +0.000 C 
ATOM     21  O   UNL     1       8.836   8.278  18.869  0.00  0.00    +0.000 OA
ENDBRANCH  14  21
ENDBRANCH  13  17
ENDBRANCH  12  13
ENDBRANCH  10  12
ENDBRANCH   1  10
BRANCH   4  22
ATOM     22  C   UNL     1       1.510  10.116  18.624  0.00  0.00    +0.000 C 
BRANCH  22  23
ATOM     23  N   UNL     1       0.218  10.128  17.954  0.00  0.00    +0.000 N 
ATOM     24  C   UNL     1      -0.961  10.356  18.635  0.00  0.00    +0.000 C 
ATOM     25  O   UNL     1      -1.027  10.481  19.852  0.00  0.00    +0.000 OA
ATOM     26  H   UNL     1       0.247  10.373  16.968  0.00  0.00    +0.000 HD
BRANCH  24  27
ATOM     27  C   UNL     1      -2.171  10.514  17.781  0.00  0.00    +0.000 A 
ATOM     28  C   UNL     1      -2.147  10.120  16.438  0.00  0.00    +0.000 A 
ATOM     29  C   UNL     1      -3.248  10.361  15.609  0.00  0.00    +0.000 A 
ATOM     30  C   UNL     1      -3.191  10.029  14.148  0.00  0.00    +0.000 C 
ATOM     31  C   UNL     1      -4.387  10.974  16.147  0.00  0.00    +0.000 A 
ATOM     32  C   UNL     1      -4.437  11.346  17.498  0.00  0.00    +0.000 A 
ATOM     33  C   UNL     1      -5.643  12.048  18.051  0.00  0.00    +0.000 C 
ATOM     34  C   UNL     1      -3.324  11.100  18.318  0.00  0.00    +0.000 A 
ENDBRANCH  24  27
ENDBRANCH  22  23
BRANCH  22  35
ATOM     35  C   UNL     1       2.398  11.286  18.138  0.00  0.00    +0.000 C 
BRANCH  35  36
ATOM     36  C   UNL     1       1.923  12.655  18.592  0.00  0.00    +0.000 C 
ATOM     37  N   UNL     1       2.769  13.286  19.461  0.00  0.00    +0.000 N 
ATOM     38  O   UNL     1       0.893  13.203  18.220  0.00  0.00    +0.000 OA
ATOM     39  H   UNL     1       3.597  12.853  19.846  0.00  0.00    +0.000 HD
ATOM     40  H   UNL     1       2.506  14.206  19.792  0.00  0.00    +0.000 HD
ENDBRANCH  35  36
ENDBRANCH  22  35
ENDBRANCH   4  22
TORSDOF 11
ENDMDL
MODEL 9
REMARK VINA RESULT:      -8.2      2.313      3.457
REMARK  Name = 
REMARK  14 active torsions:
REMARK  status: ('A' for Active; 'I' for Inactive)
REMARK    1  A    between atoms: C_1  and  O_2
REMARK    2  A    between atoms: O_2  and  C_3
REMARK    3  A    between atoms: C_6  and  C_7
REMARK    4  A    between atoms: C_7  and  C_8
REMARK    5  A    between atoms: C_8  and  N_9
REMARK    6  A    between atoms: N_9  and  C_10
REMARK    7  A    between atoms: C_13  and  C_14
REMARK    8  A    between atoms: C_14  and  C_15
REMARK    9  A    between atoms: C_14  and  N_19
REMARK   10  A    between atoms: C_15  and  C_16
REMARK   11  A    between atoms: C_20  and  C_22
REMARK   12  A    between atoms: C_24  and  C_25
REMARK   13  A    between atoms: C_27  and  C_28
REMARK   14  A    between atoms: C_31  and  N_32
REMARK                            x       y       z     vdW  Elec       q    Type
REMARK                         _______ _______ _______ _____ _____    ______ ____
ROOT
ATOM      1  C   UNL     1       0.597   9.973  20.040  0.00  0.00    +0.000 A 
ATOM      2  C   UNL     1       1.260   9.299  19.012  0.00  0.00    +0.000 A 
ATOM      3  C   UNL     1       1.763   8.007  19.159  0.00  0.00    +0.000 A 
ATOM      4  C   UNL     1       1.714   7.327  20.380  0.00  0.00    +0.000 A 
ATOM      5  C   UNL     1       1.078   7.984  21.445  0.00  0.00    +0.000 A 
ATOM      6  C   UNL     1       0.536   9.280  21.269  0.00  0.00    +0.000 A 
ENDROOT
BRANCH   6   7
ATOM      7  N   UNL     1      -0.092   9.893  22.425  0.00  0.00    +0.000 N 
ATOM      8  O   UNL     1      -0.875   9.187  23.091  0.00  0.00    +0.000 OA
ATOM      9  O   UNL     1       0.229  11.055  22.703  0.00  0.00    +0.000 OA
ENDBRANCH   6   7
BRANCH   1  10
ATOM     10  N   UNL     1       0.140  11.299  19.854  0.00  0.00    +0.000 N 
ATOM     11  H   UNL     1       0.455  11.914  20.612  0.00  0.00    +0.000 HD
BRANCH  10  12
ATOM     12  C   UNL     1      -1.273  11.473  19.478  0.00  0.00    +0.000 C 
BRANCH  12  13
ATOM     13  C   UNL     1      -1.809  12.882  19.717  0.00  0.00    +0.000 C 
BRANCH  13  17
ATOM     14  C   UNL     1      -4.927  12.828  22.735  0.00  0.00    +0.000 A 
ATOM     15  C   UNL     1      -5.237  13.099  21.401  0.00  0.00    +0.000 A 
ATOM     16  C   UNL     1      -4.235  13.111  20.424  0.00  0.00    +0.000 A 
ATOM     17  C   UNL     1      -2.901  12.860  20.771  0.00  0.00    +0.000 A 
ATOM     18  C   UNL     1      -2.591  12.641  22.120  0.00  0.00    +0.000 A 
ATOM     19  C   UNL     1      -3.598  12.622  23.096  0.00  0.00    +0.000 A 
BRANCH  14  21
ATOM     20  C   UNL     1      -6.685  14.070  23.715  0.00  0.00    +0.000 C 
ATOM     21  O   UNL     1      -5.990  12.831  23.597  0.00  0.00    +0.000 OA
ENDBRANCH  14  21
ENDBRANCH  13  17
ENDBRANCH  12  13
ENDBRANCH  10  12
ENDBRANCH   1  10
BRANCH   4  22
ATOM     22  C   UNL     1       2.320   5.932  20.557  0.00  0.00    +0.000 C 
BRANCH  22  23
ATOM     23  N   UNL     1       3.491   5.778  19.707  0.00  0.00    +0.000 N 
ATOM     24  C   UNL     1       3.407   5.277  18.424  0.00  0.00    +0.000 C 
ATOM     25  O   UNL     1       2.371   4.845  17.931  0.00  0.00    +0.000 OA
ATOM     26  H   UNL     1       4.261   6.410  19.916  0.00  0.00    +0.000 HD
BRANCH  24  27
ATOM     27  C   UNL     1       4.663   5.351  17.626  0.00  0.00    +0.000 A 
ATOM     28  C   UNL     1       5.661   6.275  17.958  0.00  0.00    +0.000 A 
ATOM     29  C   UNL     1       6.794   6.416  17.150  0.00  0.00    +0.000 A 
ATOM     30  C   UNL     1       7.818   7.471  17.448  0.00  0.00    +0.000 C 
ATOM     31  C   UNL     1       6.933   5.600  16.020  0.00  0.00    +0.000 A 
ATOM     32  C   UNL     1       5.956   4.649  15.692  0.00  0.00    +0.000 A 
ATOM     33  C   UNL     1       6.092   3.815  14.450  0.00  0.00    +0.000 C 
ATOM     34  C   UNL     1       4.823   4.520  16.510  0.00  0.00    +0.000 A 
ENDBRANCH  24  27
ENDBRANCH  22  23
BRANCH  22  35
ATOM     35  C   UNL     1       1.345   4.745  20.380  0.00  0.00    +0.000 C 
BRANCH  35  36
ATOM     36  C   UNL     1       1.825   3.449  21.009  0.00  0.00    +0.000 C 
ATOM     37  N   UNL     1       1.918   2.400  20.138  0.00  0.00    +0.000 N 
ATOM     38  O   UNL     1       2.139   3.310  22.185  0.00  0.00    +0.000 OA
ATOM     39  H   UNL     1       1.613   2.445  19.176  0.00  0.00    +0.000 HD
ATOM     40  H   UNL     1       2.241   1.511  20.501  0.00  0.00    +0.000 HD
ENDBRANCH  35  36
ENDBRANCH  22  35
ENDBRANCH   4  22
TORSDOF 11
ENDMDL
