MODEL 1
REMARK VINA RESULT:      -8.9      0.000      0.000
REMARK  Name = 
REMARK  4 active torsions:
REMARK  status: ('A' for Active; 'I' for Inactive)
REMARK    1  A    between atoms: C_1  and  N_2
REMARK    2  A    between atoms: C_13  and  C_15
REMARK    3  A    between atoms: C_25  and  C_26
REMARK    4  A    between atoms: C_25  and  C_27
REMARK                            x       y       z     vdW  Elec       q    Type
REMARK                         _______ _______ _______ _____ _____    ______ ____
ROOT
ATOM      1  C   UNL     1      -3.379  12.560  23.467  0.00  0.00    +0.000 C 
ATOM      2  N   UNL     1      -2.253  12.644  22.542  0.00  0.00    +0.000 NA
ATOM      3  C   UNL     1      -2.705  12.636  21.124  0.00  0.00    +0.000 C 
ATOM      4  C   UNL     1      -1.558  12.503  20.074  0.00  0.00    +0.000 C 
ATOM      5  N   UNL     1      -0.585  11.468  20.465  0.00  0.00    +0.000 N 
ATOM      6  C   UNL     1       0.113  10.762  19.514  0.00  0.00    +0.000 C 
ATOM      7  O   UNL     1       0.036  11.107  18.328  0.00  0.00    +0.000 OA
ATOM      8  N   UNL     1       0.866   9.642  19.857  0.00  0.00    +0.000 N 
ATOM      9  C   UNL     1       1.636   9.042  18.692  0.00  0.00    +0.000 C 
ATOM     10  C   UNL     1       2.111   7.769  19.250  0.00  0.00    +0.000 A 
ATOM     11  C   UNL     1       2.925   6.640  19.037  0.00  0.00    +0.000 A 
ATOM     12  N   UNL     1       3.693   6.339  17.921  0.00  0.00    +0.000 N 
ATOM     13  C   UNL     1       4.477   5.192  17.850  0.00  0.00    +0.000 C 
ATOM     14  O   UNL     1       4.598   4.327  18.716  0.00  0.00    +0.000 OA
ATOM     15  N   UNL     1       2.878   5.838  20.113  0.00  0.00    +0.000 NA
ATOM     16  N   UNL     1       2.058   6.426  20.983  0.00  0.00    +0.000 N 
ATOM     17  C   UNL     1       1.584   7.581  20.489  0.00  0.00    +0.000 A 
ATOM     18  C   UNL     1       0.740   8.665  21.038  0.00  0.00    +0.000 C 
ATOM     19  C   UNL     1       1.407   9.047  22.375  0.00  0.00    +0.000 C 
ATOM     20  C   UNL     1      -0.687   8.144  21.210  0.00  0.00    +0.000 C 
ATOM     21  C   UNL     1      -0.120  11.726  21.809  0.00  0.00    +0.000 C 
ATOM     22  C   UNL     1      -1.293  11.549  22.778  0.00  0.00    +0.000 C 
ATOM     23  H   UNL     1       3.620   6.968  17.141  0.00  0.00    +0.000 HD
ATOM     24  H   UNL     1       1.920   5.990  21.886  0.00  0.00    +0.000 HD
ENDROOT
BRANCH  13  25
ATOM     25  C   UNL     1       5.242   4.956  16.599  0.00  0.00    +0.000 A 
ATOM     26  C   UNL     1       4.688   4.383  15.445  0.00  0.00    +0.000 A 
ATOM     27  C   UNL     1       5.458   4.279  14.285  0.00  0.00    +0.000 A 
ATOM     28  C   UNL     1       6.768   4.754  14.276  0.00  0.00    +0.000 A 
ATOM     29  F   UNL     1       7.488   4.668  13.149  0.00  0.00    +0.000 F 
ATOM     30  C   UNL     1       7.326   5.332  15.403  0.00  0.00    +0.000 A 
ATOM     31  C   UNL     1       6.571   5.426  16.571  0.00  0.00    +0.000 A 
ENDBRANCH  13  25
TORSDOF 1
ENDMDL
MODEL 2
REMARK VINA RESULT:      -8.6      2.908      4.109
REMARK  Name = 
REMARK  4 active torsions:
REMARK  status: ('A' for Active; 'I' for Inactive)
REMARK    1  A    between atoms: C_1  and  N_2
REMARK    2  A    between atoms: C_13  and  C_15
REMARK    3  A    between atoms: C_25  and  C_26
REMARK    4  A    between atoms: C_25  and  C_27
REMARK                            x       y       z     vdW  Elec       q    Type
REMARK                         _______ _______ _______ _____ _____    ______ ____
ROOT
ATOM      1  C   UNL     1      -2.582  16.817  22.386  0.00  0.00    +0.000 C 
ATOM      2  N   UNL     1      -2.792  15.374  22.321  0.00  0.00    +0.000 NA
ATOM      3  C   UNL     1      -2.259  14.686  23.527  0.00  0.00    +0.000 C 
ATOM      4  C   UNL     1      -2.247  13.128  23.439  0.00  0.00    +0.000 C 
ATOM      5  N   UNL     1      -1.742  12.665  22.134  0.00  0.00    +0.000 N 
ATOM      6  C   UNL     1      -1.087  11.461  22.019  0.00  0.00    +0.000 C 
ATOM      7  O   UNL     1      -1.059  10.693  22.989  0.00  0.00    +0.000 OA
ATOM      8  N   UNL     1      -0.418  11.114  20.848  0.00  0.00    +0.000 N 
ATOM      9  C   UNL     1       0.173   9.715  20.872  0.00  0.00    +0.000 C 
ATOM     10  C   UNL     1       1.017   9.708  19.670  0.00  0.00    +0.000 A 
ATOM     11  C   UNL     1       1.820   8.923  18.820  0.00  0.00    +0.000 A 
ATOM     12  N   UNL     1       2.128   7.575  18.941  0.00  0.00    +0.000 N 
ATOM     13  C   UNL     1       2.921   6.912  18.009  0.00  0.00    +0.000 C 
ATOM     14  O   UNL     1       3.434   7.393  17.001  0.00  0.00    +0.000 OA
ATOM     15  N   UNL     1       2.277   9.676  17.806  0.00  0.00    +0.000 NA
ATOM     16  N   UNL     1       1.791  10.901  18.002  0.00  0.00    +0.000 N 
ATOM     17  C   UNL     1       1.037  10.946  19.111  0.00  0.00    +0.000 A 
ATOM     18  C   UNL     1       0.196  11.988  19.741  0.00  0.00    +0.000 C 
ATOM     19  C   UNL     1      -0.726  12.488  18.611  0.00  0.00    +0.000 C 
ATOM     20  C   UNL     1       1.101  13.085  20.302  0.00  0.00    +0.000 C 
ATOM     21  C   UNL     1      -2.486  13.306  21.074  0.00  0.00    +0.000 C 
ATOM     22  C   UNL     1      -2.187  14.807  21.100  0.00  0.00    +0.000 C 
ATOM     23  H   UNL     1       1.790   7.108  19.763  0.00  0.00    +0.000 HD
ATOM     24  H   UNL     1       1.994  11.615  17.312  0.00  0.00    +0.000 HD
ENDROOT
BRANCH  13  25
ATOM     25  C   UNL     1       3.208   5.474  18.247  0.00  0.00    +0.000 A 
ATOM     26  C   UNL     1       4.279   5.012  19.026  0.00  0.00    +0.000 A 
ATOM     27  C   UNL     1       4.421   3.646  19.269  0.00  0.00    +0.000 A 
ATOM     28  C   UNL     1       3.493   2.747  18.746  0.00  0.00    +0.000 A 
ATOM     29  F   UNL     1       3.629   1.440  19.005  0.00  0.00    +0.000 F 
ATOM     30  C   UNL     1       2.424   3.186  17.984  0.00  0.00    +0.000 A 
ATOM     31  C   UNL     1       2.282   4.548  17.723  0.00  0.00    +0.000 A 
ENDBRANCH  13  25
TORSDOF 1
ENDMDL
MODEL 3
REMARK VINA RESULT:      -8.5      2.790      4.242
REMARK  Name = 
REMARK  4 active torsions:
REMARK  status: ('A' for Active; 'I' for Inactive)
REMARK    1  A    between atoms: C_1  and  N_2
REMARK    2  A    between atoms: C_13  and  C_15
REMARK    3  A    between atoms: C_25  and  C_26
REMARK    4  A    between atoms: C_25  and  C_27
REMARK                            x       y       z     vdW  Elec       q    Type
REMARK                         _______ _______ _______ _____ _____    ______ ____
ROOT
ATOM      1  C   UNL     1      -3.392  16.877  22.054  0.00  0.00    +0.000 C 
ATOM      2  N   UNL     1      -3.434  15.429  22.238  0.00  0.00    +0.000 NA
ATOM      3  C   UNL     1      -2.710  15.010  23.467  0.00  0.00    +0.000 C 
ATOM      4  C   UNL     1      -2.521  13.468  23.621  0.00  0.00    +0.000 C 
ATOM      5  N   UNL     1      -2.092  12.848  22.355  0.00  0.00    +0.000 N 
ATOM      6  C   UNL     1      -1.312  11.715  22.354  0.00  0.00    +0.000 C 
ATOM      7  O   UNL     1      -1.101  11.126  23.422  0.00  0.00    +0.000 OA
ATOM      8  N   UNL     1      -0.722  11.248  21.182  0.00  0.00    +0.000 N 
ATOM      9  C   UNL     1       0.031   9.940  21.356  0.00  0.00    +0.000 C 
ATOM     10  C   UNL     1       0.751   9.818  20.082  0.00  0.00    +0.000 A 
ATOM     11  C   UNL     1       1.557   8.989  19.277  0.00  0.00    +0.000 A 
ATOM     12  N   UNL     1       2.033   7.719  19.570  0.00  0.00    +0.000 N 
ATOM     13  C   UNL     1       2.806   6.994  18.668  0.00  0.00    +0.000 C 
ATOM     14  O   UNL     1       3.159   7.350  17.546  0.00  0.00    +0.000 OA
ATOM     15  N   UNL     1       1.822   9.605  18.114  0.00  0.00    +0.000 NA
ATOM     16  N   UNL     1       1.214  10.789  18.171  0.00  0.00    +0.000 N 
ATOM     17  C   UNL     1       0.570  10.942  19.339  0.00  0.00    +0.000 A 
ATOM     18  C   UNL     1      -0.326  11.983  19.891  0.00  0.00    +0.000 C 
ATOM     19  C   UNL     1      -1.404  12.191  18.809  0.00  0.00    +0.000 C 
ATOM     20  C   UNL     1       0.492  13.245  20.169  0.00  0.00    +0.000 C 
ATOM     21  C   UNL     1      -3.005  13.224  21.299  0.00  0.00    +0.000 C 
ATOM     22  C   UNL     1      -2.886  14.732  21.059  0.00  0.00    +0.000 C 
ATOM     23  H   UNL     1       1.833   7.363  20.488  0.00  0.00    +0.000 HD
ATOM     24  H   UNL     1       1.263  11.395  17.361  0.00  0.00    +0.000 HD
ENDROOT
BRANCH  13  25
ATOM     25  C   UNL     1       3.283   5.653  19.093  0.00  0.00    +0.000 A 
ATOM     26  C   UNL     1       2.527   4.770  19.878  0.00  0.00    +0.000 A 
ATOM     27  C   UNL     1       3.018   3.494  20.156  0.00  0.00    +0.000 A 
ATOM     28  C   UNL     1       4.252   3.098  19.644  0.00  0.00    +0.000 A 
ATOM     29  F   UNL     1       4.703   1.863  19.900  0.00  0.00    +0.000 F 
ATOM     30  C   UNL     1       5.007   3.952  18.858  0.00  0.00    +0.000 A 
ATOM     31  C   UNL     1       4.532   5.234  18.587  0.00  0.00    +0.000 A 
ENDBRANCH  13  25
TORSDOF 1
ENDMDL
MODEL 4
REMARK VINA RESULT:      -8.2      3.327      4.635
REMARK  Name = 
REMARK  4 active torsions:
REMARK  status: ('A' for Active; 'I' for Inactive)
REMARK    1  A    between atoms: C_1  and  N_2
REMARK    2  A    between atoms: C_13  and  C_15
REMARK    3  A    between atoms: C_25  and  C_26
REMARK    4  A    between atoms: C_25  and  C_27
REMARK                            x       y       z     vdW  Elec       q    Type
REMARK                         _______ _______ _______ _____ _____    ______ ____
ROOT
ATOM      1  C   UNL     1      -1.272  17.929  21.983  0.00  0.00    +0.000 C 
ATOM      2  N   UNL     1      -1.684  16.531  22.051  0.00  0.00    +0.000 NA
ATOM      3  C   UNL     1      -1.177  15.867  23.282  0.00  0.00    +0.000 C 
ATOM      4  C   UNL     1      -1.387  14.321  23.325  0.00  0.00    +0.000 C 
ATOM      5  N   UNL     1      -1.034  13.692  22.039  0.00  0.00    +0.000 N 
ATOM      6  C   UNL     1      -0.561  12.402  21.993  0.00  0.00    +0.000 C 
ATOM      7  O   UNL     1      -0.580  11.714  23.022  0.00  0.00    +0.000 OA
ATOM      8  N   UNL     1      -0.021  11.874  20.823  0.00  0.00    +0.000 N 
ATOM      9  C   UNL     1       0.370  10.411  20.935  0.00  0.00    +0.000 C 
ATOM     10  C   UNL     1       1.128  10.190  19.697  0.00  0.00    +0.000 A 
ATOM     11  C   UNL     1       1.759   9.236  18.875  0.00  0.00    +0.000 A 
ATOM     12  N   UNL     1       1.884   7.871  19.094  0.00  0.00    +0.000 N 
ATOM     13  C   UNL     1       2.517   7.032  18.182  0.00  0.00    +0.000 C 
ATOM     14  O   UNL     1       3.028   7.356  17.112  0.00  0.00    +0.000 OA
ATOM     15  N   UNL     1       2.252   9.836  17.780  0.00  0.00    +0.000 NA
ATOM     16  N   UNL     1       1.954  11.129  17.896  0.00  0.00    +0.000 N 
ATOM     17  C   UNL     1       1.284  11.367  19.035  0.00  0.00    +0.000 A 
ATOM     18  C   UNL     1       0.637  12.563  19.616  0.00  0.00    +0.000 C 
ATOM     19  C   UNL     1      -0.275  13.103  18.496  0.00  0.00    +0.000 C 
ATOM     20  C   UNL     1       1.719  13.559  20.036  0.00  0.00    +0.000 C 
ATOM     21  C   UNL     1      -1.747  14.350  20.968  0.00  0.00    +0.000 C 
ATOM     22  C   UNL     1      -1.242  15.791  20.853  0.00  0.00    +0.000 C 
ATOM     23  H   UNL     1       1.537   7.521  19.969  0.00  0.00    +0.000 HD
ATOM     24  H   UNL     1       2.210  11.752  17.139  0.00  0.00    +0.000 HD
ENDROOT
BRANCH  13  25
ATOM     25  C   UNL     1       2.616   5.590  18.526  0.00  0.00    +0.000 A 
ATOM     26  C   UNL     1       3.325   5.100  19.632  0.00  0.00    +0.000 A 
ATOM     27  C   UNL     1       3.292   3.738  19.930  0.00  0.00    +0.000 A 
ATOM     28  C   UNL     1       2.545   2.871  19.134  0.00  0.00    +0.000 A 
ATOM     29  F   UNL     1       2.502   1.569  19.444  0.00  0.00    +0.000 F 
ATOM     30  C   UNL     1       1.829   3.339  18.045  0.00  0.00    +0.000 A 
ATOM     31  C   UNL     1       1.869   4.696  17.731  0.00  0.00    +0.000 A 
ENDBRANCH  13  25
TORSDOF 1
ENDMDL
MODEL 5
REMARK VINA RESULT:      -8.0      0.936      1.111
REMARK  Name = 
REMARK  4 active torsions:
REMARK  status: ('A' for Active; 'I' for Inactive)
REMARK    1  A    between atoms: C_1  and  N_2
REMARK    2  A    between atoms: C_13  and  C_15
REMARK    3  A    between atoms: C_25  and  C_26
REMARK    4  A    between atoms: C_25  and  C_27
REMARK                            x       y       z     vdW  Elec       q    Type
REMARK                         _______ _______ _______ _____ _____    ______ ____
ROOT
ATOM      1  C   UNL     1      -3.066  13.832  23.304  0.00  0.00    +0.000 C 
ATOM      2  N   UNL     1      -1.931  13.760  22.388  0.00  0.00    +0.000 NA
ATOM      3  C   UNL     1      -2.371  13.764  20.967  0.00  0.00    +0.000 C 
ATOM      4  C   UNL     1      -1.240  13.471  19.932  0.00  0.00    +0.000 C 
ATOM      5  N   UNL     1      -0.396  12.342  20.361  0.00  0.00    +0.000 N 
ATOM      6  C   UNL     1       0.222  11.534  19.436  0.00  0.00    +0.000 C 
ATOM      7  O   UNL     1       0.194  11.852  18.240  0.00  0.00    +0.000 OA
ATOM      8  N   UNL     1       0.839  10.344  19.817  0.00  0.00    +0.000 N 
ATOM      9  C   UNL     1       1.542   9.627  18.677  0.00  0.00    +0.000 C 
ATOM     10  C   UNL     1       1.862   8.324  19.273  0.00  0.00    +0.000 A 
ATOM     11  C   UNL     1       2.543   7.103  19.099  0.00  0.00    +0.000 A 
ATOM     12  N   UNL     1       3.279   6.685  17.999  0.00  0.00    +0.000 N 
ATOM     13  C   UNL     1       3.925   5.453  17.967  0.00  0.00    +0.000 C 
ATOM     14  O   UNL     1       3.940   4.605  18.857  0.00  0.00    +0.000 OA
ATOM     15  N   UNL     1       2.396   6.343  20.196  0.00  0.00    +0.000 NA
ATOM     16  N   UNL     1       1.643   7.046  21.041  0.00  0.00    +0.000 N 
ATOM     17  C   UNL     1       1.309   8.233  20.511  0.00  0.00    +0.000 A 
ATOM     18  C   UNL     1       0.592   9.423  21.022  0.00  0.00    +0.000 C 
ATOM     19  C   UNL     1       1.290   9.762  22.355  0.00  0.00    +0.000 C 
ATOM     20  C   UNL     1      -0.887   9.074  21.194  0.00  0.00    +0.000 C 
ATOM     21  C   UNL     1       0.086  12.582  21.702  0.00  0.00    +0.000 C 
ATOM     22  C   UNL     1      -1.105  12.569  22.664  0.00  0.00    +0.000 C 
ATOM     23  H   UNL     1       3.283   7.296  17.202  0.00  0.00    +0.000 HD
ATOM     24  H   UNL     1       1.450   6.654  21.954  0.00  0.00    +0.000 HD
ENDROOT
BRANCH  13  25
ATOM     25  C   UNL     1       4.666   5.096  16.731  0.00  0.00    +0.000 A 
ATOM     26  C   UNL     1       5.194   6.041  15.839  0.00  0.00    +0.000 A 
ATOM     27  C   UNL     1       5.952   5.617  14.747  0.00  0.00    +0.000 A 
ATOM     28  C   UNL     1       6.192   4.258  14.554  0.00  0.00    +0.000 A 
ATOM     29  F   UNL     1       6.940   3.865  13.515  0.00  0.00    +0.000 F 
ATOM     30  C   UNL     1       5.688   3.312  15.430  0.00  0.00    +0.000 A 
ATOM     31  C   UNL     1       4.916   3.725  16.515  0.00  0.00    +0.000 A 
ENDBRANCH  13  25
TORSDOF 1
ENDMDL
MODEL 6
REMARK VINA RESULT:      -7.9      2.625      4.549
REMARK  Name = 
REMARK  4 active torsions:
REMARK  status: ('A' for Active; 'I' for Inactive)
REMARK    1  A    between atoms: C_1  and  N_2
REMARK    2  A    between atoms: C_13  and  C_15
REMARK    3  A    between atoms: C_25  and  C_26
REMARK    4  A    between atoms: C_25  and  C_27
REMARK                            x       y       z     vdW  Elec       q    Type
REMARK                         _______ _______ _______ _____ _____    ______ ____
ROOT
ATOM      1  C   UNL     1      -5.040  16.542  22.964  0.00  0.00    +0.000 C 
ATOM      2  N   UNL     1      -4.752  15.119  23.113  0.00  0.00    +0.000 NA
ATOM      3  C   UNL     1      -3.745  14.871  24.180  0.00  0.00    +0.000 C 
ATOM      4  C   UNL     1      -3.221  13.402  24.255  0.00  0.00    +0.000 C 
ATOM      5  N   UNL     1      -2.912  12.870  22.916  0.00  0.00    +0.000 N 
ATOM      6  C   UNL     1      -1.932  11.922  22.744  0.00  0.00    +0.000 C 
ATOM      7  O   UNL     1      -1.413  11.400  23.739  0.00  0.00    +0.000 OA
ATOM      8  N   UNL     1      -1.483  11.573  21.472  0.00  0.00    +0.000 N 
ATOM      9  C   UNL     1      -0.460  10.449  21.471  0.00  0.00    +0.000 C 
ATOM     10  C   UNL     1       0.025  10.464  20.085  0.00  0.00    +0.000 A 
ATOM     11  C   UNL     1       0.822   9.809  19.126  0.00  0.00    +0.000 A 
ATOM     12  N   UNL     1       1.593   8.667  19.293  0.00  0.00    +0.000 N 
ATOM     13  C   UNL     1       2.320   8.107  18.248  0.00  0.00    +0.000 C 
ATOM     14  O   UNL     1       2.382   8.516  17.090  0.00  0.00    +0.000 OA
ATOM     15  N   UNL     1       0.739  10.454  17.951  0.00  0.00    +0.000 NA
ATOM     16  N   UNL     1      -0.077  11.489  18.149  0.00  0.00    +0.000 N 
ATOM     17  C   UNL     1      -0.515  11.518  19.418  0.00  0.00    +0.000 A 
ATOM     18  C   UNL     1      -1.487  12.359  20.151  0.00  0.00    +0.000 C 
ATOM     19  C   UNL     1      -2.765  12.329  19.288  0.00  0.00    +0.000 C 
ATOM     20  C   UNL     1      -0.907  13.765  20.310  0.00  0.00    +0.000 C 
ATOM     21  C   UNL     1      -4.060  13.038  22.054  0.00  0.00    +0.000 C 
ATOM     22  C   UNL     1      -4.297  14.536  21.836  0.00  0.00    +0.000 C 
ATOM     23  H   UNL     1       1.641   8.289  20.223  0.00  0.00    +0.000 HD
ATOM     24  H   UNL     1      -0.301  12.083  17.360  0.00  0.00    +0.000 HD
ENDROOT
BRANCH  13  25
ATOM     25  C   UNL     1       3.130   6.897  18.542  0.00  0.00    +0.000 A 
ATOM     26  C   UNL     1       2.809   5.972  19.546  0.00  0.00    +0.000 A 
ATOM     27  C   UNL     1       3.578   4.817  19.696  0.00  0.00    +0.000 A 
ATOM     28  C   UNL     1       4.653   4.582  18.840  0.00  0.00    +0.000 A 
ATOM     29  F   UNL     1       5.369   3.459  18.980  0.00  0.00    +0.000 F 
ATOM     30  C   UNL     1       4.977   5.480  17.837  0.00  0.00    +0.000 A 
ATOM     31  C   UNL     1       4.224   6.644  17.690  0.00  0.00    +0.000 A 
ENDBRANCH  13  25
TORSDOF 1
ENDMDL
MODEL 7
REMARK VINA RESULT:      -7.6      3.485      4.902
REMARK  Name = 
REMARK  4 active torsions:
REMARK  status: ('A' for Active; 'I' for Inactive)
REMARK    1  A    between atoms: C_1  and  N_2
REMARK    2  A    between atoms: C_13  and  C_15
REMARK    3  A    between atoms: C_25  and  C_26
REMARK    4  A    between atoms: C_25  and  C_27
REMARK                            x       y       z     vdW  Elec       q    Type
REMARK                         _______ _______ _______ _____ _____    ______ ____
ROOT
ATOM      1  C   UNL     1      -1.271  17.769  21.084  0.00  0.00    +0.000 C 
ATOM      2  N   UNL     1      -1.661  16.409  21.443  0.00  0.00    +0.000 NA
ATOM      3  C   UNL     1      -1.067  15.990  22.741  0.00  0.00    +0.000 C 
ATOM      4  C   UNL     1      -1.256  14.480  23.089  0.00  0.00    +0.000 C 
ATOM      5  N   UNL     1      -0.980  13.619  21.925  0.00  0.00    +0.000 N 
ATOM      6  C   UNL     1      -0.496  12.343  22.093  0.00  0.00    +0.000 C 
ATOM      7  O   UNL     1      -0.441  11.862  23.232  0.00  0.00    +0.000 OA
ATOM      8  N   UNL     1      -0.029  11.602  21.010  0.00  0.00    +0.000 N 
ATOM      9  C   UNL     1       0.386  10.186  21.371  0.00  0.00    +0.000 C 
ATOM     10  C   UNL     1       1.065   9.734  20.149  0.00  0.00    +0.000 A 
ATOM     11  C   UNL     1       1.652   8.641  19.483  0.00  0.00    +0.000 A 
ATOM     12  N   UNL     1       1.806   7.342  19.947  0.00  0.00    +0.000 N 
ATOM     13  C   UNL     1       2.389   6.345  19.171  0.00  0.00    +0.000 C 
ATOM     14  O   UNL     1       2.824   6.460  18.027  0.00  0.00    +0.000 OA
ATOM     15  N   UNL     1       2.065   9.022  18.264  0.00  0.00    +0.000 NA
ATOM     16  N   UNL     1       1.761  10.314  18.153  0.00  0.00    +0.000 N 
ATOM     17  C   UNL     1       1.164  10.764  19.268  0.00  0.00    +0.000 A 
ATOM     18  C   UNL     1       0.542  12.050  19.655  0.00  0.00    +0.000 C 
ATOM     19  C   UNL     1      -0.448  12.369  18.515  0.00  0.00    +0.000 C 
ATOM     20  C   UNL     1       1.638  13.106  19.805  0.00  0.00    +0.000 C 
ATOM     21  C   UNL     1      -1.769  14.063  20.799  0.00  0.00    +0.000 C 
ATOM     22  C   UNL     1      -1.289  15.455  20.380  0.00  0.00    +0.000 C 
ATOM     23  H   UNL     1       1.521   7.165  20.894  0.00  0.00    +0.000 HD
ATOM     24  H   UNL     1       1.959  10.782  17.276  0.00  0.00    +0.000 HD
ENDROOT
BRANCH  13  25
ATOM     25  C   UNL     1       2.525   4.994  19.774  0.00  0.00    +0.000 A 
ATOM     26  C   UNL     1       3.652   4.177  19.604  0.00  0.00    +0.000 A 
ATOM     27  C   UNL     1       3.733   2.958  20.279  0.00  0.00    +0.000 A 
ATOM     28  C   UNL     1       2.700   2.564  21.127  0.00  0.00    +0.000 A 
ATOM     29  F   UNL     1       2.800   1.402  21.786  0.00  0.00    +0.000 F 
ATOM     30  C   UNL     1       1.585   3.363  21.315  0.00  0.00    +0.000 A 
ATOM     31  C   UNL     1       1.488   4.575  20.633  0.00  0.00    +0.000 A 
ENDBRANCH  13  25
TORSDOF 1
ENDMDL
MODEL 8
REMARK VINA RESULT:      -7.6      3.432      5.048
REMARK  Name = 
REMARK  4 active torsions:
REMARK  status: ('A' for Active; 'I' for Inactive)
REMARK    1  A    between atoms: C_1  and  N_2
REMARK    2  A    between atoms: C_13  and  C_15
REMARK    3  A    between atoms: C_25  and  C_26
REMARK    4  A    between atoms: C_25  and  C_27
REMARK                            x       y       z     vdW  Elec       q    Type
REMARK                         _______ _______ _______ _____ _____    ______ ____
ROOT
ATOM      1  C   UNL     1      -1.140  18.487  20.681  0.00  0.00    +0.000 C 
ATOM      2  N   UNL     1      -1.522  17.140  21.094  0.00  0.00    +0.000 NA
ATOM      3  C   UNL     1      -0.880  16.756  22.380  0.00  0.00    +0.000 C 
ATOM      4  C   UNL     1      -1.062  15.258  22.779  0.00  0.00    +0.000 C 
ATOM      5  N   UNL     1      -0.835  14.362  21.631  0.00  0.00    +0.000 N 
ATOM      6  C   UNL     1      -0.350  13.089  21.817  0.00  0.00    +0.000 C 
ATOM      7  O   UNL     1      -0.252  12.641  22.967  0.00  0.00    +0.000 OA
ATOM      8  N   UNL     1       0.073  12.315  20.739  0.00  0.00    +0.000 N 
ATOM      9  C   UNL     1       0.495  10.907  21.125  0.00  0.00    +0.000 C 
ATOM     10  C   UNL     1       1.124  10.417  19.892  0.00  0.00    +0.000 A 
ATOM     11  C   UNL     1       1.680   9.302  19.236  0.00  0.00    +0.000 A 
ATOM     12  N   UNL     1       1.847   8.016  19.731  0.00  0.00    +0.000 N 
ATOM     13  C   UNL     1       2.395   6.994  18.962  0.00  0.00    +0.000 C 
ATOM     14  O   UNL     1       2.786   7.073  17.800  0.00  0.00    +0.000 OA
ATOM     15  N   UNL     1       2.048   9.645  17.991  0.00  0.00    +0.000 NA
ATOM     16  N   UNL     1       1.744  10.935  17.854  0.00  0.00    +0.000 N 
ATOM     17  C   UNL     1       1.193  11.420  18.977  0.00  0.00    +0.000 A 
ATOM     18  C   UNL     1       0.592  12.720  19.350  0.00  0.00    +0.000 C 
ATOM     19  C   UNL     1      -0.440  13.010  18.241  0.00  0.00    +0.000 C 
ATOM     20  C   UNL     1       1.697  13.774  19.428  0.00  0.00    +0.000 C 
ATOM     21  C   UNL     1      -1.665  14.777  20.524  0.00  0.00    +0.000 C 
ATOM     22  C   UNL     1      -1.196  16.155  20.045  0.00  0.00    +0.000 C 
ATOM     23  H   UNL     1       1.598   7.868  20.693  0.00  0.00    +0.000 HD
ATOM     24  H   UNL     1       1.911  11.376  16.957  0.00  0.00    +0.000 HD
ENDROOT
BRANCH  13  25
ATOM     25  C   UNL     1       2.550   5.660  19.599  0.00  0.00    +0.000 A 
ATOM     26  C   UNL     1       1.910   5.288  20.790  0.00  0.00    +0.000 A 
ATOM     27  C   UNL     1       2.043   3.985  21.270  0.00  0.00    +0.000 A 
ATOM     28  C   UNL     1       2.801   3.056  20.559  0.00  0.00    +0.000 A 
ATOM     29  F   UNL     1       2.902   1.802  21.019  0.00  0.00    +0.000 F 
ATOM     30  C   UNL     1       3.430   3.403  19.376  0.00  0.00    +0.000 A 
ATOM     31  C   UNL     1       3.316   4.707  18.896  0.00  0.00    +0.000 A 
ENDBRANCH  13  25
TORSDOF 1
ENDMDL
MODEL 9
REMARK VINA RESULT:      -7.3      8.013      9.045
REMARK  Name = 
REMARK  4 active torsions:
REMARK  status: ('A' for Active; 'I' for Inactive)
REMARK    1  A    between atoms: C_1  and  N_2
REMARK    2  A    between atoms: C_13  and  C_15
REMARK    3  A    between atoms: C_25  and  C_26
REMARK    4  A    between atoms: C_25  and  C_27
REMARK                            x       y       z     vdW  Elec       q    Type
REMARK                         _______ _______ _______ _____ _____    ______ ____
ROOT
ATOM      1  C   UNL     1      11.424  18.630  20.968  0.00  0.00    +0.000 C 
ATOM      2  N   UNL     1      11.189  17.834  19.768  0.00  0.00    +0.000 NA
ATOM      3  C   UNL     1       9.810  18.020  19.244  0.00  0.00    +0.000 C 
ATOM      4  C   UNL     1       9.409  17.042  18.095  0.00  0.00    +0.000 C 
ATOM      5  N   UNL     1       9.823  15.660  18.394  0.00  0.00    +0.000 N 
ATOM      6  C   UNL     1       9.111  14.590  17.904  0.00  0.00    +0.000 C 
ATOM      7  O   UNL     1       8.209  14.790  17.081  0.00  0.00    +0.000 OA
ATOM      8  N   UNL     1       9.359  13.295  18.352  0.00  0.00    +0.000 N 
ATOM      9  C   UNL     1       8.538  12.234  17.640  0.00  0.00    +0.000 C 
ATOM     10  C   UNL     1       8.786  11.040  18.457  0.00  0.00    +0.000 A 
ATOM     11  C   UNL     1       8.598   9.648  18.569  0.00  0.00    +0.000 A 
ATOM     12  N   UNL     1       7.917   8.807  17.700  0.00  0.00    +0.000 N 
ATOM     13  C   UNL     1       7.825   7.436  17.920  0.00  0.00    +0.000 C 
ATOM     14  O   UNL     1       8.307   6.805  18.858  0.00  0.00    +0.000 OA
ATOM     15  N   UNL     1       9.200   9.197  19.681  0.00  0.00    +0.000 NA
ATOM     16  N   UNL     1       9.750  10.260  20.266  0.00  0.00    +0.000 N 
ATOM     17  C   UNL     1       9.514  11.374  19.555  0.00  0.00    +0.000 A 
ATOM     18  C   UNL     1       9.954  12.782  19.674  0.00  0.00    +0.000 C 
ATOM     19  C   UNL     1      11.489  12.708  19.803  0.00  0.00    +0.000 C 
ATOM     20  C   UNL     1       9.282  13.411  20.896  0.00  0.00    +0.000 C 
ATOM     21  C   UNL     1      11.231  15.638  18.716  0.00  0.00    +0.000 C 
ATOM     22  C   UNL     1      11.450  16.404  20.024  0.00  0.00    +0.000 C 
ATOM     23  H   UNL     1       7.448   9.243  16.926  0.00  0.00    +0.000 HD
ATOM     24  H   UNL     1      10.291  10.119  21.111  0.00  0.00    +0.000 HD
ENDROOT
BRANCH  13  25
ATOM     25  C   UNL     1       7.052   6.632  16.939  0.00  0.00    +0.000 A 
ATOM     26  C   UNL     1       7.561   5.496  16.291  0.00  0.00    +0.000 A 
ATOM     27  C   UNL     1       6.735   4.750  15.450  0.00  0.00    +0.000 A 
ATOM     28  C   UNL     1       5.406   5.128  15.266  0.00  0.00    +0.000 A 
ATOM     29  F   UNL     1       4.618   4.390  14.474  0.00  0.00    +0.000 F 
ATOM     30  C   UNL     1       4.885   6.240  15.906  0.00  0.00    +0.000 A 
ATOM     31  C   UNL     1       5.707   7.001  16.736  0.00  0.00    +0.000 A 
ENDBRANCH  13  25
TORSDOF 1
ENDMDL
