MODEL 1
REMARK VINA RESULT:      -6.5      0.000      0.000
REMARK  Name = 
REMARK  4 active torsions:
REMARK  status: ('A' for Active; 'I' for Inactive)
REMARK    1  A    between atoms: C_1  and  C_2
REMARK    2  A    between atoms: C_2  and  O_3
REMARK    3  A    between atoms: O_3  and  C_4
REMARK    4  A    between atoms: C_7  and  N_8
REMARK                            x       y       z     vdW  Elec       q    Type
REMARK                         _______ _______ _______ _____ _____    ______ ____
ROOT
ATOM      1  C   UNL     1       6.868   5.339  16.101  0.00  0.00    +0.000 A 
ATOM      2  C   UNL     1       5.604   5.924  16.054  0.00  0.00    +0.000 A 
ATOM      3  C   UNL     1       4.768   5.900  17.175  0.00  0.00    +0.000 A 
ATOM      4  C   UNL     1       5.169   5.265  18.359  0.00  0.00    +0.000 A 
ATOM      5  C   UNL     1       6.446   4.694  18.389  0.00  0.00    +0.000 A 
ATOM      6  C   UNL     1       7.281   4.710  17.269  0.00  0.00    +0.000 A 
ENDROOT
BRANCH   4   7
ATOM      7  N   UNL     1       4.271   5.205  19.440  0.00  0.00    +0.000 N 
ATOM      8  C   UNL     1       3.093   4.518  19.491  0.00  0.00    +0.000 C 
ATOM      9  N   UNL     1       2.647   3.597  18.707  0.00  0.00    +0.000 NA
ATOM     10  C   UNL     1       1.392   3.152  19.033  0.00  0.00    +0.000 C 
ATOM     11  O   UNL     1       0.793   2.293  18.392  0.00  0.00    +0.000 OA
ATOM     12  C   UNL     1       0.791   3.803  20.252  0.00  0.00    +0.000 C 
ATOM     13  S   UNL     1       2.035   4.993  20.804  0.00  0.00    +0.000 S 
ATOM     14  H   UNL     1       4.371   5.941  20.125  0.00  0.00    +0.000 HD
ENDBRANCH   4   7
BRANCH   1  15
ATOM     15  O   UNL     1       7.605   5.433  14.955  0.00  0.00    +0.000 OA
BRANCH  15  17
ATOM     16  C   UNL     1       7.833   5.262  12.597  0.00  0.00    +0.000 C 
ATOM     17  C   UNL     1       7.047   4.793  13.806  0.00  0.00    +0.000 C 
ENDBRANCH  15  17
ENDBRANCH   1  15
TORSDOF 3
ENDMDL
MODEL 2
REMARK VINA RESULT:      -6.5      0.208      1.217
REMARK  Name = 
REMARK  4 active torsions:
REMARK  status: ('A' for Active; 'I' for Inactive)
REMARK    1  A    between atoms: C_1  and  C_2
REMARK    2  A    between atoms: C_2  and  O_3
REMARK    3  A    between atoms: O_3  and  C_4
REMARK    4  A    between atoms: C_7  and  N_8
REMARK                            x       y       z     vdW  Elec       q    Type
REMARK                         _______ _______ _______ _____ _____    ______ ____
ROOT
ATOM      1  C   UNL     1       6.799   5.385  15.962  0.00  0.00    +0.000 A 
ATOM      2  C   UNL     1       7.193   4.751  17.138  0.00  0.00    +0.000 A 
ATOM      3  C   UNL     1       6.321   4.670  18.229  0.00  0.00    +0.000 A 
ATOM      4  C   UNL     1       5.044   5.247  18.174  0.00  0.00    +0.000 A 
ATOM      5  C   UNL     1       4.663   5.868  16.979  0.00  0.00    +0.000 A 
ATOM      6  C   UNL     1       5.534   5.957  15.891  0.00  0.00    +0.000 A 
ENDROOT
BRANCH   4   7
ATOM      7  N   UNL     1       4.224   5.202  19.316  0.00  0.00    +0.000 N 
ATOM      8  C   UNL     1       3.081   4.475  19.478  0.00  0.00    +0.000 C 
ATOM      9  N   UNL     1       2.621   3.502  18.767  0.00  0.00    +0.000 NA
ATOM     10  C   UNL     1       1.410   3.026  19.198  0.00  0.00    +0.000 C 
ATOM     11  O   UNL     1       0.805   2.116  18.638  0.00  0.00    +0.000 OA
ATOM     12  C   UNL     1       0.866   3.709  20.426  0.00  0.00    +0.000 C 
ATOM     13  S   UNL     1       2.095   4.969  20.838  0.00  0.00    +0.000 S 
ATOM     14  H   UNL     1       4.339   5.973  19.960  0.00  0.00    +0.000 HD
ENDBRANCH   4   7
BRANCH   1  15
ATOM     15  O   UNL     1       7.723   5.393  14.957  0.00  0.00    +0.000 OA
BRANCH  15  17
ATOM     16  C   UNL     1       8.094   5.561  12.617  0.00  0.00    +0.000 C 
ATOM     17  C   UNL     1       7.275   4.885  13.699  0.00  0.00    +0.000 C 
ENDBRANCH  15  17
ENDBRANCH   1  15
TORSDOF 3
ENDMDL
MODEL 3
REMARK VINA RESULT:      -6.3      2.833      3.560
REMARK  Name = 
REMARK  4 active torsions:
REMARK  status: ('A' for Active; 'I' for Inactive)
REMARK    1  A    between atoms: C_1  and  C_2
REMARK    2  A    between atoms: C_2  and  O_3
REMARK    3  A    between atoms: O_3  and  C_4
REMARK    4  A    between atoms: C_7  and  N_8
REMARK                            x       y       z     vdW  Elec       q    Type
REMARK                         _______ _______ _______ _____ _____    ______ ____
ROOT
ATOM      1  C   UNL     1       7.629   6.930  18.228  0.00  0.00    +0.000 A 
ATOM      2  C   UNL     1       7.607   5.839  19.094  0.00  0.00    +0.000 A 
ATOM      3  C   UNL     1       6.750   4.760  18.855  0.00  0.00    +0.000 A 
ATOM      4  C   UNL     1       5.877   4.762  17.759  0.00  0.00    +0.000 A 
ATOM      5  C   UNL     1       5.923   5.861  16.894  0.00  0.00    +0.000 A 
ATOM      6  C   UNL     1       6.773   6.944  17.133  0.00  0.00    +0.000 A 
ENDROOT
BRANCH   4   7
ATOM      7  N   UNL     1       4.983   3.688  17.594  0.00  0.00    +0.000 N 
ATOM      8  C   UNL     1       3.797   3.501  18.241  0.00  0.00    +0.000 C 
ATOM      9  N   UNL     1       3.104   4.333  18.940  0.00  0.00    +0.000 NA
ATOM     10  C   UNL     1       1.971   3.789  19.487  0.00  0.00    +0.000 C 
ATOM     11  O   UNL     1       1.195   4.420  20.200  0.00  0.00    +0.000 OA
ATOM     12  C   UNL     1       1.742   2.339  19.145  0.00  0.00    +0.000 C 
ATOM     13  S   UNL     1       3.152   1.877  18.114  0.00  0.00    +0.000 S 
ATOM     14  H   UNL     1       5.378   2.860  17.168  0.00  0.00    +0.000 HD
ENDBRANCH   4   7
BRANCH   1  15
ATOM     15  O   UNL     1       8.513   7.919  18.548  0.00  0.00    +0.000 OA
BRANCH  15  17
ATOM     16  C   UNL     1       9.073  10.220  18.736  0.00  0.00    +0.000 C 
ATOM     17  C   UNL     1       8.236   9.203  17.986  0.00  0.00    +0.000 C 
ENDBRANCH  15  17
ENDBRANCH   1  15
TORSDOF 3
ENDMDL
MODEL 4
REMARK VINA RESULT:      -6.2      1.017      1.570
REMARK  Name = 
REMARK  4 active torsions:
REMARK  status: ('A' for Active; 'I' for Inactive)
REMARK    1  A    between atoms: C_1  and  C_2
REMARK    2  A    between atoms: C_2  and  O_3
REMARK    3  A    between atoms: O_3  and  C_4
REMARK    4  A    between atoms: C_7  and  N_8
REMARK                            x       y       z     vdW  Elec       q    Type
REMARK                         _______ _______ _______ _____ _____    ______ ____
ROOT
ATOM      1  C   UNL     1       6.074   5.218  15.186  0.00  0.00    +0.000 A 
ATOM      2  C   UNL     1       6.226   4.093  15.994  0.00  0.00    +0.000 A 
ATOM      3  C   UNL     1       5.537   3.992  17.208  0.00  0.00    +0.000 A 
ATOM      4  C   UNL     1       4.703   5.028  17.651  0.00  0.00    +0.000 A 
ATOM      5  C   UNL     1       4.555   6.143  16.818  0.00  0.00    +0.000 A 
ATOM      6  C   UNL     1       5.246   6.251  15.609  0.00  0.00    +0.000 A 
ENDROOT
BRANCH   4   7
ATOM      7  N   UNL     1       4.082   4.916  18.908  0.00  0.00    +0.000 N 
ATOM      8  C   UNL     1       2.916   4.267  19.193  0.00  0.00    +0.000 C 
ATOM      9  N   UNL     1       2.252   3.424  18.479  0.00  0.00    +0.000 NA
ATOM     10  C   UNL     1       1.088   2.998  19.065  0.00  0.00    +0.000 C 
ATOM     11  O   UNL     1       0.312   2.211  18.530  0.00  0.00    +0.000 OA
ATOM     12  C   UNL     1       0.824   3.575  20.432  0.00  0.00    +0.000 C 
ATOM     13  S   UNL     1       2.222   4.677  20.748  0.00  0.00    +0.000 S 
ATOM     14  H   UNL     1       4.378   5.595  19.597  0.00  0.00    +0.000 HD
ENDBRANCH   4   7
BRANCH   1  15
ATOM     15  O   UNL     1       6.781   5.205  14.018  0.00  0.00    +0.000 OA
BRANCH  15  17
ATOM     16  C   UNL     1       5.444   3.822  12.625  0.00  0.00    +0.000 C 
ATOM     17  C   UNL     1       6.788   3.962  13.313  0.00  0.00    +0.000 C 
ENDBRANCH  15  17
ENDBRANCH   1  15
TORSDOF 3
ENDMDL
MODEL 5
REMARK VINA RESULT:      -6.2      2.787      3.311
REMARK  Name = 
REMARK  4 active torsions:
REMARK  status: ('A' for Active; 'I' for Inactive)
REMARK    1  A    between atoms: C_1  and  C_2
REMARK    2  A    between atoms: C_2  and  O_3
REMARK    3  A    between atoms: O_3  and  C_4
REMARK    4  A    between atoms: C_7  and  N_8
REMARK                            x       y       z     vdW  Elec       q    Type
REMARK                         _______ _______ _______ _____ _____    ______ ____
ROOT
ATOM      1  C   UNL     1       7.650   6.873  18.378  0.00  0.00    +0.000 A 
ATOM      2  C   UNL     1       6.740   6.961  17.327  0.00  0.00    +0.000 A 
ATOM      3  C   UNL     1       5.791   5.954  17.123  0.00  0.00    +0.000 A 
ATOM      4  C   UNL     1       5.751   4.823  17.951  0.00  0.00    +0.000 A 
ATOM      5  C   UNL     1       6.665   4.760  19.008  0.00  0.00    +0.000 A 
ATOM      6  C   UNL     1       7.619   5.760  19.211  0.00  0.00    +0.000 A 
ENDROOT
BRANCH   4   7
ATOM      7  N   UNL     1       4.825   3.802  17.669  0.00  0.00    +0.000 N 
ATOM      8  C   UNL     1       3.629   3.585  18.289  0.00  0.00    +0.000 C 
ATOM      9  N   UNL     1       2.958   4.361  19.070  0.00  0.00    +0.000 NA
ATOM     10  C   UNL     1       1.804   3.799  19.552  0.00  0.00    +0.000 C 
ATOM     11  O   UNL     1       1.044   4.375  20.325  0.00  0.00    +0.000 OA
ATOM     12  C   UNL     1       1.532   2.401  19.058  0.00  0.00    +0.000 C 
ATOM     13  S   UNL     1       2.934   2.005  17.988  0.00  0.00    +0.000 S 
ATOM     14  H   UNL     1       5.196   3.012  17.160  0.00  0.00    +0.000 HD
ENDBRANCH   4   7
BRANCH   1  15
ATOM     15  O   UNL     1       8.522   7.917  18.493  0.00  0.00    +0.000 OA
BRANCH  15  17
ATOM     16  C   UNL     1       8.987  10.246  18.443  0.00  0.00    +0.000 C 
ATOM     17  C   UNL     1       8.098   9.145  17.898  0.00  0.00    +0.000 C 
ENDBRANCH  15  17
ENDBRANCH   1  15
TORSDOF 3
ENDMDL
MODEL 6
REMARK VINA RESULT:      -6.1      2.304      2.863
REMARK  Name = 
REMARK  4 active torsions:
REMARK  status: ('A' for Active; 'I' for Inactive)
REMARK    1  A    between atoms: C_1  and  C_2
REMARK    2  A    between atoms: C_2  and  O_3
REMARK    3  A    between atoms: O_3  and  C_4
REMARK    4  A    between atoms: C_7  and  N_8
REMARK                            x       y       z     vdW  Elec       q    Type
REMARK                         _______ _______ _______ _____ _____    ______ ____
ROOT
ATOM      1  C   UNL     1       6.570   6.257  16.938  0.00  0.00    +0.000 A 
ATOM      2  C   UNL     1       5.382   6.955  17.145  0.00  0.00    +0.000 A 
ATOM      3  C   UNL     1       4.196   6.270  17.428  0.00  0.00    +0.000 A 
ATOM      4  C   UNL     1       4.167   4.870  17.484  0.00  0.00    +0.000 A 
ATOM      5  C   UNL     1       5.373   4.188  17.284  0.00  0.00    +0.000 A 
ATOM      6  C   UNL     1       6.559   4.868  16.994  0.00  0.00    +0.000 A 
ENDROOT
BRANCH   4   7
ATOM      7  N   UNL     1       2.941   4.218  17.704  0.00  0.00    +0.000 N 
ATOM      8  C   UNL     1       2.469   3.735  18.890  0.00  0.00    +0.000 C 
ATOM      9  N   UNL     1       2.883   3.962  20.090  0.00  0.00    +0.000 NA
ATOM     10  C   UNL     1       2.197   3.269  21.053  0.00  0.00    +0.000 C 
ATOM     11  O   UNL     1       2.459   3.339  22.251  0.00  0.00    +0.000 OA
ATOM     12  C   UNL     1       1.081   2.402  20.529  0.00  0.00    +0.000 C 
ATOM     13  S   UNL     1       1.124   2.624  18.736  0.00  0.00    +0.000 S 
ATOM     14  H   UNL     1       2.499   3.838  16.878  0.00  0.00    +0.000 HD
ENDBRANCH   4   7
BRANCH   1  15
ATOM     15  O   UNL     1       7.669   7.025  16.683  0.00  0.00    +0.000 OA
BRANCH  15  17
ATOM     16  C   UNL     1       8.495   7.996  18.687  0.00  0.00    +0.000 C 
ATOM     17  C   UNL     1       7.741   8.260  17.398  0.00  0.00    +0.000 C 
ENDBRANCH  15  17
ENDBRANCH   1  15
TORSDOF 3
ENDMDL
MODEL 7
REMARK VINA RESULT:      -6.1      2.593      3.342
REMARK  Name = 
REMARK  4 active torsions:
REMARK  status: ('A' for Active; 'I' for Inactive)
REMARK    1  A    between atoms: C_1  and  C_2
REMARK    2  A    between atoms: C_2  and  O_3
REMARK    3  A    between atoms: O_3  and  C_4
REMARK    4  A    between atoms: C_7  and  N_8
REMARK                            x       y       z     vdW  Elec       q    Type
REMARK                         _______ _______ _______ _____ _____    ______ ____
ROOT
ATOM      1  C   UNL     1       7.507   7.152  17.501  0.00  0.00    +0.000 A 
ATOM      2  C   UNL     1       7.860   6.479  18.669  0.00  0.00    +0.000 A 
ATOM      3  C   UNL     1       7.177   5.322  19.056  0.00  0.00    +0.000 A 
ATOM      4  C   UNL     1       6.107   4.829  18.296  0.00  0.00    +0.000 A 
ATOM      5  C   UNL     1       5.776   5.513  17.121  0.00  0.00    +0.000 A 
ATOM      6  C   UNL     1       6.452   6.673  16.735  0.00  0.00    +0.000 A 
ENDROOT
BRANCH   4   7
ATOM      7  N   UNL     1       5.403   3.702  18.757  0.00  0.00    +0.000 N 
ATOM      8  C   UNL     1       4.070   3.450  18.610  0.00  0.00    +0.000 C 
ATOM      9  N   UNL     1       3.209   4.019  17.838  0.00  0.00    +0.000 NA
ATOM     10  C   UNL     1       1.933   3.538  17.981  0.00  0.00    +0.000 C 
ATOM     11  O   UNL     1       0.974   3.968  17.347  0.00  0.00    +0.000 OA
ATOM     12  C   UNL     1       1.790   2.426  18.989  0.00  0.00    +0.000 C 
ATOM     13  S   UNL     1       3.453   2.185  19.653  0.00  0.00    +0.000 S 
ATOM     14  H   UNL     1       5.864   3.173  19.485  0.00  0.00    +0.000 HD
ENDBRANCH   4   7
BRANCH   1  15
ATOM     15  O   UNL     1       8.250   8.261  17.212  0.00  0.00    +0.000 OA
BRANCH  15  17
ATOM     16  C   UNL     1       9.016   9.929  18.719  0.00  0.00    +0.000 C 
ATOM     17  C   UNL     1       7.849   9.464  17.870  0.00  0.00    +0.000 C 
ENDBRANCH  15  17
ENDBRANCH   1  15
TORSDOF 3
ENDMDL
MODEL 8
REMARK VINA RESULT:      -6.1      1.911      2.023
REMARK  Name = 
REMARK  4 active torsions:
REMARK  status: ('A' for Active; 'I' for Inactive)
REMARK    1  A    between atoms: C_1  and  C_2
REMARK    2  A    between atoms: C_2  and  O_3
REMARK    3  A    between atoms: O_3  and  C_4
REMARK    4  A    between atoms: C_7  and  N_8
REMARK                            x       y       z     vdW  Elec       q    Type
REMARK                         _______ _______ _______ _____ _____    ______ ____
ROOT
ATOM      1  C   UNL     1       5.523   5.517  15.618  0.00  0.00    +0.000 A 
ATOM      2  C   UNL     1       5.087   6.592  16.390  0.00  0.00    +0.000 A 
ATOM      3  C   UNL     1       4.116   6.408  17.380  0.00  0.00    +0.000 A 
ATOM      4  C   UNL     1       3.542   5.148  17.600  0.00  0.00    +0.000 A 
ATOM      5  C   UNL     1       4.002   4.080  16.822  0.00  0.00    +0.000 A 
ATOM      6  C   UNL     1       4.967   4.261  15.828  0.00  0.00    +0.000 A 
ENDROOT
BRANCH   4   7
ATOM      7  N   UNL     1       2.520   5.020  18.558  0.00  0.00    +0.000 N 
ATOM      8  C   UNL     1       2.484   4.149  19.608  0.00  0.00    +0.000 C 
ATOM      9  N   UNL     1       3.432   3.437  20.115  0.00  0.00    +0.000 NA
ATOM     10  C   UNL     1       3.028   2.633  21.149  0.00  0.00    +0.000 C 
ATOM     11  O   UNL     1       3.783   1.869  21.744  0.00  0.00    +0.000 OA
ATOM     12  C   UNL     1       1.570   2.754  21.507  0.00  0.00    +0.000 C 
ATOM     13  S   UNL     1       0.904   3.965  20.342  0.00  0.00    +0.000 S 
ATOM     14  H   UNL     1       1.627   5.411  18.292  0.00  0.00    +0.000 HD
ENDBRANCH   4   7
BRANCH   1  15
ATOM     15  O   UNL     1       6.483   5.807  14.692  0.00  0.00    +0.000 OA
BRANCH  15  17
ATOM     16  C   UNL     1       7.739   5.192  12.771  0.00  0.00    +0.000 C 
ATOM     17  C   UNL     1       7.066   4.682  14.030  0.00  0.00    +0.000 C 
ENDBRANCH  15  17
ENDBRANCH   1  15
TORSDOF 3
ENDMDL
MODEL 9
REMARK VINA RESULT:      -6.1      1.066      1.066
REMARK  Name = 
REMARK  4 active torsions:
REMARK  status: ('A' for Active; 'I' for Inactive)
REMARK    1  A    between atoms: C_1  and  C_2
REMARK    2  A    between atoms: C_2  and  O_3
REMARK    3  A    between atoms: O_3  and  C_4
REMARK    4  A    between atoms: C_7  and  N_8
REMARK                            x       y       z     vdW  Elec       q    Type
REMARK                         _______ _______ _______ _____ _____    ______ ____
ROOT
ATOM      1  C   UNL     1       6.447   4.401  15.624  0.00  0.00    +0.000 A 
ATOM      2  C   UNL     1       5.065   4.231  15.660  0.00  0.00    +0.000 A 
ATOM      3  C   UNL     1       4.376   4.261  16.877  0.00  0.00    +0.000 A 
ATOM      4  C   UNL     1       5.061   4.435  18.088  0.00  0.00    +0.000 A 
ATOM      5  C   UNL     1       6.448   4.616  18.029  0.00  0.00    +0.000 A 
ATOM      6  C   UNL     1       7.139   4.580  16.816  0.00  0.00    +0.000 A 
ENDROOT
BRANCH   4   7
ATOM      7  N   UNL     1       4.340   4.391  19.294  0.00  0.00    +0.000 N 
ATOM      8  C   UNL     1       3.079   3.903  19.479  0.00  0.00    +0.000 C 
ATOM      9  N   UNL     1       2.362   3.168  18.699  0.00  0.00    +0.000 NA
ATOM     10  C   UNL     1       1.111   2.896  19.189  0.00  0.00    +0.000 C 
ATOM     11  O   UNL     1       0.278   2.229  18.581  0.00  0.00    +0.000 OA
ATOM     12  C   UNL     1       0.826   3.484  20.547  0.00  0.00    +0.000 C 
ATOM     13  S   UNL     1       2.332   4.381  20.990  0.00  0.00    +0.000 S 
ATOM     14  H   UNL     1       4.672   5.013  20.018  0.00  0.00    +0.000 HD
ENDBRANCH   4   7
BRANCH   1  15
ATOM     15  O   UNL     1       7.014   4.369  14.382  0.00  0.00    +0.000 OA
BRANCH  15  17
ATOM     16  C   UNL     1       7.050   3.669  12.113  0.00  0.00    +0.000 C 
ATOM     17  C   UNL     1       6.174   3.888  13.331  0.00  0.00    +0.000 C 
ENDBRANCH  15  17
ENDBRANCH   1  15
TORSDOF 3
ENDMDL
