MODEL 1
REMARK VINA RESULT:      -6.9      0.000      0.000
REMARK  Name = 
REMARK  11 active torsions:
REMARK  status: ('A' for Active; 'I' for Inactive)
REMARK    1  A    between atoms: C_1  and  C_2
REMARK    2  A    between atoms: C_2  and  C_3
REMARK    3  A    between atoms: C_2  and  C_4
REMARK    4  A    between atoms: C_2  and  O_5
REMARK    5  A    between atoms: O_5  and  C_6
REMARK    6  A    between atoms: C_10  and  O_11
REMARK    7  A    between atoms: O_11  and  C_12
REMARK    8  A    between atoms: C_12  and  C_13
REMARK    9  A    between atoms: N_15  and  C_16
REMARK   10  A    between atoms: N_15  and  C_23
REMARK   11  A    between atoms: C_16  and  C_17
REMARK                            x       y       z     vdW  Elec       q    Type
REMARK                         _______ _______ _______ _____ _____    ______ ____
ROOT
ATOM      1  C   UNL     1       2.474   7.445  18.323  0.00  0.00    +0.000 C 
ENDROOT
BRANCH   1   2
ATOM      2  C   UNL     1       1.953   8.900  18.283  0.00  0.00    +0.000 C 
ATOM      3  O   UNL     1       2.204   9.635  17.324  0.00  0.00    +0.000 OA
ATOM      4  N   UNL     1       1.205   9.337  19.386  0.00  0.00    +0.000 N 
BRANCH   4   5
ATOM      5  C   UNL     1       0.848   8.472  20.488  0.00  0.00    +0.000 C 
ATOM      6  C   UNL     1       1.318   8.794  21.890  0.00  0.00    +0.000 C 
ATOM      7  C   UNL     1      -0.143   8.819  21.571  0.00  0.00    +0.000 C 
ENDBRANCH   4   5
BRANCH   4   8
ATOM      8  C   UNL     1       0.755  10.731  19.405  0.00  0.00    +0.000 C 
BRANCH   8   9
ATOM      9  C   UNL     1      -0.666  10.957  18.941  0.00  0.00    +0.000 A 
ATOM     10  C   UNL     1      -1.224  10.181  17.919  0.00  0.00    +0.000 A 
ATOM     11  C   UNL     1      -2.575  10.319  17.634  0.00  0.00    +0.000 A 
ATOM     12  N   UNL     1      -3.394  11.176  18.279  0.00  0.00    +0.000 NA
ATOM     13  C   UNL     1      -2.835  11.934  19.244  0.00  0.00    +0.000 A 
ATOM     14  C   UNL     1      -1.495  11.870  19.600  0.00  0.00    +0.000 A 
ENDBRANCH   8   9
ENDBRANCH   4   8
ENDBRANCH   1   2
BRANCH   1  15
ATOM     15  O   UNL     1       3.846   7.230  17.997  0.00  0.00    +0.000 OA
BRANCH  15  20
ATOM     16  C   UNL     1       4.217   3.519  19.256  0.00  0.00    +0.000 C 
ATOM     17  O   UNL     1       5.143   3.532  20.052  0.00  0.00    +0.000 OA
ATOM     18  N   UNL     1       4.273   4.170  18.052  0.00  0.00    +0.000 N 
ATOM     19  C   UNL     1       5.294   5.135  17.675  0.00  0.00    +0.000 C 
ATOM     20  C   UNL     1       4.161   6.059  17.191  0.00  0.00    +0.000 C 
ATOM     21  C   UNL     1       3.203   4.853  17.343  0.00  0.00    +0.000 C 
BRANCH  16  22
ATOM     22  O   UNL     1       3.036   2.864  19.435  0.00  0.00    +0.000 OA
BRANCH  22  24
ATOM     23  C   UNL     1       2.324   4.829  20.715  0.00  0.00    +0.000 C 
ATOM     24  C   UNL     1       2.113   3.332  20.462  0.00  0.00    +0.000 C 
ATOM     25  C   UNL     1       2.212   2.502  21.750  0.00  0.00    +0.000 C 
ATOM     26  C   UNL     1       0.702   3.136  19.886  0.00  0.00    +0.000 C 
ENDBRANCH  22  24
ENDBRANCH  16  22
ENDBRANCH  15  20
ENDBRANCH   1  15
TORSDOF 8
ENDMDL
MODEL 2
REMARK VINA RESULT:      -6.8      1.641      3.394
REMARK  Name = 
REMARK  11 active torsions:
REMARK  status: ('A' for Active; 'I' for Inactive)
REMARK    1  A    between atoms: C_1  and  C_2
REMARK    2  A    between atoms: C_2  and  C_3
REMARK    3  A    between atoms: C_2  and  C_4
REMARK    4  A    between atoms: C_2  and  O_5
REMARK    5  A    between atoms: O_5  and  C_6
REMARK    6  A    between atoms: C_10  and  O_11
REMARK    7  A    between atoms: O_11  and  C_12
REMARK    8  A    between atoms: C_12  and  C_13
REMARK    9  A    between atoms: N_15  and  C_16
REMARK   10  A    between atoms: N_15  and  C_23
REMARK   11  A    between atoms: C_16  and  C_17
REMARK                            x       y       z     vdW  Elec       q    Type
REMARK                         _______ _______ _______ _____ _____    ______ ____
ROOT
ATOM      1  C   UNL     1       2.216   7.863  19.358  0.00  0.00    +0.000 C 
ENDROOT
BRANCH   1   2
ATOM      2  C   UNL     1       1.564   9.061  18.628  0.00  0.00    +0.000 C 
ATOM      3  O   UNL     1       1.903   9.364  17.482  0.00  0.00    +0.000 OA
ATOM      4  N   UNL     1       0.591   9.781  19.336  0.00  0.00    +0.000 N 
BRANCH   4   5
ATOM      5  C   UNL     1       0.134   9.403  20.655  0.00  0.00    +0.000 C 
ATOM      6  C   UNL     1       0.934   9.796  21.878  0.00  0.00    +0.000 C 
ATOM      7  C   UNL     1      -0.439  10.354  21.676  0.00  0.00    +0.000 C 
ENDBRANCH   4   5
BRANCH   4   8
ATOM      8  C   UNL     1       0.003  10.960  18.694  0.00  0.00    +0.000 C 
BRANCH   8   9
ATOM      9  C   UNL     1      -1.423  10.795  18.222  0.00  0.00    +0.000 A 
ATOM     10  C   UNL     1      -2.450  11.601  18.729  0.00  0.00    +0.000 A 
ATOM     11  C   UNL     1      -3.711  11.519  18.156  0.00  0.00    +0.000 A 
ATOM     12  N   UNL     1      -4.019  10.692  17.136  0.00  0.00    +0.000 NA
ATOM     13  C   UNL     1      -3.025   9.905  16.676  0.00  0.00    +0.000 A 
ATOM     14  C   UNL     1      -1.734   9.912  17.184  0.00  0.00    +0.000 A 
ENDBRANCH   8   9
ENDBRANCH   4   8
ENDBRANCH   1   2
BRANCH   1  15
ATOM     15  O   UNL     1       2.031   6.569  18.788  0.00  0.00    +0.000 OA
BRANCH  15  20
ATOM     16  C   UNL     1       4.720   4.044  17.412  0.00  0.00    +0.000 C 
ATOM     17  O   UNL     1       4.195   3.493  16.456  0.00  0.00    +0.000 OA
ATOM     18  N   UNL     1       4.061   4.246  18.596  0.00  0.00    +0.000 N 
ATOM     19  C   UNL     1       2.630   4.073  18.792  0.00  0.00    +0.000 C 
ATOM     20  C   UNL     1       2.618   5.441  19.498  0.00  0.00    +0.000 C 
ATOM     21  C   UNL     1       4.164   5.375  19.507  0.00  0.00    +0.000 C 
BRANCH  16  22
ATOM     22  O   UNL     1       5.999   4.510  17.446  0.00  0.00    +0.000 OA
BRANCH  22  24
ATOM     23  C   UNL     1       7.377   6.531  17.307  0.00  0.00    +0.000 C 
ATOM     24  C   UNL     1       6.373   5.625  16.585  0.00  0.00    +0.000 C 
ATOM     25  C   UNL     1       5.148   6.398  16.076  0.00  0.00    +0.000 C 
ATOM     26  C   UNL     1       7.075   5.004  15.367  0.00  0.00    +0.000 C 
ENDBRANCH  22  24
ENDBRANCH  16  22
ENDBRANCH  15  20
ENDBRANCH   1  15
TORSDOF 8
ENDMDL
MODEL 3
REMARK VINA RESULT:      -6.6      1.517      3.151
REMARK  Name = 
REMARK  11 active torsions:
REMARK  status: ('A' for Active; 'I' for Inactive)
REMARK    1  A    between atoms: C_1  and  C_2
REMARK    2  A    between atoms: C_2  and  C_3
REMARK    3  A    between atoms: C_2  and  C_4
REMARK    4  A    between atoms: C_2  and  O_5
REMARK    5  A    between atoms: O_5  and  C_6
REMARK    6  A    between atoms: C_10  and  O_11
REMARK    7  A    between atoms: O_11  and  C_12
REMARK    8  A    between atoms: C_12  and  C_13
REMARK    9  A    between atoms: N_15  and  C_16
REMARK   10  A    between atoms: N_15  and  C_23
REMARK   11  A    between atoms: C_16  and  C_17
REMARK                            x       y       z     vdW  Elec       q    Type
REMARK                         _______ _______ _______ _____ _____    ______ ____
ROOT
ATOM      1  C   UNL     1       2.241   7.211  19.722  0.00  0.00    +0.000 C 
ENDROOT
BRANCH   1   2
ATOM      2  C   UNL     1       1.845   8.554  19.066  0.00  0.00    +0.000 C 
ATOM      3  O   UNL     1       2.307   8.882  17.970  0.00  0.00    +0.000 OA
ATOM      4  N   UNL     1       0.959   9.372  19.780  0.00  0.00    +0.000 N 
BRANCH   4   5
ATOM      5  C   UNL     1       0.358   8.977  21.034  0.00  0.00    +0.000 C 
ATOM      6  C   UNL     1       1.080   9.239  22.339  0.00  0.00    +0.000 C 
ATOM      7  C   UNL     1      -0.217   9.928  22.054  0.00  0.00    +0.000 C 
ENDBRANCH   4   5
BRANCH   4   8
ATOM      8  C   UNL     1       0.618  10.680  19.213  0.00  0.00    +0.000 C 
BRANCH   8   9
ATOM      9  C   UNL     1      -0.766  10.782  18.612  0.00  0.00    +0.000 A 
ATOM     10  C   UNL     1      -1.199   9.875  17.637  0.00  0.00    +0.000 A 
ATOM     11  C   UNL     1      -2.525   9.914  17.230  0.00  0.00    +0.000 A 
ATOM     12  N   UNL     1      -3.433  10.788  17.709  0.00  0.00    +0.000 NA
ATOM     13  C   UNL     1      -2.993  11.671  18.630  0.00  0.00    +0.000 A 
ATOM     14  C   UNL     1      -1.688  11.714  19.099  0.00  0.00    +0.000 A 
ENDBRANCH   8   9
ENDBRANCH   4   8
ENDBRANCH   1   2
BRANCH   1  15
ATOM     15  O   UNL     1       1.829   6.014  19.066  0.00  0.00    +0.000 OA
BRANCH  15  20
ATOM     16  C   UNL     1       4.829   3.994  17.511  0.00  0.00    +0.000 C 
ATOM     17  O   UNL     1       4.470   3.686  16.385  0.00  0.00    +0.000 OA
ATOM     18  N   UNL     1       4.010   3.874  18.603  0.00  0.00    +0.000 N 
ATOM     19  C   UNL     1       2.580   3.615  18.545  0.00  0.00    +0.000 C 
ATOM     20  C   UNL     1       2.388   4.762  19.555  0.00  0.00    +0.000 C 
ATOM     21  C   UNL     1       3.921   4.741  19.767  0.00  0.00    +0.000 C 
BRANCH  16  22
ATOM     22  O   UNL     1       6.060   4.474  17.839  0.00  0.00    +0.000 OA
BRANCH  22  24
ATOM     23  C   UNL     1       7.597   6.355  18.167  0.00  0.00    +0.000 C 
ATOM     24  C   UNL     1       6.496   5.751  17.287  0.00  0.00    +0.000 C 
ATOM     25  C   UNL     1       5.324   6.719  17.072  0.00  0.00    +0.000 C 
ATOM     26  C   UNL     1       7.101   5.435  15.911  0.00  0.00    +0.000 C 
ENDBRANCH  22  24
ENDBRANCH  16  22
ENDBRANCH  15  20
ENDBRANCH   1  15
TORSDOF 8
ENDMDL
MODEL 4
REMARK VINA RESULT:      -6.5      2.182      8.239
REMARK  Name = 
REMARK  11 active torsions:
REMARK  status: ('A' for Active; 'I' for Inactive)
REMARK    1  A    between atoms: C_1  and  C_2
REMARK    2  A    between atoms: C_2  and  C_3
REMARK    3  A    between atoms: C_2  and  C_4
REMARK    4  A    between atoms: C_2  and  O_5
REMARK    5  A    between atoms: O_5  and  C_6
REMARK    6  A    between atoms: C_10  and  O_11
REMARK    7  A    between atoms: O_11  and  C_12
REMARK    8  A    between atoms: C_12  and  C_13
REMARK    9  A    between atoms: N_15  and  C_16
REMARK   10  A    between atoms: N_15  and  C_23
REMARK   11  A    between atoms: C_16  and  C_17
REMARK                            x       y       z     vdW  Elec       q    Type
REMARK                         _______ _______ _______ _____ _____    ______ ____
ROOT
ATOM      1  C   UNL     1       2.399   6.496  20.195  0.00  0.00    +0.000 C 
ENDROOT
BRANCH   1   2
ATOM      2  C   UNL     1       2.909   6.096  18.790  0.00  0.00    +0.000 C 
ATOM      3  O   UNL     1       3.180   6.955  17.948  0.00  0.00    +0.000 OA
ATOM      4  N   UNL     1       3.031   4.724  18.527  0.00  0.00    +0.000 N 
BRANCH   4   5
ATOM      5  C   UNL     1       2.780   3.705  19.521  0.00  0.00    +0.000 C 
ATOM      6  C   UNL     1       1.559   2.817  19.408  0.00  0.00    +0.000 C 
ATOM      7  C   UNL     1       2.926   2.221  19.292  0.00  0.00    +0.000 C 
ENDBRANCH   4   5
BRANCH   4   8
ATOM      8  C   UNL     1       3.450   4.315  17.183  0.00  0.00    +0.000 C 
BRANCH   8   9
ATOM      9  C   UNL     1       4.942   4.313  16.944  0.00  0.00    +0.000 A 
ATOM     10  C   UNL     1       5.466   4.221  15.649  0.00  0.00    +0.000 A 
ATOM     11  C   UNL     1       6.833   4.379  15.467  0.00  0.00    +0.000 A 
ATOM     12  N   UNL     1       7.703   4.606  16.472  0.00  0.00    +0.000 NA
ATOM     13  C   UNL     1       7.184   4.668  17.716  0.00  0.00    +0.000 A 
ATOM     14  C   UNL     1       5.835   4.520  18.001  0.00  0.00    +0.000 A 
ENDBRANCH   8   9
ENDBRANCH   4   8
ENDBRANCH   1   2
BRANCH   1  15
ATOM     15  O   UNL     1       1.935   7.833  20.367  0.00  0.00    +0.000 OA
BRANCH  15  20
ATOM     16  C   UNL     1       0.171  11.235  21.269  0.00  0.00    +0.000 C 
ATOM     17  O   UNL     1       1.075  12.030  21.474  0.00  0.00    +0.000 OA
ATOM     18  N   UNL     1       0.185   9.960  21.770  0.00  0.00    +0.000 N 
ATOM     19  C   UNL     1       1.342   9.317  22.376  0.00  0.00    +0.000 C 
ATOM     20  C   UNL     1       1.050   8.089  21.495  0.00  0.00    +0.000 C 
ATOM     21  C   UNL     1      -0.312   8.740  21.154  0.00  0.00    +0.000 C 
BRANCH  16  22
ATOM     22  O   UNL     1      -0.954  11.494  20.548  0.00  0.00    +0.000 OA
BRANCH  22  24
ATOM     23  C   UNL     1      -2.127  11.337  18.402  0.00  0.00    +0.000 C 
ATOM     24  C   UNL     1      -0.838  11.756  19.118  0.00  0.00    +0.000 C 
ATOM     25  C   UNL     1       0.409  11.099  18.509  0.00  0.00    +0.000 C 
ATOM     26  C   UNL     1      -0.683  13.278  18.977  0.00  0.00    +0.000 C 
ENDBRANCH  22  24
ENDBRANCH  16  22
ENDBRANCH  15  20
ENDBRANCH   1  15
TORSDOF 8
ENDMDL
MODEL 5
REMARK VINA RESULT:      -6.4      1.465      3.082
REMARK  Name = 
REMARK  11 active torsions:
REMARK  status: ('A' for Active; 'I' for Inactive)
REMARK    1  A    between atoms: C_1  and  C_2
REMARK    2  A    between atoms: C_2  and  C_3
REMARK    3  A    between atoms: C_2  and  C_4
REMARK    4  A    between atoms: C_2  and  O_5
REMARK    5  A    between atoms: O_5  and  C_6
REMARK    6  A    between atoms: C_10  and  O_11
REMARK    7  A    between atoms: O_11  and  C_12
REMARK    8  A    between atoms: C_12  and  C_13
REMARK    9  A    between atoms: N_15  and  C_16
REMARK   10  A    between atoms: N_15  and  C_23
REMARK   11  A    between atoms: C_16  and  C_17
REMARK                            x       y       z     vdW  Elec       q    Type
REMARK                         _______ _______ _______ _____ _____    ______ ____
ROOT
ATOM      1  C   UNL     1       2.351   7.082  18.539  0.00  0.00    +0.000 C 
ENDROOT
BRANCH   1   2
ATOM      2  C   UNL     1       1.953   8.569  18.387  0.00  0.00    +0.000 C 
ATOM      3  O   UNL     1       2.236   9.198  17.365  0.00  0.00    +0.000 OA
ATOM      4  N   UNL     1       1.275   9.157  19.464  0.00  0.00    +0.000 N 
BRANCH   4   5
ATOM      5  C   UNL     1       0.878   8.420  20.643  0.00  0.00    +0.000 C 
ATOM      6  C   UNL     1       1.257   8.924  22.019  0.00  0.00    +0.000 C 
ATOM      7  C   UNL     1      -0.183   8.861  21.620  0.00  0.00    +0.000 C 
ENDBRANCH   4   5
BRANCH   4   8
ATOM      8  C   UNL     1       0.943  10.582  19.375  0.00  0.00    +0.000 C 
BRANCH   8   9
ATOM      9  C   UNL     1      -0.465  10.889  18.919  0.00  0.00    +0.000 A 
ATOM     10  C   UNL     1      -1.091  10.114  17.936  0.00  0.00    +0.000 A 
ATOM     11  C   UNL     1      -2.434  10.337  17.662  0.00  0.00    +0.000 A 
ATOM     12  N   UNL     1      -3.181  11.273  18.282  0.00  0.00    +0.000 NA
ATOM     13  C   UNL     1      -2.556  12.027  19.209  0.00  0.00    +0.000 A 
ATOM     14  C   UNL     1      -1.219  11.883  19.551  0.00  0.00    +0.000 A 
ENDBRANCH   8   9
ENDBRANCH   4   8
ENDBRANCH   1   2
BRANCH   1  15
ATOM     15  O   UNL     1       3.403   6.775  19.453  0.00  0.00    +0.000 OA
BRANCH  15  20
ATOM     16  C   UNL     1       3.801   3.610  17.147  0.00  0.00    +0.000 C 
ATOM     17  O   UNL     1       2.790   3.571  16.463  0.00  0.00    +0.000 OA
ATOM     18  N   UNL     1       3.770   3.861  18.493  0.00  0.00    +0.000 N 
ATOM     19  C   UNL     1       2.607   4.346  19.222  0.00  0.00    +0.000 C 
ATOM     20  C   UNL     1       3.527   5.390  19.881  0.00  0.00    +0.000 C 
ATOM     21  C   UNL     1       4.726   4.604  19.297  0.00  0.00    +0.000 C 
BRANCH  16  22
ATOM     22  O   UNL     1       5.067   3.403  16.689  0.00  0.00    +0.000 OA
BRANCH  22  24
ATOM     23  C   UNL     1       7.194   4.594  16.442  0.00  0.00    +0.000 C 
ATOM     24  C   UNL     1       5.744   4.469  15.961  0.00  0.00    +0.000 C 
ATOM     25  C   UNL     1       4.983   5.800  16.047  0.00  0.00    +0.000 C 
ATOM     26  C   UNL     1       5.761   4.033  14.488  0.00  0.00    +0.000 C 
ENDBRANCH  22  24
ENDBRANCH  16  22
ENDBRANCH  15  20
ENDBRANCH   1  15
TORSDOF 8
ENDMDL
MODEL 6
REMARK VINA RESULT:      -6.4      2.176      8.279
REMARK  Name = 
REMARK  11 active torsions:
REMARK  status: ('A' for Active; 'I' for Inactive)
REMARK    1  A    between atoms: C_1  and  C_2
REMARK    2  A    between atoms: C_2  and  C_3
REMARK    3  A    between atoms: C_2  and  C_4
REMARK    4  A    between atoms: C_2  and  O_5
REMARK    5  A    between atoms: O_5  and  C_6
REMARK    6  A    between atoms: C_10  and  O_11
REMARK    7  A    between atoms: O_11  and  C_12
REMARK    8  A    between atoms: C_12  and  C_13
REMARK    9  A    between atoms: N_15  and  C_16
REMARK   10  A    between atoms: N_15  and  C_23
REMARK   11  A    between atoms: C_16  and  C_17
REMARK                            x       y       z     vdW  Elec       q    Type
REMARK                         _______ _______ _______ _____ _____    ______ ____
ROOT
ATOM      1  C   UNL     1       2.362   6.413  20.075  0.00  0.00    +0.000 C 
ENDROOT
BRANCH   1   2
ATOM      2  C   UNL     1       2.878   5.956  18.690  0.00  0.00    +0.000 C 
ATOM      3  O   UNL     1       3.030   6.767  17.772  0.00  0.00    +0.000 OA
ATOM      4  N   UNL     1       3.145   4.589  18.532  0.00  0.00    +0.000 N 
BRANCH   4   5
ATOM      5  C   UNL     1       3.034   3.635  19.613  0.00  0.00    +0.000 C 
ATOM      6  C   UNL     1       2.334   2.311  19.390  0.00  0.00    +0.000 C 
ATOM      7  C   UNL     1       3.798   2.336  19.699  0.00  0.00    +0.000 C 
ENDBRANCH   4   5
BRANCH   4   8
ATOM      8  C   UNL     1       3.571   4.117  17.212  0.00  0.00    +0.000 C 
BRANCH   8   9
ATOM      9  C   UNL     1       5.010   4.412  16.854  0.00  0.00    +0.000 A 
ATOM     10  C   UNL     1       5.984   4.567  17.849  0.00  0.00    +0.000 A 
ATOM     11  C   UNL     1       7.314   4.682  17.470  0.00  0.00    +0.000 A 
ATOM     12  N   UNL     1       7.734   4.668  16.188  0.00  0.00    +0.000 NA
ATOM     13  C   UNL     1       6.780   4.542  15.243  0.00  0.00    +0.000 A 
ATOM     14  C   UNL     1       5.426   4.424  15.520  0.00  0.00    +0.000 A 
ENDBRANCH   8   9
ENDBRANCH   4   8
ENDBRANCH   1   2
BRANCH   1  15
ATOM     15  O   UNL     1       1.847   7.739  20.177  0.00  0.00    +0.000 OA
BRANCH  15  20
ATOM     16  C   UNL     1       0.399  11.254  21.200  0.00  0.00    +0.000 C 
ATOM     17  O   UNL     1       1.372  11.966  21.397  0.00  0.00    +0.000 OA
ATOM     18  N   UNL     1       0.320   9.971  21.673  0.00  0.00    +0.000 N 
ATOM     19  C   UNL     1       1.434   9.220  22.233  0.00  0.00    +0.000 C 
ATOM     20  C   UNL     1       1.017   8.041  21.334  0.00  0.00    +0.000 C 
ATOM     21  C   UNL     1      -0.294   8.812  21.045  0.00  0.00    +0.000 C 
BRANCH  16  22
ATOM     22  O   UNL     1      -0.719  11.623  20.516  0.00  0.00    +0.000 OA
BRANCH  22  24
ATOM     23  C   UNL     1      -0.502  13.359  18.801  0.00  0.00    +0.000 C 
ATOM     24  C   UNL     1      -0.629  11.857  19.080  0.00  0.00    +0.000 C 
ATOM     25  C   UNL     1      -1.797  11.218  18.316  0.00  0.00    +0.000 C 
ATOM     26  C   UNL     1       0.666  11.171  18.618  0.00  0.00    +0.000 C 
ENDBRANCH  22  24
ENDBRANCH  16  22
ENDBRANCH  15  20
ENDBRANCH   1  15
TORSDOF 8
ENDMDL
MODEL 7
REMARK VINA RESULT:      -6.4      1.620      3.306
REMARK  Name = 
REMARK  11 active torsions:
REMARK  status: ('A' for Active; 'I' for Inactive)
REMARK    1  A    between atoms: C_1  and  C_2
REMARK    2  A    between atoms: C_2  and  C_3
REMARK    3  A    between atoms: C_2  and  C_4
REMARK    4  A    between atoms: C_2  and  O_5
REMARK    5  A    between atoms: O_5  and  C_6
REMARK    6  A    between atoms: C_10  and  O_11
REMARK    7  A    between atoms: O_11  and  C_12
REMARK    8  A    between atoms: C_12  and  C_13
REMARK    9  A    between atoms: N_15  and  C_16
REMARK   10  A    between atoms: N_15  and  C_23
REMARK   11  A    between atoms: C_16  and  C_17
REMARK                            x       y       z     vdW  Elec       q    Type
REMARK                         _______ _______ _______ _____ _____    ______ ____
ROOT
ATOM      1  C   UNL     1       2.114   6.892  19.832  0.00  0.00    +0.000 C 
ENDROOT
BRANCH   1   2
ATOM      2  C   UNL     1       1.778   8.249  19.169  0.00  0.00    +0.000 C 
ATOM      3  O   UNL     1       2.191   8.519  18.039  0.00  0.00    +0.000 OA
ATOM      4  N   UNL     1       1.003   9.146  19.918  0.00  0.00    +0.000 N 
BRANCH   4   5
ATOM      5  C   UNL     1       0.457   8.822  21.217  0.00  0.00    +0.000 C 
ATOM      6  C   UNL     1       1.227   9.171  22.473  0.00  0.00    +0.000 C 
ATOM      7  C   UNL     1      -0.089   9.829  22.199  0.00  0.00    +0.000 C 
ENDBRANCH   4   5
BRANCH   4   8
ATOM      8  C   UNL     1       0.725  10.465  19.342  0.00  0.00    +0.000 C 
BRANCH   8   9
ATOM      9  C   UNL     1      -0.658  10.635  18.757  0.00  0.00    +0.000 A 
ATOM     10  C   UNL     1      -1.555  11.571  19.286  0.00  0.00    +0.000 A 
ATOM     11  C   UNL     1      -2.752  11.800  18.623  0.00  0.00    +0.000 A 
ATOM     12  N   UNL     1      -3.118  11.162  17.492  0.00  0.00    +0.000 NA
ATOM     13  C   UNL     1      -2.252  10.247  17.009  0.00  0.00    +0.000 A 
ATOM     14  C   UNL     1      -1.034   9.945  17.601  0.00  0.00    +0.000 A 
ENDBRANCH   8   9
ENDBRANCH   4   8
ENDBRANCH   1   2
BRANCH   1  15
ATOM     15  O   UNL     1       3.438   6.391  19.665  0.00  0.00    +0.000 OA
BRANCH  15  20
ATOM     16  C   UNL     1       3.859   3.468  17.061  0.00  0.00    +0.000 C 
ATOM     17  O   UNL     1       2.813   3.434  16.432  0.00  0.00    +0.000 OA
ATOM     18  N   UNL     1       3.894   3.597  18.425  0.00  0.00    +0.000 N 
ATOM     19  C   UNL     1       2.753   3.951  19.256  0.00  0.00    +0.000 C 
ATOM     20  C   UNL     1       3.656   4.981  19.958  0.00  0.00    +0.000 C 
ATOM     21  C   UNL     1       4.857   4.318  19.241  0.00  0.00    +0.000 C 
BRANCH  16  22
ATOM     22  O   UNL     1       5.105   3.372  16.520  0.00  0.00    +0.000 OA
BRANCH  22  24
ATOM     23  C   UNL     1       7.165   4.664  16.219  0.00  0.00    +0.000 C 
ATOM     24  C   UNL     1       5.682   4.534  15.853  0.00  0.00    +0.000 C 
ATOM     25  C   UNL     1       4.893   5.818  16.144  0.00  0.00    +0.000 C 
ATOM     26  C   UNL     1       5.581   4.252  14.346  0.00  0.00    +0.000 C 
ENDBRANCH  22  24
ENDBRANCH  16  22
ENDBRANCH  15  20
ENDBRANCH   1  15
TORSDOF 8
ENDMDL
MODEL 8
REMARK VINA RESULT:      -6.4      2.489      8.476
REMARK  Name = 
REMARK  11 active torsions:
REMARK  status: ('A' for Active; 'I' for Inactive)
REMARK    1  A    between atoms: C_1  and  C_2
REMARK    2  A    between atoms: C_2  and  C_3
REMARK    3  A    between atoms: C_2  and  C_4
REMARK    4  A    between atoms: C_2  and  O_5
REMARK    5  A    between atoms: O_5  and  C_6
REMARK    6  A    between atoms: C_10  and  O_11
REMARK    7  A    between atoms: O_11  and  C_12
REMARK    8  A    between atoms: C_12  and  C_13
REMARK    9  A    between atoms: N_15  and  C_16
REMARK   10  A    between atoms: N_15  and  C_23
REMARK   11  A    between atoms: C_16  and  C_17
REMARK                            x       y       z     vdW  Elec       q    Type
REMARK                         _______ _______ _______ _____ _____    ______ ____
ROOT
ATOM      1  C   UNL     1       2.377   6.694  20.020  0.00  0.00    +0.000 C 
ENDROOT
BRANCH   1   2
ATOM      2  C   UNL     1       2.910   6.237  18.642  0.00  0.00    +0.000 C 
ATOM      3  O   UNL     1       3.132   7.056  17.747  0.00  0.00    +0.000 OA
ATOM      4  N   UNL     1       3.111   4.861  18.464  0.00  0.00    +0.000 N 
BRANCH   4   5
ATOM      5  C   UNL     1       2.917   3.893  19.521  0.00  0.00    +0.000 C 
ATOM      6  C   UNL     1       1.640   3.084  19.586  0.00  0.00    +0.000 C 
ATOM      7  C   UNL     1       2.944   2.396  19.335  0.00  0.00    +0.000 C 
ENDBRANCH   4   5
BRANCH   4   8
ATOM      8  C   UNL     1       3.552   4.393  17.147  0.00  0.00    +0.000 C 
BRANCH   8   9
ATOM      9  C   UNL     1       5.029   4.554  16.867  0.00  0.00    +0.000 A 
ATOM     10  C   UNL     1       5.959   4.624  17.911  0.00  0.00    +0.000 A 
ATOM     11  C   UNL     1       7.312   4.616  17.605  0.00  0.00    +0.000 A 
ATOM     12  N   UNL     1       7.796   4.555  16.347  0.00  0.00    +0.000 NA
ATOM     13  C   UNL     1       6.886   4.512  15.352  0.00  0.00    +0.000 A 
ATOM     14  C   UNL     1       5.514   4.519  15.556  0.00  0.00    +0.000 A 
ENDBRANCH   8   9
ENDBRANCH   4   8
ENDBRANCH   1   2
BRANCH   1  15
ATOM     15  O   UNL     1       1.631   7.908  20.065  0.00  0.00    +0.000 OA
BRANCH  15  20
ATOM     16  C   UNL     1       0.385  11.435  21.293  0.00  0.00    +0.000 C 
ATOM     17  O   UNL     1       1.392  12.115  21.418  0.00  0.00    +0.000 OA
ATOM     18  N   UNL     1       0.310  10.142  21.743  0.00  0.00    +0.000 N 
ATOM     19  C   UNL     1       1.447   9.348  22.182  0.00  0.00    +0.000 C 
ATOM     20  C   UNL     1       0.917   8.204  21.299  0.00  0.00    +0.000 C 
ATOM     21  C   UNL     1      -0.391   9.017  21.147  0.00  0.00    +0.000 C 
BRANCH  16  22
ATOM     22  O   UNL     1      -0.778  11.851  20.721  0.00  0.00    +0.000 OA
BRANCH  22  24
ATOM     23  C   UNL     1      -1.108  14.264  20.987  0.00  0.00    +0.000 C 
ATOM     24  C   UNL     1      -1.580  12.865  21.396  0.00  0.00    +0.000 C 
ATOM     25  C   UNL     1      -1.590  12.674  22.920  0.00  0.00    +0.000 C 
ATOM     26  C   UNL     1      -3.018  12.675  20.890  0.00  0.00    +0.000 C 
ENDBRANCH  22  24
ENDBRANCH  16  22
ENDBRANCH  15  20
ENDBRANCH   1  15
TORSDOF 8
ENDMDL
MODEL 9
REMARK VINA RESULT:      -6.3      2.233      8.287
REMARK  Name = 
REMARK  11 active torsions:
REMARK  status: ('A' for Active; 'I' for Inactive)
REMARK    1  A    between atoms: C_1  and  C_2
REMARK    2  A    between atoms: C_2  and  C_3
REMARK    3  A    between atoms: C_2  and  C_4
REMARK    4  A    between atoms: C_2  and  O_5
REMARK    5  A    between atoms: O_5  and  C_6
REMARK    6  A    between atoms: C_10  and  O_11
REMARK    7  A    between atoms: O_11  and  C_12
REMARK    8  A    between atoms: C_12  and  C_13
REMARK    9  A    between atoms: N_15  and  C_16
REMARK   10  A    between atoms: N_15  and  C_23
REMARK   11  A    between atoms: C_16  and  C_17
REMARK                            x       y       z     vdW  Elec       q    Type
REMARK                         _______ _______ _______ _____ _____    ______ ____
ROOT
ATOM      1  C   UNL     1       1.727   6.584  20.640  0.00  0.00    +0.000 C 
ENDROOT
BRANCH   1   2
ATOM      2  C   UNL     1       2.438   6.383  19.281  0.00  0.00    +0.000 C 
ATOM      3  O   UNL     1       2.732   7.349  18.572  0.00  0.00    +0.000 OA
ATOM      4  N   UNL     1       2.713   5.063  18.898  0.00  0.00    +0.000 N 
BRANCH   4   5
ATOM      5  C   UNL     1       2.434   3.923  19.744  0.00  0.00    +0.000 C 
ATOM      6  C   UNL     1       1.102   3.211  19.644  0.00  0.00    +0.000 C 
ATOM      7  C   UNL     1       2.360   2.493  19.268  0.00  0.00    +0.000 C 
ENDBRANCH   4   5
BRANCH   4   8
ATOM      8  C   UNL     1       3.326   4.838  17.587  0.00  0.00    +0.000 C 
BRANCH   8   9
ATOM      9  C   UNL     1       4.834   4.739  17.587  0.00  0.00    +0.000 A 
ATOM     10  C   UNL     1       5.531   4.315  16.449  0.00  0.00    +0.000 A 
ATOM     11  C   UNL     1       6.916   4.387  16.446  0.00  0.00    +0.000 A 
ATOM     12  N   UNL     1       7.647   4.835  17.489  0.00  0.00    +0.000 NA
ATOM     13  C   UNL     1       6.961   5.217  18.586  0.00  0.00    +0.000 A 
ATOM     14  C   UNL     1       5.578   5.179  18.687  0.00  0.00    +0.000 A 
ENDBRANCH   8   9
ENDBRANCH   4   8
ENDBRANCH   1   2
BRANCH   1  15
ATOM     15  O   UNL     1       1.730   7.899  21.193  0.00  0.00    +0.000 OA
BRANCH  15  20
ATOM     16  C   UNL     1       0.715  11.667  20.678  0.00  0.00    +0.000 C 
ATOM     17  O   UNL     1       1.456  12.310  21.405  0.00  0.00    +0.000 OA
ATOM     18  N   UNL     1       0.094  10.518  21.091  0.00  0.00    +0.000 N 
ATOM     19  C   UNL     1       0.411   9.795  22.313  0.00  0.00    +0.000 C 
ATOM     20  C   UNL     1       0.436   8.504  21.475  0.00  0.00    +0.000 C 
ATOM     21  C   UNL     1      -0.196   9.320  20.322  0.00  0.00    +0.000 C 
BRANCH  16  22
ATOM     22  O   UNL     1       0.397  11.994  19.395  0.00  0.00    +0.000 OA
BRANCH  22  24
ATOM     23  C   UNL     1      -0.291  14.240  18.699  0.00  0.00    +0.000 C 
ATOM     24  C   UNL     1      -0.757  12.850  19.145  0.00  0.00    +0.000 C 
ATOM     25  C   UNL     1      -1.705  12.909  20.350  0.00  0.00    +0.000 C 
ATOM     26  C   UNL     1      -1.520  12.202  17.979  0.00  0.00    +0.000 C 
ENDBRANCH  22  24
ENDBRANCH  16  22
ENDBRANCH  15  20
ENDBRANCH   1  15
TORSDOF 8
ENDMDL
