MODEL 1
REMARK VINA RESULT:      -9.1      0.000      0.000
REMARK  Name = 
REMARK  5 active torsions:
REMARK  status: ('A' for Active; 'I' for Inactive)
REMARK    1  A    between atoms: C_1  and  C_2
REMARK    2  A    between atoms: C_5  and  C_6
REMARK    3  A    between atoms: C_7  and  C_8
REMARK    4  A    between atoms: N_16  and  C_17
REMARK    5  A    between atoms: C_17  and  C_18
REMARK                            x       y       z     vdW  Elec       q    Type
REMARK                         _______ _______ _______ _____ _____    ______ ____
ROOT
ATOM      1  C   UNL     1       4.832   4.429  17.314  0.00  0.00    +0.000 A 
ATOM      2  C   UNL     1       4.529   3.071  17.271  0.00  0.00    +0.000 A 
ATOM      3  C   UNL     1       3.488   2.562  18.042  0.00  0.00    +0.000 A 
ATOM      4  C   UNL     1       2.700   3.371  18.857  0.00  0.00    +0.000 A 
ATOM      5  N   UNL     1       1.724   2.789  19.541  0.00  0.00    +0.000 NA
ATOM      6  C   UNL     1       0.983   3.586  20.318  0.00  0.00    +0.000 A 
ATOM      7  N   UNL     1       1.142   4.908  20.475  0.00  0.00    +0.000 NA
ATOM      8  C   UNL     1       2.120   5.502  19.769  0.00  0.00    +0.000 A 
ATOM      9  N   UNL     1       2.233   6.883  19.919  0.00  0.00    +0.000 N 
ATOM     10  C   UNL     1       2.967   4.754  18.918  0.00  0.00    +0.000 A 
ATOM     11  C   UNL     1       4.051   5.252  18.146  0.00  0.00    +0.000 A 
ATOM     12  H   UNL     1       2.890   7.411  19.368  0.00  0.00    +0.000 HD
ENDROOT
BRANCH   1  19
ATOM     13  C   UNL     1       5.431   4.082  14.085  0.00  0.00    +0.000 C 
ATOM     14  C   UNL     1       6.159   4.875  15.106  0.00  0.00    +0.000 A 
ATOM     15  N   UNL     1       7.253   5.559  14.750  0.00  0.00    +0.000 NA
ATOM     16  O   UNL     1       7.742   6.117  15.911  0.00  0.00    +0.000 OA
ATOM     17  C   UNL     1       6.948   5.774  16.961  0.00  0.00    +0.000 A 
ATOM     18  C   UNL     1       7.393   6.287  18.275  0.00  0.00    +0.000 C 
ATOM     19  C   UNL     1       5.898   4.997  16.504  0.00  0.00    +0.000 A 
ENDBRANCH   1  19
BRANCH   9  20
ATOM     20  C   UNL     1       1.794   7.459  21.188  0.00  0.00    +0.000 C 
BRANCH  20  21
ATOM     21  C   UNL     1       0.981   8.726  20.998  0.00  0.00    +0.000 A 
ATOM     22  C   UNL     1       0.274   9.318  22.059  0.00  0.00    +0.000 A 
ATOM     23  C   UNL     1      -0.444  10.505  21.864  0.00  0.00    +0.000 A 
ATOM     24  C   UNL     1      -0.460  11.119  20.613  0.00  0.00    +0.000 A 
ATOM     25  C   UNL     1       0.254  10.556  19.559  0.00  0.00    +0.000 A 
ATOM     26  C   UNL     1       0.968   9.369  19.750  0.00  0.00    +0.000 A 
ENDBRANCH  20  21
ENDBRANCH   9  20
TORSDOF 3
ENDMDL
MODEL 2
REMARK VINA RESULT:      -8.8      0.408      1.893
REMARK  Name = 
REMARK  5 active torsions:
REMARK  status: ('A' for Active; 'I' for Inactive)
REMARK    1  A    between atoms: C_1  and  C_2
REMARK    2  A    between atoms: C_5  and  C_6
REMARK    3  A    between atoms: C_7  and  C_8
REMARK    4  A    between atoms: N_16  and  C_17
REMARK    5  A    between atoms: C_17  and  C_18
REMARK                            x       y       z     vdW  Elec       q    Type
REMARK                         _______ _______ _______ _____ _____    ______ ____
ROOT
ATOM      1  C   UNL     1       4.848   4.364  17.350  0.00  0.00    +0.000 A 
ATOM      2  C   UNL     1       4.557   3.005  17.285  0.00  0.00    +0.000 A 
ATOM      3  C   UNL     1       3.513   2.476  18.039  0.00  0.00    +0.000 A 
ATOM      4  C   UNL     1       2.710   3.267  18.857  0.00  0.00    +0.000 A 
ATOM      5  N   UNL     1       1.732   2.666  19.523  0.00  0.00    +0.000 NA
ATOM      6  C   UNL     1       0.977   3.446  20.304  0.00  0.00    +0.000 A 
ATOM      7  N   UNL     1       1.123   4.767  20.480  0.00  0.00    +0.000 NA
ATOM      8  C   UNL     1       2.102   5.380  19.792  0.00  0.00    +0.000 A 
ATOM      9  N   UNL     1       2.201   6.759  19.962  0.00  0.00    +0.000 N 
ATOM     10  C   UNL     1       2.964   4.651  18.939  0.00  0.00    +0.000 A 
ATOM     11  C   UNL     1       4.051   5.169  18.185  0.00  0.00    +0.000 A 
ATOM     12  H   UNL     1       2.859   7.301  19.426  0.00  0.00    +0.000 HD
ENDROOT
BRANCH   1  19
ATOM     13  C   UNL     1       7.302   6.366  18.287  0.00  0.00    +0.000 C 
ATOM     14  C   UNL     1       6.995   5.802  16.949  0.00  0.00    +0.000 A 
ATOM     15  N   UNL     1       7.765   6.129  15.905  0.00  0.00    +0.000 NA
ATOM     16  O   UNL     1       7.190   5.524  14.809  0.00  0.00    +0.000 OA
ATOM     17  C   UNL     1       6.080   4.835  15.189  0.00  0.00    +0.000 A 
ATOM     18  C   UNL     1       5.352   4.168  14.088  0.00  0.00    +0.000 C 
ATOM     19  C   UNL     1       5.916   4.953  16.558  0.00  0.00    +0.000 A 
ENDBRANCH   1  19
BRANCH   9  20
ATOM     20  C   UNL     1       1.745   7.314  21.235  0.00  0.00    +0.000 C 
BRANCH  20  21
ATOM     21  C   UNL     1       1.006   8.628  21.061  0.00  0.00    +0.000 A 
ATOM     22  C   UNL     1       0.937   9.280  19.817  0.00  0.00    +0.000 A 
ATOM     23  C   UNL     1       0.222  10.476  19.677  0.00  0.00    +0.000 A 
ATOM     24  C   UNL     1      -0.437  11.033  20.772  0.00  0.00    +0.000 A 
ATOM     25  C   UNL     1      -0.395  10.387  22.004  0.00  0.00    +0.000 A 
ATOM     26  C   UNL     1       0.321   9.194  22.147  0.00  0.00    +0.000 A 
ENDBRANCH  20  21
ENDBRANCH   9  20
TORSDOF 3
ENDMDL
MODEL 3
REMARK VINA RESULT:      -8.6      0.711      1.210
REMARK  Name = 
REMARK  5 active torsions:
REMARK  status: ('A' for Active; 'I' for Inactive)
REMARK    1  A    between atoms: C_1  and  C_2
REMARK    2  A    between atoms: C_5  and  C_6
REMARK    3  A    between atoms: C_7  and  C_8
REMARK    4  A    between atoms: N_16  and  C_17
REMARK    5  A    between atoms: C_17  and  C_18
REMARK                            x       y       z     vdW  Elec       q    Type
REMARK                         _______ _______ _______ _____ _____    ______ ____
ROOT
ATOM      1  C   UNL     1       5.104   4.708  17.755  0.00  0.00    +0.000 A 
ATOM      2  C   UNL     1       5.040   3.344  18.026  0.00  0.00    +0.000 A 
ATOM      3  C   UNL     1       4.076   2.849  18.900  0.00  0.00    +0.000 A 
ATOM      4  C   UNL     1       3.133   3.672  19.512  0.00  0.00    +0.000 A 
ATOM      5  N   UNL     1       2.248   3.097  20.317  0.00  0.00    +0.000 NA
ATOM      6  C   UNL     1       1.355   3.907  20.895  0.00  0.00    +0.000 A 
ATOM      7  N   UNL     1       1.280   5.238  20.744  0.00  0.00    +0.000 NA
ATOM      8  C   UNL     1       2.165   5.818  19.915  0.00  0.00    +0.000 A 
ATOM      9  N   UNL     1       2.034   7.195  19.744  0.00  0.00    +0.000 N 
ATOM     10  C   UNL     1       3.157   5.056  19.252  0.00  0.00    +0.000 A 
ATOM     11  C   UNL     1       4.165   5.549  18.381  0.00  0.00    +0.000 A 
ATOM     12  H   UNL     1       2.609   7.691  19.082  0.00  0.00    +0.000 HD
ENDROOT
BRANCH   1  19
ATOM     13  C   UNL     1       5.418   4.232  14.502  0.00  0.00    +0.000 C 
ATOM     14  C   UNL     1       6.221   5.077  15.420  0.00  0.00    +0.000 A 
ATOM     15  N   UNL     1       7.267   5.759  14.939  0.00  0.00    +0.000 NA
ATOM     16  O   UNL     1       7.848   6.373  16.028  0.00  0.00    +0.000 OA
ATOM     17  C   UNL     1       7.157   6.065  17.158  0.00  0.00    +0.000 A 
ATOM     18  C   UNL     1       7.708   6.639  18.404  0.00  0.00    +0.000 C 
ATOM     19  C   UNL     1       6.084   5.255  16.829  0.00  0.00    +0.000 A 
ENDBRANCH   1  19
BRANCH   9  20
ATOM     20  C   UNL     1       1.460   7.958  20.849  0.00  0.00    +0.000 C 
BRANCH  20  21
ATOM     21  C   UNL     1       0.964   9.325  20.413  0.00  0.00    +0.000 A 
ATOM     22  C   UNL     1       0.850   9.672  19.056  0.00  0.00    +0.000 A 
ATOM     23  C   UNL     1       0.361  10.930  18.679  0.00  0.00    +0.000 A 
ATOM     24  C   UNL     1      -0.025  11.852  19.650  0.00  0.00    +0.000 A 
ATOM     25  C   UNL     1       0.062  11.513  20.997  0.00  0.00    +0.000 A 
ATOM     26  C   UNL     1       0.553  10.260  21.376  0.00  0.00    +0.000 A 
ENDBRANCH  20  21
ENDBRANCH   9  20
TORSDOF 3
ENDMDL
MODEL 4
REMARK VINA RESULT:      -8.3      0.741      1.753
REMARK  Name = 
REMARK  5 active torsions:
REMARK  status: ('A' for Active; 'I' for Inactive)
REMARK    1  A    between atoms: C_1  and  C_2
REMARK    2  A    between atoms: C_5  and  C_6
REMARK    3  A    between atoms: C_7  and  C_8
REMARK    4  A    between atoms: N_16  and  C_17
REMARK    5  A    between atoms: C_17  and  C_18
REMARK                            x       y       z     vdW  Elec       q    Type
REMARK                         _______ _______ _______ _____ _____    ______ ____
ROOT
ATOM      1  C   UNL     1       5.060   4.579  17.731  0.00  0.00    +0.000 A 
ATOM      2  C   UNL     1       4.949   3.206  17.928  0.00  0.00    +0.000 A 
ATOM      3  C   UNL     1       3.950   2.697  18.754  0.00  0.00    +0.000 A 
ATOM      4  C   UNL     1       3.019   3.516  19.388  0.00  0.00    +0.000 A 
ATOM      5  N   UNL     1       2.098   2.930  20.143  0.00  0.00    +0.000 NA
ATOM      6  C   UNL     1       1.218   3.736  20.743  0.00  0.00    +0.000 A 
ATOM      7  N   UNL     1       1.187   5.074  20.661  0.00  0.00    +0.000 NA
ATOM      8  C   UNL     1       2.108   5.669  19.883  0.00  0.00    +0.000 A 
ATOM      9  N   UNL     1       2.023   7.056  19.782  0.00  0.00    +0.000 N 
ATOM     10  C   UNL     1       3.091   4.911  19.203  0.00  0.00    +0.000 A 
ATOM     11  C   UNL     1       4.134   5.416  18.380  0.00  0.00    +0.000 A 
ATOM     12  H   UNL     1       2.629   7.567  19.160  0.00  0.00    +0.000 HD
ENDROOT
BRANCH   1  19
ATOM     13  C   UNL     1       7.589   6.575  18.459  0.00  0.00    +0.000 C 
ATOM     14  C   UNL     1       7.187   5.988  17.157  0.00  0.00    +0.000 A 
ATOM     15  N   UNL     1       7.887   6.288  16.057  0.00  0.00    +0.000 NA
ATOM     16  O   UNL     1       7.234   5.667  15.014  0.00  0.00    +0.000 OA
ATOM     17  C   UNL     1       6.147   4.997  15.482  0.00  0.00    +0.000 A 
ATOM     18  C   UNL     1       5.340   4.316  14.447  0.00  0.00    +0.000 C 
ATOM     19  C   UNL     1       6.077   5.143  16.856  0.00  0.00    +0.000 A 
ENDBRANCH   1  19
BRANCH   9  20
ATOM     20  C   UNL     1       1.447   7.778  20.913  0.00  0.00    +0.000 C 
BRANCH  20  21
ATOM     21  C   UNL     1       1.037   9.193  20.549  0.00  0.00    +0.000 A 
ATOM     22  C   UNL     1       0.685  10.138  21.529  0.00  0.00    +0.000 A 
ATOM     23  C   UNL     1       0.340  11.447  21.168  0.00  0.00    +0.000 A 
ATOM     24  C   UNL     1       0.348  11.831  19.828  0.00  0.00    +0.000 A 
ATOM     25  C   UNL     1       0.716  10.912  18.849  0.00  0.00    +0.000 A 
ATOM     26  C   UNL     1       1.057   9.604  19.207  0.00  0.00    +0.000 A 
ENDBRANCH  20  21
ENDBRANCH   9  20
TORSDOF 3
ENDMDL
MODEL 5
REMARK VINA RESULT:      -8.1      1.334      1.936
REMARK  Name = 
REMARK  5 active torsions:
REMARK  status: ('A' for Active; 'I' for Inactive)
REMARK    1  A    between atoms: C_1  and  C_2
REMARK    2  A    between atoms: C_5  and  C_6
REMARK    3  A    between atoms: C_7  and  C_8
REMARK    4  A    between atoms: N_16  and  C_17
REMARK    5  A    between atoms: C_17  and  C_18
REMARK                            x       y       z     vdW  Elec       q    Type
REMARK                         _______ _______ _______ _____ _____    ______ ____
ROOT
ATOM      1  C   UNL     1       5.236   5.258  17.831  0.00  0.00    +0.000 A 
ATOM      2  C   UNL     1       5.190   4.013  18.452  0.00  0.00    +0.000 A 
ATOM      3  C   UNL     1       4.225   3.751  19.422  0.00  0.00    +0.000 A 
ATOM      4  C   UNL     1       3.265   4.691  19.790  0.00  0.00    +0.000 A 
ATOM      5  N   UNL     1       2.381   4.336  20.714  0.00  0.00    +0.000 NA
ATOM      6  C   UNL     1       1.472   5.255  21.053  0.00  0.00    +0.000 A 
ATOM      7  N   UNL     1       1.379   6.497  20.555  0.00  0.00    +0.000 NA
ATOM      8  C   UNL     1       2.263   6.852  19.607  0.00  0.00    +0.000 A 
ATOM      9  N   UNL     1       2.114   8.132  19.077  0.00  0.00    +0.000 N 
ATOM     10  C   UNL     1       3.271   5.958  19.174  0.00  0.00    +0.000 A 
ATOM     11  C   UNL     1       4.280   6.219  18.208  0.00  0.00    +0.000 A 
ATOM     12  H   UNL     1       2.688   8.445  18.311  0.00  0.00    +0.000 HD
ENDROOT
BRANCH   1  19
ATOM     13  C   UNL     1       5.625   3.900  14.846  0.00  0.00    +0.000 C 
ATOM     14  C   UNL     1       6.385   4.996  15.497  0.00  0.00    +0.000 A 
ATOM     15  N   UNL     1       7.419   5.551  14.854  0.00  0.00    +0.000 NA
ATOM     16  O   UNL     1       7.961   6.465  15.732  0.00  0.00    +0.000 OA
ATOM     17  C   UNL     1       7.258   6.462  16.896  0.00  0.00    +0.000 A 
ATOM     18  C   UNL     1       7.769   7.381  17.937  0.00  0.00    +0.000 C 
ATOM     19  C   UNL     1       6.216   5.557  16.798  0.00  0.00    +0.000 A 
ENDBRANCH   1  19
BRANCH   9  20
ATOM     20  C   UNL     1       1.519   9.151  19.939  0.00  0.00    +0.000 C 
BRANCH  20  21
ATOM     21  C   UNL     1       0.325   9.831  19.293  0.00  0.00    +0.000 A 
ATOM     22  C   UNL     1      -0.087   9.517  17.986  0.00  0.00    +0.000 A 
ATOM     23  C   UNL     1      -1.211  10.136  17.424  0.00  0.00    +0.000 A 
ATOM     24  C   UNL     1      -1.939  11.070  18.159  0.00  0.00    +0.000 A 
ATOM     25  C   UNL     1      -1.555  11.374  19.462  0.00  0.00    +0.000 A 
ATOM     26  C   UNL     1      -0.431  10.759  20.024  0.00  0.00    +0.000 A 
ENDBRANCH  20  21
ENDBRANCH   9  20
TORSDOF 3
ENDMDL
MODEL 6
REMARK VINA RESULT:      -8.0      2.704      6.868
REMARK  Name = 
REMARK  5 active torsions:
REMARK  status: ('A' for Active; 'I' for Inactive)
REMARK    1  A    between atoms: C_1  and  C_2
REMARK    2  A    between atoms: C_5  and  C_6
REMARK    3  A    between atoms: C_7  and  C_8
REMARK    4  A    between atoms: N_16  and  C_17
REMARK    5  A    between atoms: C_17  and  C_18
REMARK                            x       y       z     vdW  Elec       q    Type
REMARK                         _______ _______ _______ _____ _____    ______ ____
ROOT
ATOM      1  C   UNL     1       1.889   6.906  20.125  0.00  0.00    +0.000 A 
ATOM      2  C   UNL     1       1.002   5.933  20.575  0.00  0.00    +0.000 A 
ATOM      3  C   UNL     1       1.395   4.598  20.627  0.00  0.00    +0.000 A 
ATOM      4  C   UNL     1       2.675   4.185  20.265  0.00  0.00    +0.000 A 
ATOM      5  N   UNL     1       2.954   2.891  20.365  0.00  0.00    +0.000 NA
ATOM      6  C   UNL     1       4.187   2.518  20.009  0.00  0.00    +0.000 A 
ATOM      7  N   UNL     1       5.157   3.324  19.554  0.00  0.00    +0.000 NA
ATOM      8  C   UNL     1       4.882   4.637  19.469  0.00  0.00    +0.000 A 
ATOM      9  N   UNL     1       5.923   5.456  19.035  0.00  0.00    +0.000 N 
ATOM     10  C   UNL     1       3.607   5.143  19.817  0.00  0.00    +0.000 A 
ATOM     11  C   UNL     1       3.180   6.496  19.743  0.00  0.00    +0.000 A 
ATOM     12  H   UNL     1       5.820   6.457  19.016  0.00  0.00    +0.000 HD
ENDROOT
BRANCH   1  19
ATOM     13  C   UNL     1       1.738   8.959  17.543  0.00  0.00    +0.000 C 
ATOM     14  C   UNL     1       1.427   9.207  18.972  0.00  0.00    +0.000 A 
ATOM     15  N   UNL     1       1.050  10.431  19.360  0.00  0.00    +0.000 NA
ATOM     16  O   UNL     1       0.913  10.366  20.730  0.00  0.00    +0.000 OA
ATOM     17  C   UNL     1       1.205   9.111  21.166  0.00  0.00    +0.000 A 
ATOM     18  C   UNL     1       1.129   8.925  22.631  0.00  0.00    +0.000 C 
ATOM     19  C   UNL     1       1.518   8.312  20.080  0.00  0.00    +0.000 A 
ENDBRANCH   1  19
BRANCH   9  20
ATOM     20  C   UNL     1       6.923   4.860  18.152  0.00  0.00    +0.000 C 
BRANCH  20  21
ATOM     21  C   UNL     1       6.506   4.905  16.693  0.00  0.00    +0.000 A 
ATOM     22  C   UNL     1       6.858   3.886  15.791  0.00  0.00    +0.000 A 
ATOM     23  C   UNL     1       6.435   3.935  14.457  0.00  0.00    +0.000 A 
ATOM     24  C   UNL     1       5.651   4.997  14.008  0.00  0.00    +0.000 A 
ATOM     25  C   UNL     1       5.277   6.002  14.895  0.00  0.00    +0.000 A 
ATOM     26  C   UNL     1       5.701   5.956  16.227  0.00  0.00    +0.000 A 
ENDBRANCH  20  21
ENDBRANCH   9  20
TORSDOF 3
ENDMDL
MODEL 7
REMARK VINA RESULT:      -7.9      2.594      7.015
REMARK  Name = 
REMARK  5 active torsions:
REMARK  status: ('A' for Active; 'I' for Inactive)
REMARK    1  A    between atoms: C_1  and  C_2
REMARK    2  A    between atoms: C_5  and  C_6
REMARK    3  A    between atoms: C_7  and  C_8
REMARK    4  A    between atoms: N_16  and  C_17
REMARK    5  A    between atoms: C_17  and  C_18
REMARK                            x       y       z     vdW  Elec       q    Type
REMARK                         _______ _______ _______ _____ _____    ______ ____
ROOT
ATOM      1  C   UNL     1       1.890   6.931  20.142  0.00  0.00    +0.000 A 
ATOM      2  C   UNL     1       0.993   5.959  20.577  0.00  0.00    +0.000 A 
ATOM      3  C   UNL     1       1.377   4.622  20.616  0.00  0.00    +0.000 A 
ATOM      4  C   UNL     1       2.656   4.203  20.255  0.00  0.00    +0.000 A 
ATOM      5  N   UNL     1       2.925   2.906  20.342  0.00  0.00    +0.000 NA
ATOM      6  C   UNL     1       4.157   2.528  19.987  0.00  0.00    +0.000 A 
ATOM      7  N   UNL     1       5.135   3.333  19.546  0.00  0.00    +0.000 NA
ATOM      8  C   UNL     1       4.869   4.649  19.474  0.00  0.00    +0.000 A 
ATOM      9  N   UNL     1       5.918   5.464  19.055  0.00  0.00    +0.000 N 
ATOM     10  C   UNL     1       3.596   5.159  19.822  0.00  0.00    +0.000 A 
ATOM     11  C   UNL     1       3.179   6.516  19.761  0.00  0.00    +0.000 A 
ATOM     12  H   UNL     1       5.823   6.467  19.047  0.00  0.00    +0.000 HD
ENDROOT
BRANCH   1  19
ATOM     13  C   UNL     1       0.834   8.886  22.586  0.00  0.00    +0.000 C 
ATOM     14  C   UNL     1       1.092   9.204  21.160  0.00  0.00    +0.000 A 
ATOM     15  N   UNL     1       0.857  10.442  20.710  0.00  0.00    +0.000 NA
ATOM     16  O   UNL     1       1.110  10.404  19.356  0.00  0.00    +0.000 OA
ATOM     17  C   UNL     1       1.496   9.152  18.991  0.00  0.00    +0.000 A 
ATOM     18  C   UNL     1       1.762   8.976  17.547  0.00  0.00    +0.000 C 
ATOM     19  C   UNL     1       1.529   8.340  20.111  0.00  0.00    +0.000 A 
ENDBRANCH   1  19
BRANCH   9  20
ATOM     20  C   UNL     1       6.918   4.872  18.170  0.00  0.00    +0.000 C 
BRANCH  20  21
ATOM     21  C   UNL     1       6.494   4.908  16.712  0.00  0.00    +0.000 A 
ATOM     22  C   UNL     1       6.858   3.892  15.811  0.00  0.00    +0.000 A 
ATOM     23  C   UNL     1       6.428   3.932  14.478  0.00  0.00    +0.000 A 
ATOM     24  C   UNL     1       5.627   4.982  14.031  0.00  0.00    +0.000 A 
ATOM     25  C   UNL     1       5.241   5.982  14.918  0.00  0.00    +0.000 A 
ATOM     26  C   UNL     1       5.672   5.946  16.248  0.00  0.00    +0.000 A 
ENDBRANCH  20  21
ENDBRANCH   9  20
TORSDOF 3
ENDMDL
MODEL 8
REMARK VINA RESULT:      -7.9      1.277      1.702
REMARK  Name = 
REMARK  5 active torsions:
REMARK  status: ('A' for Active; 'I' for Inactive)
REMARK    1  A    between atoms: C_1  and  C_2
REMARK    2  A    between atoms: C_5  and  C_6
REMARK    3  A    between atoms: C_7  and  C_8
REMARK    4  A    between atoms: N_16  and  C_17
REMARK    5  A    between atoms: C_17  and  C_18
REMARK                            x       y       z     vdW  Elec       q    Type
REMARK                         _______ _______ _______ _____ _____    ______ ____
ROOT
ATOM      1  C   UNL     1       5.200   4.996  18.617  0.00  0.00    +0.000 A 
ATOM      2  C   UNL     1       5.197   3.605  18.551  0.00  0.00    +0.000 A 
ATOM      3  C   UNL     1       4.133   2.882  19.083  0.00  0.00    +0.000 A 
ATOM      4  C   UNL     1       3.032   3.502  19.671  0.00  0.00    +0.000 A 
ATOM      5  N   UNL     1       2.064   2.721  20.135  0.00  0.00    +0.000 NA
ATOM      6  C   UNL     1       1.019   3.338  20.697  0.00  0.00    +0.000 A 
ATOM      7  N   UNL     1       0.867   4.662  20.841  0.00  0.00    +0.000 NA
ATOM      8  C   UNL     1       1.839   5.455  20.356  0.00  0.00    +0.000 A 
ATOM      9  N   UNL     1       1.632   6.827  20.482  0.00  0.00    +0.000 N 
ATOM     10  C   UNL     1       2.992   4.908  19.744  0.00  0.00    +0.000 A 
ATOM     11  C   UNL     1       4.099   5.629  19.222  0.00  0.00    +0.000 A 
ATOM     12  H   UNL     1       2.277   7.486  20.078  0.00  0.00    +0.000 HD
ENDROOT
BRANCH   1  19
ATOM     13  C   UNL     1       5.415   6.462  15.666  0.00  0.00    +0.000 C 
ATOM     14  C   UNL     1       6.386   6.440  16.788  0.00  0.00    +0.000 A 
ATOM     15  N   UNL     1       7.564   7.059  16.650  0.00  0.00    +0.000 NA
ATOM     16  O   UNL     1       8.264   6.796  17.808  0.00  0.00    +0.000 OA
ATOM     17  C   UNL     1       7.514   6.024  18.639  0.00  0.00    +0.000 A 
ATOM     18  C   UNL     1       8.175   5.644  19.905  0.00  0.00    +0.000 C 
ATOM     19  C   UNL     1       6.285   5.782  18.050  0.00  0.00    +0.000 A 
ENDBRANCH   1  19
BRANCH   9  20
ATOM     20  C   UNL     1       0.808   7.282  21.599  0.00  0.00    +0.000 C 
BRANCH  20  21
ATOM     21  C   UNL     1       0.486   8.764  21.514  0.00  0.00    +0.000 A 
ATOM     22  C   UNL     1       0.779   9.520  20.366  0.00  0.00    +0.000 A 
ATOM     23  C   UNL     1       0.444  10.879  20.301  0.00  0.00    +0.000 A 
ATOM     24  C   UNL     1      -0.193  11.497  21.376  0.00  0.00    +0.000 A 
ATOM     25  C   UNL     1      -0.510  10.754  22.510  0.00  0.00    +0.000 A 
ATOM     26  C   UNL     1      -0.173   9.399  22.578  0.00  0.00    +0.000 A 
ENDBRANCH  20  21
ENDBRANCH   9  20
TORSDOF 3
ENDMDL
MODEL 9
REMARK VINA RESULT:      -7.8      7.410     10.026
REMARK  Name = 
REMARK  5 active torsions:
REMARK  status: ('A' for Active; 'I' for Inactive)
REMARK    1  A    between atoms: C_1  and  C_2
REMARK    2  A    between atoms: C_5  and  C_6
REMARK    3  A    between atoms: C_7  and  C_8
REMARK    4  A    between atoms: N_16  and  C_17
REMARK    5  A    between atoms: C_17  and  C_18
REMARK                            x       y       z     vdW  Elec       q    Type
REMARK                         _______ _______ _______ _____ _____    ______ ____
ROOT
ATOM      1  C   UNL     1      -0.963  12.164  20.107  0.00  0.00    +0.000 A 
ATOM      2  C   UNL     1      -0.041  11.309  19.511  0.00  0.00    +0.000 A 
ATOM      3  C   UNL     1      -0.400  10.566  18.389  0.00  0.00    +0.000 A 
ATOM      4  C   UNL     1      -1.661  10.660  17.806  0.00  0.00    +0.000 A 
ATOM      5  N   UNL     1      -1.897   9.920  16.730  0.00  0.00    +0.000 NA
ATOM      6  C   UNL     1      -3.116  10.025  16.189  0.00  0.00    +0.000 A 
ATOM      7  N   UNL     1      -4.116  10.796  16.639  0.00  0.00    +0.000 NA
ATOM      8  C   UNL     1      -3.873  11.560  17.719  0.00  0.00    +0.000 A 
ATOM      9  N   UNL     1      -4.917  12.383  18.135  0.00  0.00    +0.000 N 
ATOM     10  C   UNL     1      -2.618  11.525  18.372  0.00  0.00    +0.000 A 
ATOM     11  C   UNL     1      -2.245  12.254  19.534  0.00  0.00    +0.000 A 
ATOM     12  H   UNL     1      -4.789  13.039  18.889  0.00  0.00    +0.000 HD
ENDROOT
BRANCH   1  19
ATOM     13  C   UNL     1      -1.934  11.862  23.249  0.00  0.00    +0.000 C 
ATOM     14  C   UNL     1      -1.007  12.842  22.632  0.00  0.00    +0.000 A 
ATOM     15  N   UNL     1      -0.463  13.800  23.391  0.00  0.00    +0.000 NA
ATOM     16  O   UNL     1       0.273  14.588  22.532  0.00  0.00    +0.000 OA
ATOM     17  C   UNL     1       0.175  14.108  21.264  0.00  0.00    +0.000 A 
ATOM     18  C   UNL     1       0.897  14.894  20.240  0.00  0.00    +0.000 C 
ATOM     19  C   UNL     1      -0.614  12.971  21.266  0.00  0.00    +0.000 A 
ENDBRANCH   1  19
BRANCH   9  20
ATOM     20  C   UNL     1      -6.278  11.941  17.845  0.00  0.00    +0.000 C 
BRANCH  20  21
ATOM     21  C   UNL     1      -6.867  11.104  18.966  0.00  0.00    +0.000 A 
ATOM     22  C   UNL     1      -6.847   9.699  18.929  0.00  0.00    +0.000 A 
ATOM     23  C   UNL     1      -7.369   8.950  19.991  0.00  0.00    +0.000 A 
ATOM     24  C   UNL     1      -7.910   9.591  21.104  0.00  0.00    +0.000 A 
ATOM     25  C   UNL     1      -7.916  10.982  21.164  0.00  0.00    +0.000 A 
ATOM     26  C   UNL     1      -7.399  11.732  20.103  0.00  0.00    +0.000 A 
ENDBRANCH  20  21
ENDBRANCH   9  20
TORSDOF 3
ENDMDL
