MODEL 1
REMARK VINA RESULT:      -7.9      0.000      0.000
REMARK  Name = 
REMARK  10 active torsions:
REMARK  status: ('A' for Active; 'I' for Inactive)
REMARK    1  A    between atoms: C_1  and  O_2
REMARK    2  A    between atoms: O_2  and  C_3
REMARK    3  A    between atoms: C_7  and  C_8
REMARK    4  A    between atoms: C_10  and  C_11
REMARK    5  A    between atoms: C_16  and  C_17
REMARK    6  A    between atoms: C_17  and  C_18
REMARK    7  A    between atoms: C_17  and  C_22
REMARK    8  A    between atoms: C_18  and  C_19
REMARK    9  A    between atoms: C_19  and  O_21
REMARK   10  A    between atoms: C_25  and  C_26
REMARK                            x       y       z     vdW  Elec       q    Type
REMARK                         _______ _______ _______ _____ _____    ______ ____
ROOT
ATOM      1  C   UNL     1       3.239   5.503  18.599  0.00  0.00    +0.000 A 
ATOM      2  C   UNL     1       2.672   6.767  18.360  0.00  0.00    +0.000 A 
ATOM      3  C   UNL     1       3.321   7.724  17.577  0.00  0.00    +0.000 A 
ATOM      4 CL   UNL     1       2.527   9.211  17.222  0.00  0.00    +0.000 Cl
ATOM      5  C   UNL     1       4.596   7.488  17.069  0.00  0.00    +0.000 A 
ATOM      6  C   UNL     1       5.247   6.284  17.354  0.00  0.00    +0.000 A 
ATOM      7  C   UNL     1       4.535   5.302  18.078  0.00  0.00    +0.000 A 
ENDROOT
BRANCH   1  13
ATOM      8  C   UNL     1       2.587   3.051  18.913  0.00  0.00    +0.000 A 
ATOM      9  C   UNL     1       1.938   2.024  19.619  0.00  0.00    +0.000 A 
ATOM     10  C   UNL     1       1.186   2.306  20.751  0.00  0.00    +0.000 A 
ATOM     11  C   UNL     1       1.060   3.621  21.174  0.00  0.00    +0.000 A 
ATOM     12  C   UNL     1       1.678   4.671  20.466  0.00  0.00    +0.000 A 
ATOM     13  C   UNL     1       2.493   4.416  19.326  0.00  0.00    +0.000 A 
BRANCH   8  15
ATOM     14  C   UNL     1       3.962   1.429  17.839  0.00  0.00    +0.000 C 
ATOM     15  O   UNL     1       3.417   2.747  17.855  0.00  0.00    +0.000 OA
ENDBRANCH   8  15
BRANCH  12  16
ATOM     16  C   UNL     1       1.404   5.995  20.961  0.00  0.00    +0.000 C 
ATOM     17  N   UNL     1       1.222   7.063  21.379  0.00  0.00    +0.000 NA
ENDBRANCH  12  16
ENDBRANCH   1  13
BRANCH   6  18
ATOM     18  C   UNL     1       6.683   5.987  16.903  0.00  0.00    +0.000 C 
BRANCH  18  19
ATOM     19  C   UNL     1       6.748   5.340  15.523  0.00  0.00    +0.000 A 
ATOM     20  N   UNL     1       7.730   5.544  14.663  0.00  0.00    +0.000 NA
ATOM     21  C   UNL     1       7.499   4.831  13.509  0.00  0.00    +0.000 A 
ATOM     22  C   UNL     1       6.331   4.092  13.485  0.00  0.00    +0.000 A 
ATOM     23  C   UNL     1       5.788   3.237  12.395  0.00  0.00    +0.000 C 
ATOM     24  S   UNL     1       5.504   4.284  14.972  0.00  0.00    +0.000 S 
ENDBRANCH  18  19
BRANCH  18  25
ATOM     25  C   UNL     1       7.427   5.073  17.893  0.00  0.00    +0.000 C 
BRANCH  25  26
ATOM     26  C   UNL     1       7.852   5.767  19.159  0.00  0.00    +0.000 C 
ATOM     27  O   UNL     1       7.699   5.329  20.288  0.00  0.00    +0.000 OA
BRANCH  26  28
ATOM     28  O   UNL     1       8.367   6.999  18.934  0.00  0.00    +0.000 OA
ATOM     29  H   UNL     1       8.268   7.311  18.014  0.00  0.00    +0.000 HD
ENDBRANCH  26  28
ENDBRANCH  25  26
ENDBRANCH  18  25
ENDBRANCH   6  18
TORSDOF 8
ENDMDL
MODEL 2
REMARK VINA RESULT:      -7.8      6.806      8.830
REMARK  Name = 
REMARK  10 active torsions:
REMARK  status: ('A' for Active; 'I' for Inactive)
REMARK    1  A    between atoms: C_1  and  O_2
REMARK    2  A    between atoms: O_2  and  C_3
REMARK    3  A    between atoms: C_7  and  C_8
REMARK    4  A    between atoms: C_10  and  C_11
REMARK    5  A    between atoms: C_16  and  C_17
REMARK    6  A    between atoms: C_17  and  C_18
REMARK    7  A    between atoms: C_17  and  C_22
REMARK    8  A    between atoms: C_18  and  C_19
REMARK    9  A    between atoms: C_19  and  O_21
REMARK   10  A    between atoms: C_25  and  C_26
REMARK                            x       y       z     vdW  Elec       q    Type
REMARK                         _______ _______ _______ _____ _____    ______ ____
ROOT
ATOM      1  C   UNL     1      -1.666  11.960  18.997  0.00  0.00    +0.000 A 
ATOM      2  C   UNL     1      -0.882  13.101  18.757  0.00  0.00    +0.000 A 
ATOM      3  C   UNL     1       0.483  13.126  19.050  0.00  0.00    +0.000 A 
ATOM      4 CL   UNL     1       1.418  14.510  18.627  0.00  0.00    +0.000 Cl
ATOM      5  C   UNL     1       1.102  12.043  19.668  0.00  0.00    +0.000 A 
ATOM      6  C   UNL     1       0.350  10.917  20.016  0.00  0.00    +0.000 A 
ATOM      7  C   UNL     1      -1.009  10.885  19.633  0.00  0.00    +0.000 A 
ENDROOT
BRANCH   1  13
ATOM      8  C   UNL     1      -3.455  11.457  17.241  0.00  0.00    +0.000 A 
ATOM      9  C   UNL     1      -4.796  11.320  16.844  0.00  0.00    +0.000 A 
ATOM     10  C   UNL     1      -5.829  11.578  17.735  0.00  0.00    +0.000 A 
ATOM     11  C   UNL     1      -5.528  11.995  19.023  0.00  0.00    +0.000 A 
ATOM     12  C   UNL     1      -4.192  12.168  19.435  0.00  0.00    +0.000 A 
ATOM     13  C   UNL     1      -3.105  11.871  18.563  0.00  0.00    +0.000 A 
BRANCH   8  15
ATOM     14  C   UNL     1      -2.804  10.257  15.288  0.00  0.00    +0.000 C 
ATOM     15  O   UNL     1      -2.438  11.096  16.382  0.00  0.00    +0.000 OA
ENDBRANCH   8  15
BRANCH  12  16
ATOM     16  C   UNL     1      -4.018  12.683  20.768  0.00  0.00    +0.000 C 
ATOM     17  N   UNL     1      -3.894  13.060  21.860  0.00  0.00    +0.000 NA
ENDBRANCH  12  16
ENDBRANCH   1  13
BRANCH   6  18
ATOM     18  C   UNL     1       0.942   9.722  20.775  0.00  0.00    +0.000 C 
BRANCH  18  19
ATOM     19  C   UNL     1       1.534   8.666  19.847  0.00  0.00    +0.000 A 
ATOM     20  N   UNL     1       1.803   8.878  18.571  0.00  0.00    +0.000 NA
ATOM     21  C   UNL     1       2.318   7.736  18.003  0.00  0.00    +0.000 A 
ATOM     22  C   UNL     1       2.429   6.646  18.846  0.00  0.00    +0.000 A 
ATOM     23  C   UNL     1       2.926   5.276  18.542  0.00  0.00    +0.000 C 
ATOM     24  S   UNL     1       1.886   7.078  20.411  0.00  0.00    +0.000 S 
ENDBRANCH  18  19
BRANCH  18  25
ATOM     25  C   UNL     1      -0.097   9.034  21.679  0.00  0.00    +0.000 C 
BRANCH  25  26
ATOM     26  C   UNL     1      -0.186   9.624  23.060  0.00  0.00    +0.000 C 
ATOM     27  O   UNL     1       0.677   9.540  23.920  0.00  0.00    +0.000 OA
BRANCH  26  28
ATOM     28  O   UNL     1      -1.382  10.210  23.304  0.00  0.00    +0.000 OA
ATOM     29  H   UNL     1      -2.114   9.578  23.445  0.00  0.00    +0.000 HD
ENDBRANCH  26  28
ENDBRANCH  25  26
ENDBRANCH  18  25
ENDBRANCH   6  18
TORSDOF 8
ENDMDL
MODEL 3
REMARK VINA RESULT:      -7.5      2.187      3.495
REMARK  Name = 
REMARK  10 active torsions:
REMARK  status: ('A' for Active; 'I' for Inactive)
REMARK    1  A    between atoms: C_1  and  O_2
REMARK    2  A    between atoms: O_2  and  C_3
REMARK    3  A    between atoms: C_7  and  C_8
REMARK    4  A    between atoms: C_10  and  C_11
REMARK    5  A    between atoms: C_16  and  C_17
REMARK    6  A    between atoms: C_17  and  C_18
REMARK    7  A    between atoms: C_17  and  C_22
REMARK    8  A    between atoms: C_18  and  C_19
REMARK    9  A    between atoms: C_19  and  O_21
REMARK   10  A    between atoms: C_25  and  C_26
REMARK                            x       y       z     vdW  Elec       q    Type
REMARK                         _______ _______ _______ _____ _____    ______ ____
ROOT
ATOM      1  C   UNL     1       3.018   5.740  18.551  0.00  0.00    +0.000 A 
ATOM      2  C   UNL     1       2.465   4.518  18.131  0.00  0.00    +0.000 A 
ATOM      3  C   UNL     1       3.212   3.589  17.404  0.00  0.00    +0.000 A 
ATOM      4 CL   UNL     1       2.520   2.059  17.016  0.00  0.00    +0.000 Cl
ATOM      5  C   UNL     1       4.513   3.875  16.999  0.00  0.00    +0.000 A 
ATOM      6  C   UNL     1       5.081   5.115  17.308  0.00  0.00    +0.000 A 
ATOM      7  C   UNL     1       4.334   6.002  18.115  0.00  0.00    +0.000 A 
ENDROOT
BRANCH   1  13
ATOM      8  C   UNL     1       2.040   8.046  19.062  0.00  0.00    +0.000 A 
ATOM      9  C   UNL     1       1.298   8.924  19.870  0.00  0.00    +0.000 A 
ATOM     10  C   UNL     1       0.755   8.494  21.072  0.00  0.00    +0.000 A 
ATOM     11  C   UNL     1       0.969   7.188  21.487  0.00  0.00    +0.000 A 
ATOM     12  C   UNL     1       1.735   6.298  20.709  0.00  0.00    +0.000 A 
ATOM     13  C   UNL     1       2.270   6.690  19.449  0.00  0.00    +0.000 A 
BRANCH   8  15
ATOM     14  C   UNL     1       2.454   9.857  17.570  0.00  0.00    +0.000 C 
ATOM     15  O   UNL     1       2.483   8.453  17.822  0.00  0.00    +0.000 OA
ENDBRANCH   8  15
BRANCH  12  16
ATOM     16  C   UNL     1       1.950   4.998  21.289  0.00  0.00    +0.000 C 
ATOM     17  N   UNL     1       2.150   3.968  21.788  0.00  0.00    +0.000 NA
ENDBRANCH  12  16
ENDBRANCH   1  13
BRANCH   6  18
ATOM     18  C   UNL     1       6.474   5.537  16.824  0.00  0.00    +0.000 C 
BRANCH  18  19
ATOM     19  C   UNL     1       6.761   5.101  15.391  0.00  0.00    +0.000 A 
ATOM     20  N   UNL     1       7.773   5.555  14.674  0.00  0.00    +0.000 NA
ATOM     21  C   UNL     1       7.759   4.982  13.424  0.00  0.00    +0.000 A 
ATOM     22  C   UNL     1       6.723   4.098  13.183  0.00  0.00    +0.000 A 
ATOM     23  C   UNL     1       6.417   3.333  11.943  0.00  0.00    +0.000 C 
ATOM     24  S   UNL     1       5.746   3.968  14.583  0.00  0.00    +0.000 S 
ENDBRANCH  18  19
BRANCH  18  25
ATOM     25  C   UNL     1       7.594   4.984  17.724  0.00  0.00    +0.000 C 
BRANCH  25  26
ATOM     26  C   UNL     1       7.786   5.757  19.001  0.00  0.00    +0.000 C 
ATOM     27  O   UNL     1       7.439   5.383  20.109  0.00  0.00    +0.000 OA
BRANCH  26  28
ATOM     28  O   UNL     1       8.325   6.982  18.796  0.00  0.00    +0.000 OA
ATOM     29  H   UNL     1       7.669   7.704  18.753  0.00  0.00    +0.000 HD
ENDBRANCH  26  28
ENDBRANCH  25  26
ENDBRANCH  18  25
ENDBRANCH   6  18
TORSDOF 8
ENDMDL
MODEL 4
REMARK VINA RESULT:      -7.4      6.923      9.111
REMARK  Name = 
REMARK  10 active torsions:
REMARK  status: ('A' for Active; 'I' for Inactive)
REMARK    1  A    between atoms: C_1  and  O_2
REMARK    2  A    between atoms: O_2  and  C_3
REMARK    3  A    between atoms: C_7  and  C_8
REMARK    4  A    between atoms: C_10  and  C_11
REMARK    5  A    between atoms: C_16  and  C_17
REMARK    6  A    between atoms: C_17  and  C_18
REMARK    7  A    between atoms: C_17  and  C_22
REMARK    8  A    between atoms: C_18  and  C_19
REMARK    9  A    between atoms: C_19  and  O_21
REMARK   10  A    between atoms: C_25  and  C_26
REMARK                            x       y       z     vdW  Elec       q    Type
REMARK                         _______ _______ _______ _____ _____    ______ ____
ROOT
ATOM      1  C   UNL     1      -1.638  11.862  19.095  0.00  0.00    +0.000 A 
ATOM      2  C   UNL     1      -0.783  12.878  18.636  0.00  0.00    +0.000 A 
ATOM      3  C   UNL     1       0.603  12.789  18.782  0.00  0.00    +0.000 A 
ATOM      4 CL   UNL     1       1.609  14.008  18.097  0.00  0.00    +0.000 Cl
ATOM      5  C   UNL     1       1.184  11.723  19.464  0.00  0.00    +0.000 A 
ATOM      6  C   UNL     1       0.373  10.731  20.024  0.00  0.00    +0.000 A 
ATOM      7  C   UNL     1      -1.018  10.802  19.789  0.00  0.00    +0.000 A 
ENDROOT
BRANCH   1  13
ATOM      8  C   UNL     1      -4.031  12.493  19.737  0.00  0.00    +0.000 A 
ATOM      9  C   UNL     1      -5.409  12.561  19.466  0.00  0.00    +0.000 A 
ATOM     10  C   UNL     1      -5.927  12.036  18.291  0.00  0.00    +0.000 A 
ATOM     11  C   UNL     1      -5.074  11.420  17.387  0.00  0.00    +0.000 A 
ATOM     12  C   UNL     1      -3.694  11.314  17.650  0.00  0.00    +0.000 A 
ATOM     13  C   UNL     1      -3.120  11.880  18.824  0.00  0.00    +0.000 A 
BRANCH   8  15
ATOM     14  C   UNL     1      -4.097  12.745  22.105  0.00  0.00    +0.000 C 
ATOM     15  O   UNL     1      -3.514  13.112  20.856  0.00  0.00    +0.000 OA
ENDBRANCH   8  15
BRANCH  12  16
ATOM     16  C   UNL     1      -2.933  10.581  16.671  0.00  0.00    +0.000 C 
ATOM     17  N   UNL     1      -2.290  10.024  15.881  0.00  0.00    +0.000 NA
ENDBRANCH  12  16
ENDBRANCH   1  13
BRANCH   6  18
ATOM     18  C   UNL     1       0.933   9.573  20.861  0.00  0.00    +0.000 C 
BRANCH  18  19
ATOM     19  C   UNL     1       1.540   8.464  20.006  0.00  0.00    +0.000 A 
ATOM     20  N   UNL     1       1.912   8.628  18.749  0.00  0.00    +0.000 NA
ATOM     21  C   UNL     1       2.411   7.447  18.250  0.00  0.00    +0.000 A 
ATOM     22  C   UNL     1       2.407   6.378  19.126  0.00  0.00    +0.000 A 
ATOM     23  C   UNL     1       2.858   4.978  18.894  0.00  0.00    +0.000 C 
ATOM     24  S   UNL     1       1.772   6.879  20.635  0.00  0.00    +0.000 S 
ENDBRANCH  18  19
BRANCH  18  25
ATOM     25  C   UNL     1      -0.136   8.943  21.770  0.00  0.00    +0.000 C 
BRANCH  25  26
ATOM     26  C   UNL     1      -0.360   9.693  23.056  0.00  0.00    +0.000 C 
ATOM     27  O   UNL     1      -1.311  10.421  23.291  0.00  0.00    +0.000 OA
BRANCH  26  28
ATOM     28  O   UNL     1       0.662   9.548  23.932  0.00  0.00    +0.000 OA
ATOM     29  H   UNL     1       0.389   9.557  24.870  0.00  0.00    +0.000 HD
ENDBRANCH  26  28
ENDBRANCH  25  26
ENDBRANCH  18  25
ENDBRANCH   6  18
TORSDOF 8
ENDMDL
MODEL 5
REMARK VINA RESULT:      -7.3      1.665      2.498
REMARK  Name = 
REMARK  10 active torsions:
REMARK  status: ('A' for Active; 'I' for Inactive)
REMARK    1  A    between atoms: C_1  and  O_2
REMARK    2  A    between atoms: O_2  and  C_3
REMARK    3  A    between atoms: C_7  and  C_8
REMARK    4  A    between atoms: C_10  and  C_11
REMARK    5  A    between atoms: C_16  and  C_17
REMARK    6  A    between atoms: C_17  and  C_18
REMARK    7  A    between atoms: C_17  and  C_22
REMARK    8  A    between atoms: C_18  and  C_19
REMARK    9  A    between atoms: C_19  and  O_21
REMARK   10  A    between atoms: C_25  and  C_26
REMARK                            x       y       z     vdW  Elec       q    Type
REMARK                         _______ _______ _______ _____ _____    ______ ____
ROOT
ATOM      1  C   UNL     1       3.161   5.470  18.691  0.00  0.00    +0.000 A 
ATOM      2  C   UNL     1       2.523   6.697  18.443  0.00  0.00    +0.000 A 
ATOM      3  C   UNL     1       3.107   7.676  17.636  0.00  0.00    +0.000 A 
ATOM      4 CL   UNL     1       2.228   9.112  17.272  0.00  0.00    +0.000 Cl
ATOM      5  C   UNL     1       4.385   7.502  17.112  0.00  0.00    +0.000 A 
ATOM      6  C   UNL     1       5.105   6.339  17.405  0.00  0.00    +0.000 A 
ATOM      7  C   UNL     1       4.458   5.331  18.153  0.00  0.00    +0.000 A 
ENDROOT
BRANCH   1  13
ATOM      8  C   UNL     1       2.129   4.502  20.821  0.00  0.00    +0.000 A 
ATOM      9  C   UNL     1       1.452   3.487  21.517  0.00  0.00    +0.000 A 
ATOM     10  C   UNL     1       1.100   2.304  20.882  0.00  0.00    +0.000 A 
ATOM     11  C   UNL     1       1.442   2.119  19.550  0.00  0.00    +0.000 A 
ATOM     12  C   UNL     1       2.148   3.111  18.840  0.00  0.00    +0.000 A 
ATOM     13  C   UNL     1       2.486   4.355  19.446  0.00  0.00    +0.000 A 
BRANCH   8  15
ATOM     14  C   UNL     1       1.351   6.697  21.325  0.00  0.00    +0.000 C 
ATOM     15  O   UNL     1       2.378   5.713  21.432  0.00  0.00    +0.000 OA
ENDBRANCH   8  15
BRANCH  12  16
ATOM     16  C   UNL     1       2.513   2.763  17.491  0.00  0.00    +0.000 C 
ATOM     17  N   UNL     1       2.780   2.448  16.406  0.00  0.00    +0.000 NA
ENDBRANCH  12  16
ENDBRANCH   1  13
BRANCH   6  18
ATOM     18  C   UNL     1       6.548   6.113  16.935  0.00  0.00    +0.000 C 
BRANCH  18  19
ATOM     19  C   UNL     1       6.628   5.425  15.576  0.00  0.00    +0.000 A 
ATOM     20  N   UNL     1       7.642   5.565  14.742  0.00  0.00    +0.000 NA
ATOM     21  C   UNL     1       7.418   4.829  13.601  0.00  0.00    +0.000 A 
ATOM     22  C   UNL     1       6.222   4.137  13.562  0.00  0.00    +0.000 A 
ATOM     23  C   UNL     1       5.677   3.273  12.479  0.00  0.00    +0.000 C 
ATOM     24  S   UNL     1       5.359   4.404  15.017  0.00  0.00    +0.000 S 
ENDBRANCH  18  19
BRANCH  18  25
ATOM     25  C   UNL     1       7.363   5.280  17.940  0.00  0.00    +0.000 C 
BRANCH  25  26
ATOM     26  C   UNL     1       7.944   6.087  19.070  0.00  0.00    +0.000 C 
ATOM     27  O   UNL     1       8.467   7.184  18.956  0.00  0.00    +0.000 OA
BRANCH  26  28
ATOM     28  O   UNL     1       7.905   5.434  20.255  0.00  0.00    +0.000 OA
ATOM     29  H   UNL     1       7.113   5.630  20.793  0.00  0.00    +0.000 HD
ENDBRANCH  26  28
ENDBRANCH  25  26
ENDBRANCH  18  25
ENDBRANCH   6  18
TORSDOF 8
ENDMDL
MODEL 6
REMARK VINA RESULT:      -7.2      6.804      9.079
REMARK  Name = 
REMARK  10 active torsions:
REMARK  status: ('A' for Active; 'I' for Inactive)
REMARK    1  A    between atoms: C_1  and  O_2
REMARK    2  A    between atoms: O_2  and  C_3
REMARK    3  A    between atoms: C_7  and  C_8
REMARK    4  A    between atoms: C_10  and  C_11
REMARK    5  A    between atoms: C_16  and  C_17
REMARK    6  A    between atoms: C_17  and  C_18
REMARK    7  A    between atoms: C_17  and  C_22
REMARK    8  A    between atoms: C_18  and  C_19
REMARK    9  A    between atoms: C_19  and  O_21
REMARK   10  A    between atoms: C_25  and  C_26
REMARK                            x       y       z     vdW  Elec       q    Type
REMARK                         _______ _______ _______ _____ _____    ______ ____
ROOT
ATOM      1  C   UNL     1      -1.475  11.677  19.018  0.00  0.00    +0.000 A 
ATOM      2  C   UNL     1      -0.559  12.586  18.463  0.00  0.00    +0.000 A 
ATOM      3  C   UNL     1       0.819  12.429  18.629  0.00  0.00    +0.000 A 
ATOM      4 CL   UNL     1       1.899  13.508  17.830  0.00  0.00    +0.000 Cl
ATOM      5  C   UNL     1       1.333  11.406  19.421  0.00  0.00    +0.000 A 
ATOM      6  C   UNL     1       0.462  10.528  20.074  0.00  0.00    +0.000 A 
ATOM      7  C   UNL     1      -0.922  10.658  19.822  0.00  0.00    +0.000 A 
ENDROOT
BRANCH   1  13
ATOM      8  C   UNL     1      -3.844  12.415  19.637  0.00  0.00    +0.000 A 
ATOM      9  C   UNL     1      -5.215  12.540  19.354  0.00  0.00    +0.000 A 
ATOM     10  C   UNL     1      -5.746  12.030  18.178  0.00  0.00    +0.000 A 
ATOM     11  C   UNL     1      -4.914  11.371  17.285  0.00  0.00    +0.000 A 
ATOM     12  C   UNL     1      -3.541  11.207  17.560  0.00  0.00    +0.000 A 
ATOM     13  C   UNL     1      -2.952  11.756  18.735  0.00  0.00    +0.000 A 
BRANCH   8  15
ATOM     14  C   UNL     1      -3.585  14.409  20.914  0.00  0.00    +0.000 C 
ATOM     15  O   UNL     1      -3.309  13.019  20.755  0.00  0.00    +0.000 OA
ENDBRANCH   8  15
BRANCH  12  16
ATOM     16  C   UNL     1      -2.805  10.435  16.593  0.00  0.00    +0.000 C 
ATOM     17  N   UNL     1      -2.247   9.812  15.787  0.00  0.00    +0.000 NA
ENDBRANCH  12  16
ENDBRANCH   1  13
BRANCH   6  18
ATOM     18  C   UNL     1       0.949   9.431  21.030  0.00  0.00    +0.000 C 
BRANCH  18  19
ATOM     19  C   UNL     1       1.533   8.226  20.300  0.00  0.00    +0.000 A 
ATOM     20  N   UNL     1       1.601   7.014  20.822  0.00  0.00    +0.000 NA
ATOM     21  C   UNL     1       2.185   6.149  19.926  0.00  0.00    +0.000 A 
ATOM     22  C   UNL     1       2.575   6.707  18.723  0.00  0.00    +0.000 A 
ATOM     23  C   UNL     1       3.242   6.054  17.562  0.00  0.00    +0.000 C 
ATOM     24  S   UNL     1       2.176   8.372  18.709  0.00  0.00    +0.000 S 
ENDBRANCH  18  19
BRANCH  18  25
ATOM     25  C   UNL     1      -0.172   8.929  21.958  0.00  0.00    +0.000 C 
BRANCH  25  26
ATOM     26  C   UNL     1      -0.260   9.672  23.263  0.00  0.00    +0.000 C 
ATOM     27  O   UNL     1       0.494   9.522  24.212  0.00  0.00    +0.000 OA
BRANCH  26  28
ATOM     28  O   UNL     1      -1.333  10.495  23.328  0.00  0.00    +0.000 OA
ATOM     29  H   UNL     1      -1.760  10.525  24.206  0.00  0.00    +0.000 HD
ENDBRANCH  26  28
ENDBRANCH  25  26
ENDBRANCH  18  25
ENDBRANCH   6  18
TORSDOF 8
ENDMDL
MODEL 7
REMARK VINA RESULT:      -6.9      9.621     12.830
REMARK  Name = 
REMARK  10 active torsions:
REMARK  status: ('A' for Active; 'I' for Inactive)
REMARK    1  A    between atoms: C_1  and  O_2
REMARK    2  A    between atoms: O_2  and  C_3
REMARK    3  A    between atoms: C_7  and  C_8
REMARK    4  A    between atoms: C_10  and  C_11
REMARK    5  A    between atoms: C_16  and  C_17
REMARK    6  A    between atoms: C_17  and  C_18
REMARK    7  A    between atoms: C_17  and  C_22
REMARK    8  A    between atoms: C_18  and  C_19
REMARK    9  A    between atoms: C_19  and  O_21
REMARK   10  A    between atoms: C_25  and  C_26
REMARK                            x       y       z     vdW  Elec       q    Type
REMARK                         _______ _______ _______ _____ _____    ______ ____
ROOT
ATOM      1  C   UNL     1      -1.421  12.295  21.581  0.00  0.00    +0.000 A 
ATOM      2  C   UNL     1      -0.806  13.316  22.324  0.00  0.00    +0.000 A 
ATOM      3  C   UNL     1      -1.540  14.143  23.178  0.00  0.00    +0.000 A 
ATOM      4 CL   UNL     1      -0.717  15.301  24.153  0.00  0.00    +0.000 Cl
ATOM      5  C   UNL     1      -2.926  14.036  23.261  0.00  0.00    +0.000 A 
ATOM      6  C   UNL     1      -3.600  13.100  22.472  0.00  0.00    +0.000 A 
ATOM      7  C   UNL     1      -2.827  12.221  21.681  0.00  0.00    +0.000 A 
ENDROOT
BRANCH   1  13
ATOM      8  C   UNL     1      -0.540  11.430  19.341  0.00  0.00    +0.000 A 
ATOM      9  C   UNL     1       0.242  10.548  18.577  0.00  0.00    +0.000 A 
ATOM     10  C   UNL     1       0.965   9.532  19.185  0.00  0.00    +0.000 A 
ATOM     11  C   UNL     1       0.895   9.376  20.562  0.00  0.00    +0.000 A 
ATOM     12  C   UNL     1       0.094  10.230  21.346  0.00  0.00    +0.000 A 
ATOM     13  C   UNL     1      -0.627  11.311  20.763  0.00  0.00    +0.000 A 
BRANCH   8  15
ATOM     14  C   UNL     1      -0.338  13.609  18.399  0.00  0.00    +0.000 C 
ATOM     15  O   UNL     1      -1.168  12.499  18.739  0.00  0.00    +0.000 OA
ENDBRANCH   8  15
BRANCH  12  16
ATOM     16  C   UNL     1       0.043   9.912  22.750  0.00  0.00    +0.000 C 
ATOM     17  N   UNL     1      -0.016   9.695  23.889  0.00  0.00    +0.000 NA
ENDBRANCH  12  16
ENDBRANCH   1  13
BRANCH   6  18
ATOM     18  C   UNL     1      -5.130  12.981  22.444  0.00  0.00    +0.000 C 
BRANCH  18  19
ATOM     19  C   UNL     1      -5.759  13.711  21.262  0.00  0.00    +0.000 A 
ATOM     20  N   UNL     1      -6.367  14.880  21.361  0.00  0.00    +0.000 NA
ATOM     21  C   UNL     1      -6.835  15.272  20.128  0.00  0.00    +0.000 A 
ATOM     22  C   UNL     1      -6.596  14.391  19.090  0.00  0.00    +0.000 A 
ATOM     23  C   UNL     1      -6.981  14.509  17.657  0.00  0.00    +0.000 C 
ATOM     24  S   UNL     1      -5.733  13.034  19.679  0.00  0.00    +0.000 S 
ENDBRANCH  18  19
BRANCH  18  25
ATOM     25  C   UNL     1      -5.777  13.515  23.734  0.00  0.00    +0.000 C 
BRANCH  25  26
ATOM     26  C   UNL     1      -7.018  12.769  24.146  0.00  0.00    +0.000 C 
ATOM     27  O   UNL     1      -7.290  11.623  23.824  0.00  0.00    +0.000 OA
BRANCH  26  28
ATOM     28  O   UNL     1      -7.874  13.532  24.865  0.00  0.00    +0.000 OA
ATOM     29  H   UNL     1      -8.446  14.109  24.322  0.00  0.00    +0.000 HD
ENDBRANCH  26  28
ENDBRANCH  25  26
ENDBRANCH  18  25
ENDBRANCH   6  18
TORSDOF 8
ENDMDL
MODEL 8
REMARK VINA RESULT:      -6.8      6.638      9.414
REMARK  Name = 
REMARK  10 active torsions:
REMARK  status: ('A' for Active; 'I' for Inactive)
REMARK    1  A    between atoms: C_1  and  O_2
REMARK    2  A    between atoms: O_2  and  C_3
REMARK    3  A    between atoms: C_7  and  C_8
REMARK    4  A    between atoms: C_10  and  C_11
REMARK    5  A    between atoms: C_16  and  C_17
REMARK    6  A    between atoms: C_17  and  C_18
REMARK    7  A    between atoms: C_17  and  C_22
REMARK    8  A    between atoms: C_18  and  C_19
REMARK    9  A    between atoms: C_19  and  O_21
REMARK   10  A    between atoms: C_25  and  C_26
REMARK                            x       y       z     vdW  Elec       q    Type
REMARK                         _______ _______ _______ _____ _____    ______ ____
ROOT
ATOM      1  C   UNL     1      -0.166  12.667  19.141  0.00  0.00    +0.000 A 
ATOM      2  C   UNL     1      -1.014  12.162  18.141  0.00  0.00    +0.000 A 
ATOM      3  C   UNL     1      -1.364  10.811  18.092  0.00  0.00    +0.000 A 
ATOM      4 CL   UNL     1      -2.499  10.270  16.914  0.00  0.00    +0.000 Cl
ATOM      5  C   UNL     1      -0.819   9.897  18.989  0.00  0.00    +0.000 A 
ATOM      6  C   UNL     1       0.104  10.329  19.947  0.00  0.00    +0.000 A 
ATOM      7  C   UNL     1       0.376  11.713  20.028  0.00  0.00    +0.000 A 
ENDROOT
BRANCH   1  13
ATOM      8  C   UNL     1       1.310  14.722  18.773  0.00  0.00    +0.000 A 
ATOM      9  C   UNL     1       1.552  16.104  18.858  0.00  0.00    +0.000 A 
ATOM     10  C   UNL     1       0.621  16.952  19.441  0.00  0.00    +0.000 A 
ATOM     11  C   UNL     1      -0.549  16.421  19.965  0.00  0.00    +0.000 A 
ATOM     12  C   UNL     1      -0.800  15.036  19.918  0.00  0.00    +0.000 A 
ATOM     13  C   UNL     1       0.111  14.140  19.287  0.00  0.00    +0.000 A 
BRANCH   8  15
ATOM     14  C   UNL     1       3.576  14.217  18.237  0.00  0.00    +0.000 C 
ATOM     15  O   UNL     1       2.191  13.905  18.097  0.00  0.00    +0.000 OA
ENDBRANCH   8  15
BRANCH  12  16
ATOM     16  C   UNL     1      -2.011  14.605  20.567  0.00  0.00    +0.000 C 
ATOM     17  N   UNL     1      -2.997  14.234  21.054  0.00  0.00    +0.000 NA
ENDBRANCH  12  16
ENDBRANCH   1  13
BRANCH   6  18
ATOM     18  C   UNL     1       0.812   9.370  20.913  0.00  0.00    +0.000 C 
BRANCH  18  19
ATOM     19  C   UNL     1       1.507   8.215  20.198  0.00  0.00    +0.000 A 
ATOM     20  N   UNL     1       1.634   7.005  20.712  0.00  0.00    +0.000 NA
ATOM     21  C   UNL     1       2.312   6.191  19.834  0.00  0.00    +0.000 A 
ATOM     22  C   UNL     1       2.715   6.788  18.654  0.00  0.00    +0.000 A 
ATOM     23  C   UNL     1       3.473   6.195  17.518  0.00  0.00    +0.000 C 
ATOM     24  S   UNL     1       2.206   8.423  18.638  0.00  0.00    +0.000 S 
ENDBRANCH  18  19
BRANCH  18  25
ATOM     25  C   UNL     1      -0.154   8.775  21.953  0.00  0.00    +0.000 C 
BRANCH  25  26
ATOM     26  C   UNL     1      -0.244   9.573  23.226  0.00  0.00    +0.000 C 
ATOM     27  O   UNL     1       0.595   9.582  24.113  0.00  0.00    +0.000 OA
BRANCH  26  28
ATOM     28  O   UNL     1      -1.415  10.242  23.343  0.00  0.00    +0.000 OA
ATOM     29  H   UNL     1      -1.492  10.772  24.160  0.00  0.00    +0.000 HD
ENDBRANCH  26  28
ENDBRANCH  25  26
ENDBRANCH  18  25
ENDBRANCH   6  18
TORSDOF 8
ENDMDL
MODEL 9
REMARK VINA RESULT:      -6.8      2.163      3.342
REMARK  Name = 
REMARK  10 active torsions:
REMARK  status: ('A' for Active; 'I' for Inactive)
REMARK    1  A    between atoms: C_1  and  O_2
REMARK    2  A    between atoms: O_2  and  C_3
REMARK    3  A    between atoms: C_7  and  C_8
REMARK    4  A    between atoms: C_10  and  C_11
REMARK    5  A    between atoms: C_16  and  C_17
REMARK    6  A    between atoms: C_17  and  C_18
REMARK    7  A    between atoms: C_17  and  C_22
REMARK    8  A    between atoms: C_18  and  C_19
REMARK    9  A    between atoms: C_19  and  O_21
REMARK   10  A    between atoms: C_25  and  C_26
REMARK                            x       y       z     vdW  Elec       q    Type
REMARK                         _______ _______ _______ _____ _____    ______ ____
ROOT
ATOM      1  C   UNL     1       3.028   5.665  18.692  0.00  0.00    +0.000 A 
ATOM      2  C   UNL     1       2.546   4.385  18.375  0.00  0.00    +0.000 A 
ATOM      3  C   UNL     1       3.335   3.453  17.697  0.00  0.00    +0.000 A 
ATOM      4 CL   UNL     1       2.733   1.859  17.438  0.00  0.00    +0.000 Cl
ATOM      5  C   UNL     1       4.606   3.789  17.239  0.00  0.00    +0.000 A 
ATOM      6  C   UNL     1       5.100   5.081  17.444  0.00  0.00    +0.000 A 
ATOM      7  C   UNL     1       4.315   5.976  18.205  0.00  0.00    +0.000 A 
ENDROOT
BRANCH   1  13
ATOM      8  C   UNL     1       1.675   6.229  20.787  0.00  0.00    +0.000 A 
ATOM      9  C   UNL     1       0.985   7.138  21.607  0.00  0.00    +0.000 A 
ATOM     10  C   UNL     1       0.839   8.465  21.229  0.00  0.00    +0.000 A 
ATOM     11  C   UNL     1       1.363   8.889  20.017  0.00  0.00    +0.000 A 
ATOM     12  C   UNL     1       2.033   7.990  19.164  0.00  0.00    +0.000 A 
ATOM     13  C   UNL     1       2.241   6.631  19.538  0.00  0.00    +0.000 A 
BRANCH   8  15
ATOM     14  C   UNL     1       0.912   3.974  20.886  0.00  0.00    +0.000 C 
ATOM     15  O   UNL     1       1.906   4.941  21.221  0.00  0.00    +0.000 OA
ENDBRANCH   8  15
BRANCH  12  16
ATOM     16  C   UNL     1       2.458   8.536  17.901  0.00  0.00    +0.000 C 
ATOM     17  N   UNL     1       2.833   8.998  16.903  0.00  0.00    +0.000 NA
ENDBRANCH  12  16
ENDBRANCH   1  13
BRANCH   6  18
ATOM     18  C   UNL     1       6.453   5.552  16.896  0.00  0.00    +0.000 C 
BRANCH  18  19
ATOM     19  C   UNL     1       6.696   5.107  15.457  0.00  0.00    +0.000 A 
ATOM     20  N   UNL     1       7.707   5.530  14.719  0.00  0.00    +0.000 NA
ATOM     21  C   UNL     1       7.649   4.958  13.469  0.00  0.00    +0.000 A 
ATOM     22  C   UNL     1       6.582   4.107  13.251  0.00  0.00    +0.000 A 
ATOM     23  C   UNL     1       6.226   3.351  12.018  0.00  0.00    +0.000 C 
ATOM     24  S   UNL     1       5.631   4.006  14.671  0.00  0.00    +0.000 S 
ENDBRANCH  18  19
BRANCH  18  25
ATOM     25  C   UNL     1       7.632   5.058  17.753  0.00  0.00    +0.000 C 
BRANCH  25  26
ATOM     26  C   UNL     1       7.771   5.776  19.068  0.00  0.00    +0.000 C 
ATOM     27  O   UNL     1       7.307   5.396  20.131  0.00  0.00    +0.000 OA
BRANCH  26  28
ATOM     28  O   UNL     1       8.411   6.963  18.952  0.00  0.00    +0.000 OA
ATOM     29  H   UNL     1       9.379   6.887  18.850  0.00  0.00    +0.000 HD
ENDBRANCH  26  28
ENDBRANCH  25  26
ENDBRANCH  18  25
ENDBRANCH   6  18
TORSDOF 8
ENDMDL
