MODEL 1
REMARK VINA RESULT:      -8.7      0.000      0.000
REMARK  Name = 
REMARK  2 active torsions:
REMARK  status: ('A' for Active; 'I' for Inactive)
REMARK    1  A    between atoms: C_5  and  C_6
REMARK    2  A    between atoms: C_19  and  C_20
REMARK                            x       y       z     vdW  Elec       q    Type
REMARK                         _______ _______ _______ _____ _____    ______ ____
ROOT
ATOM      1  C   UNL     1       2.034   7.598  19.493  0.00  0.00    +0.000 C 
ATOM      2  C   UNL     1       1.364   8.149  20.525  0.00  0.00    +0.000 C 
ATOM      3  C   UNL     1       0.768   9.526  20.537  0.00  0.00    +0.000 C 
ATOM      4  N   UNL     1       1.124  10.282  19.346  0.00  0.00    +0.000 N 
ATOM      5  C   UNL     1       1.288  11.664  19.340  0.00  0.00    +0.000 C 
ATOM      6  N   UNL     1       2.007  12.230  18.409  0.00  0.00    +0.000 NA
ATOM      7  C   UNL     1       2.255  13.620  18.417  0.00  0.00    +0.000 A 
ATOM      8  C   UNL     1       3.568  14.007  18.105  0.00  0.00    +0.000 A 
ATOM      9  C   UNL     1       3.945  15.350  18.083  0.00  0.00    +0.000 A 
ATOM     10  C   UNL     1       3.006  16.334  18.369  0.00  0.00    +0.000 A 
ATOM     11  C   UNL     1       1.694  15.969  18.665  0.00  0.00    +0.000 A 
ATOM     12  C   UNL     1       1.298  14.623  18.697  0.00  0.00    +0.000 A 
ATOM     13  N   UNL     1      -0.060  14.390  18.988  0.00  0.00    +0.000 NA
ATOM     14  C   UNL     1      -0.402  13.426  19.788  0.00  0.00    +0.000 C 
ATOM     15  C   UNL     1       0.611  12.496  20.424  0.00  0.00    +0.000 C 
ATOM     16  C   UNL     1       1.182   9.515  18.100  0.00  0.00    +0.000 C 
ATOM     17  C   UNL     1       2.217   8.393  18.220  0.00  0.00    +0.000 C 
ENDROOT
BRANCH   1  22
ATOM     18 CL   UNL     1       4.433   2.091  19.866  0.00  0.00    +0.000 Cl
ATOM     19  C   UNL     1       3.749   3.665  19.763  0.00  0.00    +0.000 A 
ATOM     20  C   UNL     1       4.299   4.601  18.896  0.00  0.00    +0.000 A 
ATOM     21  C   UNL     1       3.743   5.882  18.816  0.00  0.00    +0.000 A 
ATOM     22  C   UNL     1       2.622   6.240  19.584  0.00  0.00    +0.000 A 
ATOM     23  C   UNL     1       2.090   5.278  20.458  0.00  0.00    +0.000 A 
ATOM     24  C   UNL     1       2.649   3.998  20.548  0.00  0.00    +0.000 A 
ENDBRANCH   1  22
BRANCH  14  25
ATOM     25  C   UNL     1      -1.857  13.210  20.054  0.00  0.00    +0.000 A 
ATOM     26  C   UNL     1      -2.553  12.292  19.256  0.00  0.00    +0.000 A 
ATOM     27  C   UNL     1      -3.919  12.083  19.448  0.00  0.00    +0.000 A 
ATOM     28  C   UNL     1      -4.599  12.791  20.436  0.00  0.00    +0.000 A 
ATOM     29  C   UNL     1      -3.915  13.708  21.233  0.00  0.00    +0.000 A 
ATOM     30  C   UNL     1      -2.547  13.922  21.042  0.00  0.00    +0.000 A 
ENDBRANCH  14  25
TORSDOF 2
ENDMDL
MODEL 2
REMARK VINA RESULT:      -8.6      0.079      1.247
REMARK  Name = 
REMARK  2 active torsions:
REMARK  status: ('A' for Active; 'I' for Inactive)
REMARK    1  A    between atoms: C_5  and  C_6
REMARK    2  A    between atoms: C_19  and  C_20
REMARK                            x       y       z     vdW  Elec       q    Type
REMARK                         _______ _______ _______ _____ _____    ______ ____
ROOT
ATOM      1  C   UNL     1       2.076   7.597  19.475  0.00  0.00    +0.000 C 
ATOM      2  C   UNL     1       1.384   8.133  20.501  0.00  0.00    +0.000 C 
ATOM      3  C   UNL     1       0.776   9.505  20.515  0.00  0.00    +0.000 C 
ATOM      4  N   UNL     1       1.145  10.275  19.338  0.00  0.00    +0.000 N 
ATOM      5  C   UNL     1       1.297  11.658  19.347  0.00  0.00    +0.000 C 
ATOM      6  N   UNL     1       2.026  12.239  18.434  0.00  0.00    +0.000 NA
ATOM      7  C   UNL     1       2.262  13.631  18.459  0.00  0.00    +0.000 A 
ATOM      8  C   UNL     1       3.577  14.032  18.172  0.00  0.00    +0.000 A 
ATOM      9  C   UNL     1       3.943  15.379  18.169  0.00  0.00    +0.000 A 
ATOM     10  C   UNL     1       2.991  16.351  18.448  0.00  0.00    +0.000 A 
ATOM     11  C   UNL     1       1.677  15.973  18.719  0.00  0.00    +0.000 A 
ATOM     12  C   UNL     1       1.292  14.623  18.732  0.00  0.00    +0.000 A 
ATOM     13  N   UNL     1      -0.069  14.376  18.997  0.00  0.00    +0.000 NA
ATOM     14  C   UNL     1      -0.416  13.401  19.782  0.00  0.00    +0.000 C 
ATOM     15  C   UNL     1       0.595  12.474  20.427  0.00  0.00    +0.000 C 
ATOM     16  C   UNL     1       1.231   9.520  18.086  0.00  0.00    +0.000 C 
ATOM     17  C   UNL     1       2.273   8.406  18.213  0.00  0.00    +0.000 C 
ENDROOT
BRANCH   1  22
ATOM     18 CL   UNL     1       4.491   2.096  19.830  0.00  0.00    +0.000 Cl
ATOM     19  C   UNL     1       3.800   3.668  19.725  0.00  0.00    +0.000 A 
ATOM     20  C   UNL     1       2.652   3.966  20.448  0.00  0.00    +0.000 A 
ATOM     21  C   UNL     1       2.089   5.242  20.359  0.00  0.00    +0.000 A 
ATOM     22  C   UNL     1       2.674   6.244  19.564  0.00  0.00    +0.000 A 
ATOM     23  C   UNL     1       3.829   5.914  18.838  0.00  0.00    +0.000 A 
ATOM     24  C   UNL     1       4.390   4.634  18.917  0.00  0.00    +0.000 A 
ENDBRANCH   1  22
BRANCH  14  25
ATOM     25  C   UNL     1      -1.873  13.171  20.022  0.00  0.00    +0.000 A 
ATOM     26  C   UNL     1      -2.484  13.828  21.099  0.00  0.00    +0.000 A 
ATOM     27  C   UNL     1      -3.834  13.617  21.381  0.00  0.00    +0.000 A 
ATOM     28  C   UNL     1      -4.582  12.749  20.589  0.00  0.00    +0.000 A 
ATOM     29  C   UNL     1      -3.982  12.090  19.517  0.00  0.00    +0.000 A 
ATOM     30  C   UNL     1      -2.629  12.296  19.235  0.00  0.00    +0.000 A 
ENDBRANCH  14  25
TORSDOF 2
ENDMDL
MODEL 3
REMARK VINA RESULT:      -8.6      0.601      1.081
REMARK  Name = 
REMARK  2 active torsions:
REMARK  status: ('A' for Active; 'I' for Inactive)
REMARK    1  A    between atoms: C_5  and  C_6
REMARK    2  A    between atoms: C_19  and  C_20
REMARK                            x       y       z     vdW  Elec       q    Type
REMARK                         _______ _______ _______ _____ _____    ______ ____
ROOT
ATOM      1  C   UNL     1       1.945   7.609  19.724  0.00  0.00    +0.000 C 
ATOM      2  C   UNL     1       1.433   8.155  20.846  0.00  0.00    +0.000 C 
ATOM      3  C   UNL     1       0.823   9.522  20.946  0.00  0.00    +0.000 C 
ATOM      4  N   UNL     1       0.979  10.278  19.712  0.00  0.00    +0.000 N 
ATOM      5  C   UNL     1       1.118  11.662  19.677  0.00  0.00    +0.000 C 
ATOM      6  N   UNL     1       1.675  12.235  18.646  0.00  0.00    +0.000 NA
ATOM      7  C   UNL     1       1.899  13.628  18.612  0.00  0.00    +0.000 A 
ATOM      8  C   UNL     1       3.141  14.035  18.100  0.00  0.00    +0.000 A 
ATOM      9  C   UNL     1       3.489  15.383  18.017  0.00  0.00    +0.000 A 
ATOM     10  C   UNL     1       2.589  16.354  18.441  0.00  0.00    +0.000 A 
ATOM     11  C   UNL     1       1.344  15.970  18.938  0.00  0.00    +0.000 A 
ATOM     12  C   UNL     1       0.980  14.618  19.034  0.00  0.00    +0.000 A 
ATOM     13  N   UNL     1      -0.313  14.365  19.531  0.00  0.00    +0.000 NA
ATOM     14  C   UNL     1      -0.512  13.399  20.377  0.00  0.00    +0.000 C 
ATOM     15  C   UNL     1       0.602  12.489  20.851  0.00  0.00    +0.000 C 
ATOM     16  C   UNL     1       0.857   9.506  18.474  0.00  0.00    +0.000 C 
ATOM     17  C   UNL     1       1.916   8.401  18.436  0.00  0.00    +0.000 C 
ENDROOT
BRANCH   1  22
ATOM     18 CL   UNL     1       4.437   2.131  19.731  0.00  0.00    +0.000 Cl
ATOM     19  C   UNL     1       3.723   3.696  19.726  0.00  0.00    +0.000 A 
ATOM     20  C   UNL     1       2.609   3.949  20.516  0.00  0.00    +0.000 A 
ATOM     21  C   UNL     1       2.029   5.220  20.508  0.00  0.00    +0.000 A 
ATOM     22  C   UNL     1       2.561   6.261  19.727  0.00  0.00    +0.000 A 
ATOM     23  C   UNL     1       3.683   5.977  18.932  0.00  0.00    +0.000 A 
ATOM     24  C   UNL     1       4.261   4.702  18.930  0.00  0.00    +0.000 A 
ENDBRANCH   1  22
BRANCH  14  25
ATOM     25  C   UNL     1      -1.904  13.163  20.865  0.00  0.00    +0.000 A 
ATOM     26  C   UNL     1      -2.896  12.847  19.926  0.00  0.00    +0.000 A 
ATOM     27  C   UNL     1      -4.216  12.650  20.332  0.00  0.00    +0.000 A 
ATOM     28  C   UNL     1      -4.554  12.768  21.678  0.00  0.00    +0.000 A 
ATOM     29  C   UNL     1      -3.575  13.083  22.618  0.00  0.00    +0.000 A 
ATOM     30  C   UNL     1      -2.252  13.285  22.214  0.00  0.00    +0.000 A 
ENDBRANCH  14  25
TORSDOF 2
ENDMDL
MODEL 4
REMARK VINA RESULT:      -8.6      0.673      1.060
REMARK  Name = 
REMARK  2 active torsions:
REMARK  status: ('A' for Active; 'I' for Inactive)
REMARK    1  A    between atoms: C_5  and  C_6
REMARK    2  A    between atoms: C_19  and  C_20
REMARK                            x       y       z     vdW  Elec       q    Type
REMARK                         _______ _______ _______ _____ _____    ______ ____
ROOT
ATOM      1  C   UNL     1       1.937   7.629  19.742  0.00  0.00    +0.000 C 
ATOM      2  C   UNL     1       1.450   8.179  20.873  0.00  0.00    +0.000 C 
ATOM      3  C   UNL     1       0.855   9.551  20.984  0.00  0.00    +0.000 C 
ATOM      4  N   UNL     1       0.996  10.306  19.749  0.00  0.00    +0.000 N 
ATOM      5  C   UNL     1       1.146  11.689  19.712  0.00  0.00    +0.000 C 
ATOM      6  N   UNL     1       1.690  12.258  18.672  0.00  0.00    +0.000 NA
ATOM      7  C   UNL     1       1.926  13.650  18.634  0.00  0.00    +0.000 A 
ATOM      8  C   UNL     1       3.162  14.045  18.101  0.00  0.00    +0.000 A 
ATOM      9  C   UNL     1       3.521  15.391  18.013  0.00  0.00    +0.000 A 
ATOM     10  C   UNL     1       2.637  16.369  18.454  0.00  0.00    +0.000 A 
ATOM     11  C   UNL     1       1.398  15.996  18.972  0.00  0.00    +0.000 A 
ATOM     12  C   UNL     1       1.023  14.647  19.073  0.00  0.00    +0.000 A 
ATOM     13  N   UNL     1      -0.263  14.405  19.593  0.00  0.00    +0.000 NA
ATOM     14  C   UNL     1      -0.456  13.440  20.441  0.00  0.00    +0.000 C 
ATOM     15  C   UNL     1       0.658  12.520  20.896  0.00  0.00    +0.000 C 
ATOM     16  C   UNL     1       0.845   9.536  18.512  0.00  0.00    +0.000 C 
ATOM     17  C   UNL     1       1.893   8.423  18.455  0.00  0.00    +0.000 C 
ENDROOT
BRANCH   1  22
ATOM     18 CL   UNL     1       4.406   2.140  19.709  0.00  0.00    +0.000 Cl
ATOM     19  C   UNL     1       3.701   3.710  19.722  0.00  0.00    +0.000 A 
ATOM     20  C   UNL     1       4.261   4.723  18.954  0.00  0.00    +0.000 A 
ATOM     21  C   UNL     1       3.689   5.999  18.968  0.00  0.00    +0.000 A 
ATOM     22  C   UNL     1       2.542   6.276  19.733  0.00  0.00    +0.000 A 
ATOM     23  C   UNL     1       2.001   5.236  20.505  0.00  0.00    +0.000 A 
ATOM     24  C   UNL     1       2.576   3.960  20.501  0.00  0.00    +0.000 A 
ENDBRANCH   1  22
BRANCH  14  25
ATOM     25  C   UNL     1      -1.842  13.216  20.953  0.00  0.00    +0.000 A 
ATOM     26  C   UNL     1      -2.048  13.214  22.340  0.00  0.00    +0.000 A 
ATOM     27  C   UNL     1      -3.320  12.976  22.864  0.00  0.00    +0.000 A 
ATOM     28  C   UNL     1      -4.391  12.736  22.007  0.00  0.00    +0.000 A 
ATOM     29  C   UNL     1      -4.194  12.735  20.627  0.00  0.00    +0.000 A 
ATOM     30  C   UNL     1      -2.921  12.969  20.098  0.00  0.00    +0.000 A 
ENDBRANCH  14  25
TORSDOF 2
ENDMDL
MODEL 5
REMARK VINA RESULT:      -8.4      1.120      1.328
REMARK  Name = 
REMARK  2 active torsions:
REMARK  status: ('A' for Active; 'I' for Inactive)
REMARK    1  A    between atoms: C_5  and  C_6
REMARK    2  A    between atoms: C_19  and  C_20
REMARK                            x       y       z     vdW  Elec       q    Type
REMARK                         _______ _______ _______ _____ _____    ______ ____
ROOT
ATOM      1  C   UNL     1       1.996   7.463  19.036  0.00  0.00    +0.000 C 
ATOM      2  C   UNL     1       1.651   7.895  20.266  0.00  0.00    +0.000 C 
ATOM      3  C   UNL     1       1.142   9.268  20.592  0.00  0.00    +0.000 C 
ATOM      4  N   UNL     1       1.202  10.157  19.441  0.00  0.00    +0.000 N 
ATOM      5  C   UNL     1       1.420  11.527  19.545  0.00  0.00    +0.000 C 
ATOM      6  N   UNL     1       1.890  12.192  18.525  0.00  0.00    +0.000 NA
ATOM      7  C   UNL     1       2.194  13.567  18.621  0.00  0.00    +0.000 A 
ATOM      8  C   UNL     1       3.392  13.971  18.012  0.00  0.00    +0.000 A 
ATOM      9  C   UNL     1       3.810  15.302  18.039  0.00  0.00    +0.000 A 
ATOM     10  C   UNL     1       3.027  16.257  18.676  0.00  0.00    +0.000 A 
ATOM     11  C   UNL     1       1.826  15.877  19.273  0.00  0.00    +0.000 A 
ATOM     12  C   UNL     1       1.392  14.542  19.259  0.00  0.00    +0.000 A 
ATOM     13  N   UNL     1       0.151  14.294  19.878  0.00  0.00    +0.000 NA
ATOM     14  C   UNL     1      -0.008  13.245  20.627  0.00  0.00    +0.000 C 
ATOM     15  C   UNL     1       1.095  12.232  20.858  0.00  0.00    +0.000 C 
ATOM     16  C   UNL     1       0.892   9.544  18.148  0.00  0.00    +0.000 C 
ATOM     17  C   UNL     1       1.869   8.403  17.858  0.00  0.00    +0.000 C 
ENDROOT
BRANCH   1  22
ATOM     18 CL   UNL     1       4.145   1.917  18.115  0.00  0.00    +0.000 Cl
ATOM     19  C   UNL     1       3.534   3.503  18.376  0.00  0.00    +0.000 A 
ATOM     20  C   UNL     1       2.398   3.926  17.697  0.00  0.00    +0.000 A 
ATOM     21  C   UNL     1       1.905   5.216  17.908  0.00  0.00    +0.000 A 
ATOM     22  C   UNL     1       2.525   6.096  18.813  0.00  0.00    +0.000 A 
ATOM     23  C   UNL     1       3.675   5.647  19.481  0.00  0.00    +0.000 A 
ATOM     24  C   UNL     1       4.178   4.359  19.265  0.00  0.00    +0.000 A 
ENDBRANCH   1  22
BRANCH  14  25
ATOM     25  C   UNL     1      -1.348  13.019  21.251  0.00  0.00    +0.000 A 
ATOM     26  C   UNL     1      -2.490  13.398  20.533  0.00  0.00    +0.000 A 
ATOM     27  C   UNL     1      -3.760  13.235  21.089  0.00  0.00    +0.000 A 
ATOM     28  C   UNL     1      -3.896  12.695  22.366  0.00  0.00    +0.000 A 
ATOM     29  C   UNL     1      -2.764  12.317  23.087  0.00  0.00    +0.000 A 
ATOM     30  C   UNL     1      -1.491  12.482  22.535  0.00  0.00    +0.000 A 
ENDBRANCH  14  25
TORSDOF 2
ENDMDL
MODEL 6
REMARK VINA RESULT:      -7.9      1.257      4.716
REMARK  Name = 
REMARK  2 active torsions:
REMARK  status: ('A' for Active; 'I' for Inactive)
REMARK    1  A    between atoms: C_5  and  C_6
REMARK    2  A    between atoms: C_19  and  C_20
REMARK                            x       y       z     vdW  Elec       q    Type
REMARK                         _______ _______ _______ _____ _____    ______ ____
ROOT
ATOM      1  C   UNL     1       1.570   8.404  19.819  0.00  0.00    +0.000 C 
ATOM      2  C   UNL     1       1.536   9.173  18.713  0.00  0.00    +0.000 C 
ATOM      3  C   UNL     1       1.083  10.602  18.662  0.00  0.00    +0.000 C 
ATOM      4  N   UNL     1       0.527  11.041  19.933  0.00  0.00    +0.000 N 
ATOM      5  C   UNL     1      -0.490  11.985  20.037  0.00  0.00    +0.000 C 
ATOM      6  N   UNL     1      -1.235  12.025  21.107  0.00  0.00    +0.000 NA
ATOM      7  C   UNL     1      -2.322  12.919  21.212  0.00  0.00    +0.000 A 
ATOM      8  C   UNL     1      -3.495  12.390  21.773  0.00  0.00    +0.000 A 
ATOM      9  C   UNL     1      -4.643  13.167  21.928  0.00  0.00    +0.000 A 
ATOM     10  C   UNL     1      -4.633  14.498  21.528  0.00  0.00    +0.000 A 
ATOM     11  C   UNL     1      -3.472  15.045  20.983  0.00  0.00    +0.000 A 
ATOM     12  C   UNL     1      -2.310  14.277  20.815  0.00  0.00    +0.000 A 
ATOM     13  N   UNL     1      -1.199  14.953  20.274  0.00  0.00    +0.000 NA
ATOM     14  C   UNL     1      -0.454  14.379  19.380  0.00  0.00    +0.000 C 
ATOM     15  C   UNL     1      -0.709  12.967  18.890  0.00  0.00    +0.000 C 
ATOM     16  C   UNL     1       1.191  10.520  21.130  0.00  0.00    +0.000 C 
ATOM     17  C   UNL     1       1.131   8.991  21.142  0.00  0.00    +0.000 C 
ENDROOT
BRANCH   1  22
ATOM     18 CL   UNL     1       3.300   2.643  19.614  0.00  0.00    +0.000 Cl
ATOM     19  C   UNL     1       2.803   4.289  19.670  0.00  0.00    +0.000 A 
ATOM     20  C   UNL     1       2.028   4.740  20.731  0.00  0.00    +0.000 A 
ATOM     21  C   UNL     1       1.622   6.077  20.773  0.00  0.00    +0.000 A 
ATOM     22  C   UNL     1       1.999   6.986  19.769  0.00  0.00    +0.000 A 
ATOM     23  C   UNL     1       2.776   6.502  18.704  0.00  0.00    +0.000 A 
ATOM     24  C   UNL     1       3.176   5.163  18.653  0.00  0.00    +0.000 A 
ENDBRANCH   1  22
BRANCH  14  25
ATOM     25  C   UNL     1       0.721  15.133  18.847  0.00  0.00    +0.000 A 
ATOM     26  C   UNL     1       0.577  16.506  18.604  0.00  0.00    +0.000 A 
ATOM     27  C   UNL     1       1.637  17.245  18.076  0.00  0.00    +0.000 A 
ATOM     28  C   UNL     1       2.845  16.616  17.786  0.00  0.00    +0.000 A 
ATOM     29  C   UNL     1       2.996  15.251  18.023  0.00  0.00    +0.000 A 
ATOM     30  C   UNL     1       1.936  14.507  18.548  0.00  0.00    +0.000 A 
ENDBRANCH  14  25
TORSDOF 2
ENDMDL
MODEL 7
REMARK VINA RESULT:      -7.9      1.242      4.593
REMARK  Name = 
REMARK  2 active torsions:
REMARK  status: ('A' for Active; 'I' for Inactive)
REMARK    1  A    between atoms: C_5  and  C_6
REMARK    2  A    between atoms: C_19  and  C_20
REMARK                            x       y       z     vdW  Elec       q    Type
REMARK                         _______ _______ _______ _____ _____    ______ ____
ROOT
ATOM      1  C   UNL     1       1.568   8.412  19.854  0.00  0.00    +0.000 C 
ATOM      2  C   UNL     1       1.529   9.175  18.743  0.00  0.00    +0.000 C 
ATOM      3  C   UNL     1       1.067  10.601  18.684  0.00  0.00    +0.000 C 
ATOM      4  N   UNL     1       0.510  11.044  19.953  0.00  0.00    +0.000 N 
ATOM      5  C   UNL     1      -0.513  11.982  20.052  0.00  0.00    +0.000 C 
ATOM      6  N   UNL     1      -1.257  12.024  21.123  0.00  0.00    +0.000 NA
ATOM      7  C   UNL     1      -2.349  12.912  21.223  0.00  0.00    +0.000 A 
ATOM      8  C   UNL     1      -3.519  12.380  21.788  0.00  0.00    +0.000 A 
ATOM      9  C   UNL     1      -4.672  13.152  21.940  0.00  0.00    +0.000 A 
ATOM     10  C   UNL     1      -4.669  14.480  21.531  0.00  0.00    +0.000 A 
ATOM     11  C   UNL     1      -3.512  15.031  20.983  0.00  0.00    +0.000 A 
ATOM     12  C   UNL     1      -2.345  14.268  20.818  0.00  0.00    +0.000 A 
ATOM     13  N   UNL     1      -1.239  14.948  20.273  0.00  0.00    +0.000 NA
ATOM     14  C   UNL     1      -0.491  14.372  19.381  0.00  0.00    +0.000 C 
ATOM     15  C   UNL     1      -0.739  12.957  18.900  0.00  0.00    +0.000 C 
ATOM     16  C   UNL     1       1.178  10.534  21.152  0.00  0.00    +0.000 C 
ATOM     17  C   UNL     1       1.127   9.005  21.174  0.00  0.00    +0.000 C 
ENDROOT
BRANCH   1  22
ATOM     18 CL   UNL     1       3.360   2.669  19.680  0.00  0.00    +0.000 Cl
ATOM     19  C   UNL     1       2.849   4.311  19.733  0.00  0.00    +0.000 A 
ATOM     20  C   UNL     1       3.263   5.194  18.743  0.00  0.00    +0.000 A 
ATOM     21  C   UNL     1       2.850   6.529  18.789  0.00  0.00    +0.000 A 
ATOM     22  C   UNL     1       2.006   6.997  19.811  0.00  0.00    +0.000 A 
ATOM     23  C   UNL     1       1.609   6.086  20.803  0.00  0.00    +0.000 A 
ATOM     24  C   UNL     1       2.028   4.751  20.765  0.00  0.00    +0.000 A 
ENDBRANCH   1  22
BRANCH  14  25
ATOM     25  C   UNL     1       0.678  15.131  18.843  0.00  0.00    +0.000 A 
ATOM     26  C   UNL     1       1.865  14.432  18.583  0.00  0.00    +0.000 A 
ATOM     27  C   UNL     1       2.993  15.105  18.111  0.00  0.00    +0.000 A 
ATOM     28  C   UNL     1       2.942  16.480  17.897  0.00  0.00    +0.000 A 
ATOM     29  C   UNL     1       1.767  17.184  18.154  0.00  0.00    +0.000 A 
ATOM     30  C   UNL     1       0.636  16.513  18.631  0.00  0.00    +0.000 A 
ENDBRANCH  14  25
TORSDOF 2
ENDMDL
MODEL 8
REMARK VINA RESULT:      -7.8      1.175      4.578
REMARK  Name = 
REMARK  2 active torsions:
REMARK  status: ('A' for Active; 'I' for Inactive)
REMARK    1  A    between atoms: C_5  and  C_6
REMARK    2  A    between atoms: C_19  and  C_20
REMARK                            x       y       z     vdW  Elec       q    Type
REMARK                         _______ _______ _______ _____ _____    ______ ____
ROOT
ATOM      1  C   UNL     1       1.697   8.053  19.622  0.00  0.00    +0.000 C 
ATOM      2  C   UNL     1       1.722   8.847  18.532  0.00  0.00    +0.000 C 
ATOM      3  C   UNL     1       1.363  10.303  18.509  0.00  0.00    +0.000 C 
ATOM      4  N   UNL     1       0.826  10.749  19.786  0.00  0.00    +0.000 N 
ATOM      5  C   UNL     1      -0.129  11.755  19.903  0.00  0.00    +0.000 C 
ATOM      6  N   UNL     1      -0.878  11.820  20.969  0.00  0.00    +0.000 NA
ATOM      7  C   UNL     1      -1.907  12.780  21.086  0.00  0.00    +0.000 A 
ATOM      8  C   UNL     1      -3.116  12.316  21.628  0.00  0.00    +0.000 A 
ATOM      9  C   UNL     1      -4.213  13.163  21.792  0.00  0.00    +0.000 A 
ATOM     10  C   UNL     1      -4.113  14.498  21.420  0.00  0.00    +0.000 A 
ATOM     11  C   UNL     1      -2.915  14.980  20.896  0.00  0.00    +0.000 A 
ATOM     12  C   UNL     1      -1.803  14.142  20.719  0.00  0.00    +0.000 A 
ATOM     13  N   UNL     1      -0.648  14.757  20.201  0.00  0.00    +0.000 NA
ATOM     14  C   UNL     1       0.067  14.155  19.299  0.00  0.00    +0.000 C 
ATOM     15  C   UNL     1      -0.275  12.774  18.777  0.00  0.00    +0.000 C 
ATOM     16  C   UNL     1       1.445  10.162  20.976  0.00  0.00    +0.000 C 
ATOM     17  C   UNL     1       1.287   8.640  20.954  0.00  0.00    +0.000 C 
ENDROOT
BRANCH   1  22
ATOM     18 CL   UNL     1       3.082   2.205  19.297  0.00  0.00    +0.000 Cl
ATOM     19  C   UNL     1       2.689   3.877  19.392  0.00  0.00    +0.000 A 
ATOM     20  C   UNL     1       2.820   4.682  18.267  0.00  0.00    +0.000 A 
ATOM     21  C   UNL     1       2.504   6.041  18.347  0.00  0.00    +0.000 A 
ATOM     22  C   UNL     1       2.035   6.613  19.543  0.00  0.00    +0.000 A 
ATOM     23  C   UNL     1       1.919   5.779  20.667  0.00  0.00    +0.000 A 
ATOM     24  C   UNL     1       2.244   4.420  20.593  0.00  0.00    +0.000 A 
ENDBRANCH   1  22
BRANCH  14  25
ATOM     25  C   UNL     1       1.292  14.843  18.791  0.00  0.00    +0.000 A 
ATOM     26  C   UNL     1       1.247  16.231  18.601  0.00  0.00    +0.000 A 
ATOM     27  C   UNL     1       2.356  16.911  18.097  0.00  0.00    +0.000 A 
ATOM     28  C   UNL     1       3.516  16.210  17.779  0.00  0.00    +0.000 A 
ATOM     29  C   UNL     1       3.569  14.829  17.963  0.00  0.00    +0.000 A 
ATOM     30  C   UNL     1       2.459  14.144  18.464  0.00  0.00    +0.000 A 
ENDBRANCH  14  25
TORSDOF 2
ENDMDL
MODEL 9
REMARK VINA RESULT:      -7.8      1.725      2.280
REMARK  Name = 
REMARK  2 active torsions:
REMARK  status: ('A' for Active; 'I' for Inactive)
REMARK    1  A    between atoms: C_5  and  C_6
REMARK    2  A    between atoms: C_19  and  C_20
REMARK                            x       y       z     vdW  Elec       q    Type
REMARK                         _______ _______ _______ _____ _____    ______ ____
ROOT
ATOM      1  C   UNL     1       1.298   8.779  19.919  0.00  0.00    +0.000 C 
ATOM      2  C   UNL     1       1.060   9.187  21.182  0.00  0.00    +0.000 C 
ATOM      3  C   UNL     1       0.435  10.494  21.569  0.00  0.00    +0.000 C 
ATOM      4  N   UNL     1       0.241  11.365  20.420  0.00  0.00    +0.000 N 
ATOM      5  C   UNL     1       0.303  12.753  20.494  0.00  0.00    +0.000 C 
ATOM      6  N   UNL     1       0.556  13.452  19.422  0.00  0.00    +0.000 NA
ATOM      7  C   UNL     1       0.701  14.855  19.477  0.00  0.00    +0.000 A 
ATOM      8  C   UNL     1       1.755  15.390  18.720  0.00  0.00    +0.000 A 
ATOM      9  C   UNL     1       2.009  16.762  18.692  0.00  0.00    +0.000 A 
ATOM     10  C   UNL     1       1.203  17.626  19.423  0.00  0.00    +0.000 A 
ATOM     11  C   UNL     1       0.142  17.114  20.169  0.00  0.00    +0.000 A 
ATOM     12  C   UNL     1      -0.126  15.737  20.212  0.00  0.00    +0.000 A 
ATOM     13  N   UNL     1      -1.239  15.352  20.983  0.00  0.00    +0.000 NA
ATOM     14  C   UNL     1      -1.175  14.304  21.748  0.00  0.00    +0.000 C 
ATOM     15  C   UNL     1       0.063  13.435  21.837  0.00  0.00    +0.000 C 
ATOM     16  C   UNL     1      -0.154  10.698  19.177  0.00  0.00    +0.000 C 
ATOM     17  C   UNL     1       0.910   9.678  18.766  0.00  0.00    +0.000 C 
ENDROOT
BRANCH   1  22
ATOM     18 CL   UNL     1       3.982   3.521  18.748  0.00  0.00    +0.000 Cl
ATOM     19  C   UNL     1       3.217   5.024  19.085  0.00  0.00    +0.000 A 
ATOM     20  C   UNL     1       3.324   6.071  18.178  0.00  0.00    +0.000 A 
ATOM     21  C   UNL     1       2.704   7.293  18.455  0.00  0.00    +0.000 A 
ATOM     22  C   UNL     1       1.956   7.482  19.631  0.00  0.00    +0.000 A 
ATOM     23  C   UNL     1       1.871   6.411  20.534  0.00  0.00    +0.000 A 
ATOM     24  C   UNL     1       2.497   5.189  20.264  0.00  0.00    +0.000 A 
ENDBRANCH   1  22
BRANCH  14  25
ATOM     25  C   UNL     1      -2.387  13.929  22.537  0.00  0.00    +0.000 A 
ATOM     26  C   UNL     1      -2.430  12.661  23.132  0.00  0.00    +0.000 A 
ATOM     27  C   UNL     1      -3.556  12.255  23.850  0.00  0.00    +0.000 A 
ATOM     28  C   UNL     1      -4.645  13.114  23.977  0.00  0.00    +0.000 A 
ATOM     29  C   UNL     1      -4.612  14.376  23.387  0.00  0.00    +0.000 A 
ATOM     30  C   UNL     1      -3.487  14.784  22.664  0.00  0.00    +0.000 A 
ENDBRANCH  14  25
TORSDOF 2
ENDMDL
