MODEL 1
REMARK VINA RESULT:      -7.6      0.000      0.000
REMARK  Name = 
REMARK  10 active torsions:
REMARK  status: ('A' for Active; 'I' for Inactive)
REMARK    1  A    between atoms: C_1  and  O_2
REMARK    2  A    between atoms: O_2  and  C_3
REMARK    3  A    between atoms: C_3  and  C_4
REMARK    4  A    between atoms: C_4  and  N_5
REMARK    5  A    between atoms: N_5  and  C_6
REMARK    6  A    between atoms: C_8  and  N_9
REMARK    7  A    between atoms: C_18  and  C_19
REMARK    8  A    between atoms: C_22  and  C_23
REMARK    9  A    between atoms: CA_25  and  C_26
REMARK   10  A    between atoms: C_32  and  C_33
REMARK                            x       y       z     vdW  Elec       q    Type
REMARK                         _______ _______ _______ _____ _____    ______ ____
ROOT
ATOM      1  N   UNL     1       1.326   9.233  20.130  0.00  0.00    +0.000 N 
ATOM      2  C   UNL     1       0.578   9.157  21.274  0.00  0.00    +0.000 C 
ATOM      3  O   UNL     1       0.363   8.099  21.866  0.00  0.00    +0.000 OA
ATOM      4  N   UNL     1       0.073  10.383  21.744  0.00  0.00    +0.000 N 
ATOM      5  C   UNL     1      -0.627  10.390  23.025  0.00  0.00    +0.000 C 
ATOM      6  C   UNL     1      -1.793  11.364  23.036  0.00  0.00    +0.000 C 
ATOM      7  C   UNL     1      -1.300  12.770  22.729  0.00  0.00    +0.000 C 
ATOM      8  C   UNL     1      -0.339  12.792  21.575  0.00  0.00    +0.000 A 
ATOM      9  C   UNL     1      -0.058  14.010  20.931  0.00  0.00    +0.000 A 
ATOM     10  C   UNL     1       0.865  14.095  19.874  0.00  0.00    +0.000 A 
ATOM     11  CA  UNL     1       1.469  12.894  19.515  0.00  0.00    +0.000 A 
ATOM     12  N   UNL     1       1.201  11.709  20.121  0.00  0.00    +0.000 NA
ATOM     13  C   UNL     1       0.316  11.647  21.133  0.00  0.00    +0.000 A 
ATOM     14  H   UNL     1       1.754  10.135  19.949  0.00  0.00    +0.000 HD
ENDROOT
BRANCH   1  17
ATOM     15  C   UNL     1       2.727   5.899  19.418  0.00  0.00    +0.000 A 
ATOM     16  C   UNL     1       2.177   6.973  20.134  0.00  0.00    +0.000 A 
ATOM     17  C   UNL     1       2.004   8.196  19.513  0.00  0.00    +0.000 A 
ATOM     18  N   UNL     1       2.373   8.438  18.244  0.00  0.00    +0.000 NA
ATOM     19  C   UNL     1       3.012   7.443  17.597  0.00  0.00    +0.000 A 
ATOM     20  C   UNL     1       3.220   6.175  18.131  0.00  0.00    +0.000 A 
BRANCH  15  21
ATOM     21  N   UNL     1       2.880   4.632  19.998  0.00  0.00    +0.000 N 
ATOM     22  H   UNL     1       3.023   3.868  19.340  0.00  0.00    +0.000 HD
BRANCH  21  23
ATOM     23  C   UNL     1       2.099   4.277  21.186  0.00  0.00    +0.000 C 
BRANCH  23  24
ATOM     24  C   UNL     1       1.424   2.911  21.042  0.00  0.00    +0.000 C 
BRANCH  24  26
ATOM     25  C   UNL     1       0.732   2.269  18.884  0.00  0.00    +0.000 C 
ATOM     26  O   UNL     1       1.808   2.308  19.807  0.00  0.00    +0.000 OA
ENDBRANCH  24  26
ENDBRANCH  23  24
ENDBRANCH  21  23
ENDBRANCH  15  21
BRANCH  20  27
ATOM     27  C   UNL     1       3.911   5.212  17.333  0.00  0.00    +0.000 C 
ATOM     28  N   UNL     1       4.467   4.411  16.705  0.00  0.00    +0.000 NA
ENDBRANCH  20  27
ENDBRANCH   1  17
BRANCH  10  29
ATOM     29  C   UNL     1       1.107  15.365  19.184  0.00  0.00    +0.000 A 
ATOM     30  C   UNL     1       2.291  16.022  18.888  0.00  0.00    +0.000 A 
ATOM     31  N   UNL     1       2.171  17.218  18.213  0.00  0.00    +0.000 NA
ATOM     32  C   UNL     1       0.904  17.461  17.968  0.00  0.00    +0.000 A 
ATOM     33  C   UNL     1       0.403  18.631  17.200  0.00  0.00    +0.000 C 
ATOM     34  S   UNL     1      -0.203  16.309  18.584  0.00  0.00    +0.000 S 
ENDBRANCH  10  29
BRANCH  11  35
ATOM     35  C   UNL     1       2.524  12.790  18.474  0.00  0.00    +0.000 C 
ATOM     36  O   UNL     1       2.700  11.784  17.799  0.00  0.00    +0.000 OA
ENDBRANCH  11  35
TORSDOF 8
ENDMDL
MODEL 2
REMARK VINA RESULT:      -7.2      3.983      9.248
REMARK  Name = 
REMARK  10 active torsions:
REMARK  status: ('A' for Active; 'I' for Inactive)
REMARK    1  A    between atoms: C_1  and  O_2
REMARK    2  A    between atoms: O_2  and  C_3
REMARK    3  A    between atoms: C_3  and  C_4
REMARK    4  A    between atoms: C_4  and  N_5
REMARK    5  A    between atoms: N_5  and  C_6
REMARK    6  A    between atoms: C_8  and  N_9
REMARK    7  A    between atoms: C_18  and  C_19
REMARK    8  A    between atoms: C_22  and  C_23
REMARK    9  A    between atoms: CA_25  and  C_26
REMARK   10  A    between atoms: C_32  and  C_33
REMARK                            x       y       z     vdW  Elec       q    Type
REMARK                         _______ _______ _______ _____ _____    ______ ____
ROOT
ATOM      1  N   UNL     1       2.173   6.784  19.904  0.00  0.00    +0.000 N 
ATOM      2  C   UNL     1       1.784   5.580  20.427  0.00  0.00    +0.000 C 
ATOM      3  O   UNL     1       0.985   5.479  21.358  0.00  0.00    +0.000 OA
ATOM      4  N   UNL     1       2.353   4.449  19.814  0.00  0.00    +0.000 N 
ATOM      5  C   UNL     1       1.887   3.132  20.240  0.00  0.00    +0.000 C 
ATOM      6  C   UNL     1       3.007   2.105  20.258  0.00  0.00    +0.000 C 
ATOM      7  C   UNL     1       3.631   1.991  18.875  0.00  0.00    +0.000 C 
ATOM      8  C   UNL     1       3.881   3.337  18.256  0.00  0.00    +0.000 A 
ATOM      9  C   UNL     1       4.757   3.443  17.160  0.00  0.00    +0.000 A 
ATOM     10  C   UNL     1       4.994   4.669  16.517  0.00  0.00    +0.000 A 
ATOM     11  CA  UNL     1       4.307   5.759  17.043  0.00  0.00    +0.000 A 
ATOM     12  N   UNL     1       3.467   5.674  18.105  0.00  0.00    +0.000 NA
ATOM     13  C   UNL     1       3.250   4.491  18.708  0.00  0.00    +0.000 A 
ATOM     14  H   UNL     1       2.500   6.757  18.944  0.00  0.00    +0.000 HD
ENDROOT
BRANCH   1  17
ATOM     15  C   UNL     1       0.596  10.112  19.740  0.00  0.00    +0.000 A 
ATOM     16  C   UNL     1       1.214   8.924  19.322  0.00  0.00    +0.000 A 
ATOM     17  C   UNL     1       1.698   8.034  20.263  0.00  0.00    +0.000 A 
ATOM     18  N   UNL     1       1.645   8.259  21.587  0.00  0.00    +0.000 NA
ATOM     19  C   UNL     1       1.163   9.454  21.982  0.00  0.00    +0.000 A 
ATOM     20  C   UNL     1       0.640  10.407  21.113  0.00  0.00    +0.000 A 
BRANCH  15  21
ATOM     21  N   UNL     1       0.055  11.020  18.819  0.00  0.00    +0.000 N 
ATOM     22  H   UNL     1       0.419  11.969  18.880  0.00  0.00    +0.000 HD
BRANCH  21  23
ATOM     23  C   UNL     1      -1.363  10.932  18.459  0.00  0.00    +0.000 C 
BRANCH  23  24
ATOM     24  C   UNL     1      -1.595  10.015  17.256  0.00  0.00    +0.000 C 
BRANCH  24  26
ATOM     25  C   UNL     1      -2.903  10.799  15.460  0.00  0.00    +0.000 C 
ATOM     26  O   UNL     1      -2.915  10.206  16.749  0.00  0.00    +0.000 OA
ENDBRANCH  24  26
ENDBRANCH  23  24
ENDBRANCH  21  23
ENDBRANCH  15  21
BRANCH  20  27
ATOM     27  C   UNL     1       0.159  11.633  21.667  0.00  0.00    +0.000 C 
ATOM     28  N   UNL     1      -0.210  12.642  22.105  0.00  0.00    +0.000 NA
ENDBRANCH  20  27
ENDBRANCH   1  17
BRANCH  10  29
ATOM     29  C   UNL     1       5.947   4.767  15.407  0.00  0.00    +0.000 A 
ATOM     30  C   UNL     1       7.225   5.300  15.357  0.00  0.00    +0.000 A 
ATOM     31  N   UNL     1       7.867   5.229  14.139  0.00  0.00    +0.000 NA
ATOM     32  C   UNL     1       7.095   4.621  13.269  0.00  0.00    +0.000 A 
ATOM     33  C   UNL     1       7.485   4.308  11.869  0.00  0.00    +0.000 C 
ATOM     34  S   UNL     1       5.549   4.161  13.845  0.00  0.00    +0.000 S 
ENDBRANCH  10  29
BRANCH  11  35
ATOM     35  C   UNL     1       4.368   7.123  16.456  0.00  0.00    +0.000 C 
ATOM     36  O   UNL     1       3.635   8.036  16.811  0.00  0.00    +0.000 OA
ENDBRANCH  11  35
TORSDOF 8
ENDMDL
MODEL 3
REMARK VINA RESULT:      -7.1      0.856      1.146
REMARK  Name = 
REMARK  10 active torsions:
REMARK  status: ('A' for Active; 'I' for Inactive)
REMARK    1  A    between atoms: C_1  and  O_2
REMARK    2  A    between atoms: O_2  and  C_3
REMARK    3  A    between atoms: C_3  and  C_4
REMARK    4  A    between atoms: C_4  and  N_5
REMARK    5  A    between atoms: N_5  and  C_6
REMARK    6  A    between atoms: C_8  and  N_9
REMARK    7  A    between atoms: C_18  and  C_19
REMARK    8  A    between atoms: C_22  and  C_23
REMARK    9  A    between atoms: CA_25  and  C_26
REMARK   10  A    between atoms: C_32  and  C_33
REMARK                            x       y       z     vdW  Elec       q    Type
REMARK                         _______ _______ _______ _____ _____    ______ ____
ROOT
ATOM      1  N   UNL     1       1.738   8.651  19.788  0.00  0.00    +0.000 N 
ATOM      2  C   UNL     1       1.107   8.462  20.988  0.00  0.00    +0.000 C 
ATOM      3  O   UNL     1       1.031   7.364  21.541  0.00  0.00    +0.000 OA
ATOM      4  N   UNL     1       0.555   9.620  21.565  0.00  0.00    +0.000 N 
ATOM      5  C   UNL     1      -0.022   9.511  22.902  0.00  0.00    +0.000 C 
ATOM      6  C   UNL     1      -1.255  10.385  23.067  0.00  0.00    +0.000 C 
ATOM      7  C   UNL     1      -0.902  11.839  22.792  0.00  0.00    +0.000 C 
ATOM      8  C   UNL     1      -0.057  11.991  21.560  0.00  0.00    +0.000 A 
ATOM      9  C   UNL     1       0.068  13.257  20.958  0.00  0.00    +0.000 A 
ATOM     10  C   UNL     1       0.880  13.464  19.830  0.00  0.00    +0.000 A 
ATOM     11  CA  UNL     1       1.540  12.334  19.356  0.00  0.00    +0.000 A 
ATOM     12  N   UNL     1       1.422  11.106  19.920  0.00  0.00    +0.000 NA
ATOM     13  C   UNL     1       0.642  10.925  21.002  0.00  0.00    +0.000 A 
ATOM     14  H   UNL     1       2.076   9.592  19.618  0.00  0.00    +0.000 HD
ENDROOT
BRANCH   1  17
ATOM     15  C   UNL     1       2.888   5.415  18.448  0.00  0.00    +0.000 A 
ATOM     16  C   UNL     1       2.291   6.348  19.308  0.00  0.00    +0.000 A 
ATOM     17  C   UNL     1       2.435   7.701  19.061  0.00  0.00    +0.000 A 
ATOM     18  N   UNL     1       3.162   8.192  18.043  0.00  0.00    +0.000 NA
ATOM     19  C   UNL     1       3.835   7.299  17.290  0.00  0.00    +0.000 A 
ATOM     20  C   UNL     1       3.742   5.920  17.451  0.00  0.00    +0.000 A 
BRANCH  15  21
ATOM     21  N   UNL     1       2.731   4.036  18.638  0.00  0.00    +0.000 N 
ATOM     22  H   UNL     1       3.567   3.477  18.477  0.00  0.00    +0.000 HD
BRANCH  21  23
ATOM     23  C   UNL     1       1.477   3.386  18.246  0.00  0.00    +0.000 C 
BRANCH  23  24
ATOM     24  C   UNL     1       0.799   2.685  19.425  0.00  0.00    +0.000 C 
BRANCH  24  26
ATOM     25  C   UNL     1       1.463   2.714  21.685  0.00  0.00    +0.000 C 
ATOM     26  O   UNL     1       1.783   2.275  20.375  0.00  0.00    +0.000 OA
ENDBRANCH  24  26
ENDBRANCH  23  24
ENDBRANCH  21  23
ENDBRANCH  15  21
BRANCH  20  27
ATOM     27  C   UNL     1       4.509   5.086  16.581  0.00  0.00    +0.000 C 
ATOM     28  N   UNL     1       5.113   4.413  15.854  0.00  0.00    +0.000 NA
ENDBRANCH  20  27
ENDBRANCH   1  17
BRANCH  10  29
ATOM     29  C   UNL     1       0.958  14.780  19.189  0.00  0.00    +0.000 A 
ATOM     30  C   UNL     1       2.052  15.507  18.746  0.00  0.00    +0.000 A 
ATOM     31  N   UNL     1       1.778  16.731  18.173  0.00  0.00    +0.000 NA
ATOM     32  C   UNL     1       0.481  16.928  18.153  0.00  0.00    +0.000 A 
ATOM     33  C   UNL     1      -0.184  18.113  17.550  0.00  0.00    +0.000 C 
ATOM     34  S   UNL     1      -0.467  15.693  18.869  0.00  0.00    +0.000 S 
ENDBRANCH  10  29
BRANCH  11  35
ATOM     35  C   UNL     1       2.498  12.365  18.222  0.00  0.00    +0.000 C 
ATOM     36  O   UNL     1       2.682  11.411  17.477  0.00  0.00    +0.000 OA
ENDBRANCH  11  35
TORSDOF 8
ENDMDL
MODEL 4
REMARK VINA RESULT:      -7.0      1.678      2.630
REMARK  Name = 
REMARK  10 active torsions:
REMARK  status: ('A' for Active; 'I' for Inactive)
REMARK    1  A    between atoms: C_1  and  O_2
REMARK    2  A    between atoms: O_2  and  C_3
REMARK    3  A    between atoms: C_3  and  C_4
REMARK    4  A    between atoms: C_4  and  N_5
REMARK    5  A    between atoms: N_5  and  C_6
REMARK    6  A    between atoms: C_8  and  N_9
REMARK    7  A    between atoms: C_18  and  C_19
REMARK    8  A    between atoms: C_22  and  C_23
REMARK    9  A    between atoms: CA_25  and  C_26
REMARK   10  A    between atoms: C_32  and  C_33
REMARK                            x       y       z     vdW  Elec       q    Type
REMARK                         _______ _______ _______ _____ _____    ______ ____
ROOT
ATOM      1  N   UNL     1       0.908   9.271  20.383  0.00  0.00    +0.000 N 
ATOM      2  C   UNL     1       0.096   9.333  21.483  0.00  0.00    +0.000 C 
ATOM      3  O   UNL     1      -0.241   8.337  22.125  0.00  0.00    +0.000 OA
ATOM      4  N   UNL     1      -0.324  10.625  21.847  0.00  0.00    +0.000 N 
ATOM      5  C   UNL     1      -1.089  10.774  23.083  0.00  0.00    +0.000 C 
ATOM      6  C   UNL     1      -2.165  11.841  22.965  0.00  0.00    +0.000 C 
ATOM      7  C   UNL     1      -1.535  13.178  22.603  0.00  0.00    +0.000 C 
ATOM      8  C   UNL     1      -0.516  13.043  21.509  0.00  0.00    +0.000 A 
ATOM      9  C   UNL     1      -0.096  14.189  20.809  0.00  0.00    +0.000 A 
ATOM     10  C   UNL     1       0.886  14.127  19.806  0.00  0.00    +0.000 A 
ATOM     11  CA  UNL     1       1.403  12.858  19.557  0.00  0.00    +0.000 A 
ATOM     12  N   UNL     1       1.000  11.743  20.216  0.00  0.00    +0.000 NA
ATOM     13  C   UNL     1       0.060  11.821  21.176  0.00  0.00    +0.000 A 
ATOM     14  H   UNL     1       1.422  10.121  20.173  0.00  0.00    +0.000 HD
ENDROOT
BRANCH   1  17
ATOM     15  C   UNL     1       2.966   7.056  18.275  0.00  0.00    +0.000 A 
ATOM     16  C   UNL     1       2.223   8.175  18.678  0.00  0.00    +0.000 A 
ATOM     17  C   UNL     1       1.526   8.143  19.872  0.00  0.00    +0.000 A 
ATOM     18  N   UNL     1       1.485   7.065  20.673  0.00  0.00    +0.000 NA
ATOM     19  C   UNL     1       2.099   5.951  20.227  0.00  0.00    +0.000 A 
ATOM     20  C   UNL     1       2.837   5.889  19.048  0.00  0.00    +0.000 A 
BRANCH  15  21
ATOM     21  N   UNL     1       3.720   7.063  17.093  0.00  0.00    +0.000 N 
ATOM     22  H   UNL     1       3.432   6.385  16.390  0.00  0.00    +0.000 HD
BRANCH  21  23
ATOM     23  C   UNL     1       5.165   7.302  17.154  0.00  0.00    +0.000 C 
BRANCH  23  24
ATOM     24  C   UNL     1       5.966   6.125  16.593  0.00  0.00    +0.000 C 
BRANCH  24  26
ATOM     25  C   UNL     1       5.704   4.668  14.761  0.00  0.00    +0.000 C 
ATOM     26  O   UNL     1       5.752   6.020  15.186  0.00  0.00    +0.000 OA
ENDBRANCH  24  26
ENDBRANCH  23  24
ENDBRANCH  21  23
ENDBRANCH  15  21
BRANCH  20  27
ATOM     27  C   UNL     1       3.438   4.643  18.694  0.00  0.00    +0.000 C 
ATOM     28  N   UNL     1       3.913   3.619  18.427  0.00  0.00    +0.000 NA
ENDBRANCH  20  27
ENDBRANCH   1  17
BRANCH  10  29
ATOM     29  C   UNL     1       1.275  15.324  19.055  0.00  0.00    +0.000 A 
ATOM     30  C   UNL     1       2.520  15.761  18.630  0.00  0.00    +0.000 A 
ATOM     31  N   UNL     1       2.542  16.949  17.930  0.00  0.00    +0.000 NA
ATOM     32  C   UNL     1       1.318  17.404  17.796  0.00  0.00    +0.000 A 
ATOM     33  C   UNL     1       0.952  18.631  17.040  0.00  0.00    +0.000 C 
ATOM     34  S   UNL     1       0.094  16.472  18.548  0.00  0.00    +0.000 S 
ENDBRANCH  10  29
BRANCH  11  35
ATOM     35  C   UNL     1       2.498  12.599  18.587  0.00  0.00    +0.000 C 
ATOM     36  O   UNL     1       2.519  11.623  17.849  0.00  0.00    +0.000 OA
ENDBRANCH  11  35
TORSDOF 8
ENDMDL
MODEL 5
REMARK VINA RESULT:      -6.9      3.883      9.410
REMARK  Name = 
REMARK  10 active torsions:
REMARK  status: ('A' for Active; 'I' for Inactive)
REMARK    1  A    between atoms: C_1  and  O_2
REMARK    2  A    between atoms: O_2  and  C_3
REMARK    3  A    between atoms: C_3  and  C_4
REMARK    4  A    between atoms: C_4  and  N_5
REMARK    5  A    between atoms: N_5  and  C_6
REMARK    6  A    between atoms: C_8  and  N_9
REMARK    7  A    between atoms: C_18  and  C_19
REMARK    8  A    between atoms: C_22  and  C_23
REMARK    9  A    between atoms: CA_25  and  C_26
REMARK   10  A    between atoms: C_32  and  C_33
REMARK                            x       y       z     vdW  Elec       q    Type
REMARK                         _______ _______ _______ _____ _____    ______ ____
ROOT
ATOM      1  N   UNL     1       2.171   6.736  19.815  0.00  0.00    +0.000 N 
ATOM      2  C   UNL     1       1.742   5.531  20.305  0.00  0.00    +0.000 C 
ATOM      3  O   UNL     1       0.930   5.432  21.225  0.00  0.00    +0.000 OA
ATOM      4  N   UNL     1       2.285   4.399  19.672  0.00  0.00    +0.000 N 
ATOM      5  C   UNL     1       1.777   3.087  20.062  0.00  0.00    +0.000 C 
ATOM      6  C   UNL     1       2.867   2.028  20.068  0.00  0.00    +0.000 C 
ATOM      7  C   UNL     1       3.503   1.928  18.689  0.00  0.00    +0.000 C 
ATOM      8  C   UNL     1       3.798   3.279  18.105  0.00  0.00    +0.000 A 
ATOM      9  C   UNL     1       4.689   3.386  17.021  0.00  0.00    +0.000 A 
ATOM     10  C   UNL     1       4.968   4.619  16.409  0.00  0.00    +0.000 A 
ATOM     11  CA  UNL     1       4.307   5.716  16.953  0.00  0.00    +0.000 A 
ATOM     12  N   UNL     1       3.453   5.631  18.004  0.00  0.00    +0.000 NA
ATOM     13  C   UNL     1       3.195   4.441  18.577  0.00  0.00    +0.000 A 
ATOM     14  H   UNL     1       2.508   6.721  18.858  0.00  0.00    +0.000 HD
ENDROOT
BRANCH   1  17
ATOM     15  C   UNL     1       0.741  10.132  19.700  0.00  0.00    +0.000 A 
ATOM     16  C   UNL     1       1.333   8.935  19.269  0.00  0.00    +0.000 A 
ATOM     17  C   UNL     1       1.728   7.990  20.198  0.00  0.00    +0.000 A 
ATOM     18  N   UNL     1       1.611   8.167  21.525  0.00  0.00    +0.000 NA
ATOM     19  C   UNL     1       1.156   9.365  21.941  0.00  0.00    +0.000 A 
ATOM     20  C   UNL     1       0.721  10.372  21.085  0.00  0.00    +0.000 A 
BRANCH  15  21
ATOM     21  N   UNL     1       0.289  11.096  18.789  0.00  0.00    +0.000 N 
ATOM     22  H   UNL     1       0.611  12.046  18.966  0.00  0.00    +0.000 HD
BRANCH  21  23
ATOM     23  C   UNL     1      -1.071  11.004  18.249  0.00  0.00    +0.000 C 
BRANCH  23  24
ATOM     24  C   UNL     1      -1.941  12.187  18.678  0.00  0.00    +0.000 C 
BRANCH  24  26
ATOM     25  C   UNL     1      -3.626  12.834  20.192  0.00  0.00    +0.000 C 
ATOM     26  O   UNL     1      -2.640  11.864  19.880  0.00  0.00    +0.000 OA
ENDBRANCH  24  26
ENDBRANCH  23  24
ENDBRANCH  21  23
ENDBRANCH  15  21
BRANCH  20  27
ATOM     27  C   UNL     1       0.260  11.595  21.661  0.00  0.00    +0.000 C 
ATOM     28  N   UNL     1      -0.101  12.603  22.109  0.00  0.00    +0.000 NA
ENDBRANCH  20  27
ENDBRANCH   1  17
BRANCH  10  29
ATOM     29  C   UNL     1       5.936   4.716  15.312  0.00  0.00    +0.000 A 
ATOM     30  C   UNL     1       7.217   5.244  15.280  0.00  0.00    +0.000 A 
ATOM     31  N   UNL     1       7.875   5.172  14.070  0.00  0.00    +0.000 NA
ATOM     32  C   UNL     1       7.112   4.568  13.189  0.00  0.00    +0.000 A 
ATOM     33  C   UNL     1       7.519   4.256  11.794  0.00  0.00    +0.000 C 
ATOM     34  S   UNL     1       5.557   4.112  13.744  0.00  0.00    +0.000 S 
ENDBRANCH  10  29
BRANCH  11  35
ATOM     35  C   UNL     1       4.414   7.091  16.399  0.00  0.00    +0.000 C 
ATOM     36  O   UNL     1       3.692   8.013  16.757  0.00  0.00    +0.000 OA
ENDBRANCH  11  35
TORSDOF 8
ENDMDL
MODEL 6
REMARK VINA RESULT:      -6.9      3.517      9.556
REMARK  Name = 
REMARK  10 active torsions:
REMARK  status: ('A' for Active; 'I' for Inactive)
REMARK    1  A    between atoms: C_1  and  O_2
REMARK    2  A    between atoms: O_2  and  C_3
REMARK    3  A    between atoms: C_3  and  C_4
REMARK    4  A    between atoms: C_4  and  N_5
REMARK    5  A    between atoms: N_5  and  C_6
REMARK    6  A    between atoms: C_8  and  N_9
REMARK    7  A    between atoms: C_18  and  C_19
REMARK    8  A    between atoms: C_22  and  C_23
REMARK    9  A    between atoms: CA_25  and  C_26
REMARK   10  A    between atoms: C_32  and  C_33
REMARK                            x       y       z     vdW  Elec       q    Type
REMARK                         _______ _______ _______ _____ _____    ______ ____
ROOT
ATOM      1  N   UNL     1       2.150   6.765  19.752  0.00  0.00    +0.000 N 
ATOM      2  C   UNL     1       1.688   5.572  20.239  0.00  0.00    +0.000 C 
ATOM      3  O   UNL     1       0.867   5.493  21.154  0.00  0.00    +0.000 OA
ATOM      4  N   UNL     1       2.209   4.425  19.612  0.00  0.00    +0.000 N 
ATOM      5  C   UNL     1       1.665   3.126  19.999  0.00  0.00    +0.000 C 
ATOM      6  C   UNL     1       2.729   2.041  20.015  0.00  0.00    +0.000 C 
ATOM      7  C   UNL     1       3.373   1.924  18.641  0.00  0.00    +0.000 C 
ATOM      8  C   UNL     1       3.706   3.268  18.058  0.00  0.00    +0.000 A 
ATOM      9  C   UNL     1       4.608   3.351  16.981  0.00  0.00    +0.000 A 
ATOM     10  C   UNL     1       4.922   4.576  16.370  0.00  0.00    +0.000 A 
ATOM     11  CA  UNL     1       4.283   5.690  16.908  0.00  0.00    +0.000 A 
ATOM     12  N   UNL     1       3.419   5.627  17.952  0.00  0.00    +0.000 NA
ATOM     13  C   UNL     1       3.128   4.444  18.524  0.00  0.00    +0.000 A 
ATOM     14  H   UNL     1       2.494   6.741  18.798  0.00  0.00    +0.000 HD
ENDROOT
BRANCH   1  17
ATOM     15  C   UNL     1       1.023  10.271  19.604  0.00  0.00    +0.000 A 
ATOM     16  C   UNL     1       1.597   9.053  19.211  0.00  0.00    +0.000 A 
ATOM     17  C   UNL     1       1.735   8.030  20.130  0.00  0.00    +0.000 A 
ATOM     18  N   UNL     1       1.379   8.145  21.421  0.00  0.00    +0.000 NA
ATOM     19  C   UNL     1       0.942   9.354  21.826  0.00  0.00    +0.000 A 
ATOM     20  C   UNL     1       0.754  10.438  20.974  0.00  0.00    +0.000 A 
BRANCH  15  21
ATOM     21  N   UNL     1       0.826  11.318  18.693  0.00  0.00    +0.000 N 
ATOM     22  H   UNL     1       0.203  11.107  17.916  0.00  0.00    +0.000 HD
BRANCH  21  23
ATOM     23  C   UNL     1       1.942  12.207  18.356  0.00  0.00    +0.000 C 
BRANCH  23  24
ATOM     24  C   UNL     1       1.565  13.683  18.504  0.00  0.00    +0.000 C 
BRANCH  24  26
ATOM     25  C   UNL     1      -0.246  15.066  19.102  0.00  0.00    +0.000 C 
ATOM     26  O   UNL     1       0.145  13.818  18.554  0.00  0.00    +0.000 OA
ENDBRANCH  24  26
ENDBRANCH  23  24
ENDBRANCH  21  23
ENDBRANCH  15  21
BRANCH  20  27
ATOM     27  C   UNL     1       0.282  11.664  21.536  0.00  0.00    +0.000 C 
ATOM     28  N   UNL     1      -0.092  12.673  21.970  0.00  0.00    +0.000 NA
ENDBRANCH  20  27
ENDBRANCH   1  17
BRANCH  10  29
ATOM     29  C   UNL     1       5.901   4.648  15.281  0.00  0.00    +0.000 A 
ATOM     30  C   UNL     1       7.204   5.118  15.266  0.00  0.00    +0.000 A 
ATOM     31  N   UNL     1       7.866   5.037  14.059  0.00  0.00    +0.000 NA
ATOM     32  C   UNL     1       7.083   4.483  13.162  0.00  0.00    +0.000 A 
ATOM     33  C   UNL     1       7.485   4.177  11.764  0.00  0.00    +0.000 C 
ATOM     34  S   UNL     1       5.505   4.089  13.700  0.00  0.00    +0.000 S 
ENDBRANCH  10  29
BRANCH  11  35
ATOM     35  C   UNL     1       4.428   7.061  16.353  0.00  0.00    +0.000 C 
ATOM     36  O   UNL     1       3.767   8.013  16.746  0.00  0.00    +0.000 OA
ENDBRANCH  11  35
TORSDOF 8
ENDMDL
MODEL 7
REMARK VINA RESULT:      -6.8      1.168      1.295
REMARK  Name = 
REMARK  10 active torsions:
REMARK  status: ('A' for Active; 'I' for Inactive)
REMARK    1  A    between atoms: C_1  and  O_2
REMARK    2  A    between atoms: O_2  and  C_3
REMARK    3  A    between atoms: C_3  and  C_4
REMARK    4  A    between atoms: C_4  and  N_5
REMARK    5  A    between atoms: N_5  and  C_6
REMARK    6  A    between atoms: C_8  and  N_9
REMARK    7  A    between atoms: C_18  and  C_19
REMARK    8  A    between atoms: C_22  and  C_23
REMARK    9  A    between atoms: CA_25  and  C_26
REMARK   10  A    between atoms: C_32  and  C_33
REMARK                            x       y       z     vdW  Elec       q    Type
REMARK                         _______ _______ _______ _____ _____    ______ ____
ROOT
ATOM      1  N   UNL     1       0.540   9.802  20.507  0.00  0.00    +0.000 N 
ATOM      2  C   UNL     1      -0.178   9.766  21.672  0.00  0.00    +0.000 C 
ATOM      3  O   UNL     1      -0.294   8.750  22.358  0.00  0.00    +0.000 OA
ATOM      4  N   UNL     1      -0.771  10.985  22.049  0.00  0.00    +0.000 N 
ATOM      5  C   UNL     1      -1.445  11.047  23.343  0.00  0.00    +0.000 C 
ATOM      6  C   UNL     1      -2.686  11.923  23.301  0.00  0.00    +0.000 C 
ATOM      7  C   UNL     1      -2.315  13.332  22.862  0.00  0.00    +0.000 C 
ATOM      8  C   UNL     1      -1.381  13.329  21.686  0.00  0.00    +0.000 A 
ATOM      9  C   UNL     1      -1.213  14.505  20.933  0.00  0.00    +0.000 A 
ATOM     10  C   UNL     1      -0.320  14.570  19.850  0.00  0.00    +0.000 A 
ATOM     11  CA  UNL     1       0.373  13.394  19.579  0.00  0.00    +0.000 A 
ATOM     12  N   UNL     1       0.214  12.250  20.290  0.00  0.00    +0.000 NA
ATOM     13  C   UNL     1      -0.644  12.206  21.326  0.00  0.00    +0.000 A 
ATOM     14  H   UNL     1       0.889  10.716  20.239  0.00  0.00    +0.000 HD
ENDROOT
BRANCH   1  17
ATOM     15  C   UNL     1       2.232   6.557  20.067  0.00  0.00    +0.000 A 
ATOM     16  C   UNL     1       1.613   7.646  20.698  0.00  0.00    +0.000 A 
ATOM     17  C   UNL     1       1.288   8.772  19.964  0.00  0.00    +0.000 A 
ATOM     18  N   UNL     1       1.570   8.907  18.657  0.00  0.00    +0.000 NA
ATOM     19  C   UNL     1       2.274   7.912  18.081  0.00  0.00    +0.000 A 
ATOM     20  C   UNL     1       2.633   6.736  18.731  0.00  0.00    +0.000 A 
BRANCH  15  21
ATOM     21  N   UNL     1       2.539   5.381  20.765  0.00  0.00    +0.000 N 
ATOM     22  H   UNL     1       3.523   5.119  20.764  0.00  0.00    +0.000 HD
BRANCH  21  23
ATOM     23  C   UNL     1       1.606   4.251  20.731  0.00  0.00    +0.000 C 
BRANCH  23  24
ATOM     24  C   UNL     1       2.332   2.905  20.787  0.00  0.00    +0.000 C 
BRANCH  24  26
ATOM     25  C   UNL     1       1.014   2.768  18.839  0.00  0.00    +0.000 C 
ATOM     26  O   UNL     1       1.940   2.097  19.678  0.00  0.00    +0.000 OA
ENDBRANCH  24  26
ENDBRANCH  23  24
ENDBRANCH  21  23
ENDBRANCH  15  21
BRANCH  20  27
ATOM     27  C   UNL     1       3.378   5.761  18.000  0.00  0.00    +0.000 C 
ATOM     28  N   UNL     1       3.962   4.967  17.388  0.00  0.00    +0.000 NA
ENDBRANCH  20  27
ENDBRANCH   1  17
BRANCH  10  29
ATOM     29  C   UNL     1      -0.195  15.791  19.048  0.00  0.00    +0.000 A 
ATOM     30  C   UNL     1      -1.137  16.747  18.703  0.00  0.00    +0.000 A 
ATOM     31  N   UNL     1      -0.685  17.794  17.927  0.00  0.00    +0.000 NA
ATOM     32  C   UNL     1       0.601  17.654  17.703  0.00  0.00    +0.000 A 
ATOM     33  C   UNL     1       1.438  18.630  16.957  0.00  0.00    +0.000 C 
ATOM     34  S   UNL     1       1.316  16.241  18.354  0.00  0.00    +0.000 S 
ENDBRANCH  10  29
BRANCH  11  35
ATOM     35  C   UNL     1       1.412  13.285  18.523  0.00  0.00    +0.000 C 
ATOM     36  O   UNL     1       2.079  12.274  18.345  0.00  0.00    +0.000 OA
ENDBRANCH  11  35
TORSDOF 8
ENDMDL
MODEL 8
REMARK VINA RESULT:      -6.7      1.813      3.127
REMARK  Name = 
REMARK  10 active torsions:
REMARK  status: ('A' for Active; 'I' for Inactive)
REMARK    1  A    between atoms: C_1  and  O_2
REMARK    2  A    between atoms: O_2  and  C_3
REMARK    3  A    between atoms: C_3  and  C_4
REMARK    4  A    between atoms: C_4  and  N_5
REMARK    5  A    between atoms: N_5  and  C_6
REMARK    6  A    between atoms: C_8  and  N_9
REMARK    7  A    between atoms: C_18  and  C_19
REMARK    8  A    between atoms: C_22  and  C_23
REMARK    9  A    between atoms: CA_25  and  C_26
REMARK   10  A    between atoms: C_32  and  C_33
REMARK                            x       y       z     vdW  Elec       q    Type
REMARK                         _______ _______ _______ _____ _____    ______ ____
ROOT
ATOM      1  N   UNL     1       1.504   8.720  19.893  0.00  0.00    +0.000 N 
ATOM      2  C   UNL     1       0.859   8.632  21.097  0.00  0.00    +0.000 C 
ATOM      3  O   UNL     1       0.691   7.566  21.692  0.00  0.00    +0.000 OA
ATOM      4  N   UNL     1       0.404   9.853  21.625  0.00  0.00    +0.000 N 
ATOM      5  C   UNL     1      -0.181   9.845  22.963  0.00  0.00    +0.000 C 
ATOM      6  C   UNL     1      -1.336  10.825  23.089  0.00  0.00    +0.000 C 
ATOM      7  C   UNL     1      -0.863  12.233  22.759  0.00  0.00    +0.000 C 
ATOM      8  C   UNL     1      -0.007  12.266  21.526  0.00  0.00    +0.000 A 
ATOM      9  C   UNL     1       0.223  13.491  20.876  0.00  0.00    +0.000 A 
ATOM     10  C   UNL     1       1.050  13.586  19.743  0.00  0.00    +0.000 A 
ATOM     11  CA  UNL     1       1.614  12.388  19.317  0.00  0.00    +0.000 A 
ATOM     12  N   UNL     1       1.393  11.196  19.928  0.00  0.00    +0.000 NA
ATOM     13  C   UNL     1       0.600  11.124  21.012  0.00  0.00    +0.000 A 
ATOM     14  H   UNL     1       1.920   9.623  19.687  0.00  0.00    +0.000 HD
ENDROOT
BRANCH   1  17
ATOM     15  C   UNL     1       3.679   6.874  17.559  0.00  0.00    +0.000 A 
ATOM     16  C   UNL     1       2.950   7.929  18.126  0.00  0.00    +0.000 A 
ATOM     17  C   UNL     1       2.120   7.688  19.205  0.00  0.00    +0.000 A 
ATOM     18  N   UNL     1       1.934   6.467  19.735  0.00  0.00    +0.000 NA
ATOM     19  C   UNL     1       2.539   5.436  19.113  0.00  0.00    +0.000 A 
ATOM     20  C   UNL     1       3.404   5.579  18.032  0.00  0.00    +0.000 A 
BRANCH  15  21
ATOM     21  N   UNL     1       4.564   7.083  16.492  0.00  0.00    +0.000 N 
ATOM     22  H   UNL     1       4.145   7.038  15.565  0.00  0.00    +0.000 HD
BRANCH  21  23
ATOM     23  C   UNL     1       5.932   6.564  16.569  0.00  0.00    +0.000 C 
BRANCH  23  24
ATOM     24  C   UNL     1       6.739   7.235  17.683  0.00  0.00    +0.000 C 
BRANCH  24  26
ATOM     25  C   UNL     1       8.174   9.081  17.971  0.00  0.00    +0.000 C 
ATOM     26  O   UNL     1       7.791   8.016  17.117  0.00  0.00    +0.000 OA
ENDBRANCH  24  26
ENDBRANCH  23  24
ENDBRANCH  21  23
ENDBRANCH  15  21
BRANCH  20  27
ATOM     27  C   UNL     1       3.980   4.400  17.468  0.00  0.00    +0.000 C 
ATOM     28  N   UNL     1       4.448   3.454  16.985  0.00  0.00    +0.000 NA
ENDBRANCH  20  27
ENDBRANCH   1  17
BRANCH  10  29
ATOM     29  C   UNL     1       1.239  14.865  19.052  0.00  0.00    +0.000 A 
ATOM     30  C   UNL     1       2.388  15.473  18.572  0.00  0.00    +0.000 A 
ATOM     31  N   UNL     1       2.218  16.695  17.955  0.00  0.00    +0.000 NA
ATOM     32  C   UNL     1       0.943  17.007  17.939  0.00  0.00    +0.000 A 
ATOM     33  C   UNL     1       0.381  18.224  17.296  0.00  0.00    +0.000 C 
ATOM     34  S   UNL     1      -0.102  15.890  18.709  0.00  0.00    +0.000 S 
ENDBRANCH  10  29
BRANCH  11  35
ATOM     35  C   UNL     1       2.573  12.294  18.186  0.00  0.00    +0.000 C 
ATOM     36  O   UNL     1       2.676  11.300  17.479  0.00  0.00    +0.000 OA
ENDBRANCH  11  35
TORSDOF 8
ENDMDL
MODEL 9
REMARK VINA RESULT:      -6.6      5.331      7.155
REMARK  Name = 
REMARK  10 active torsions:
REMARK  status: ('A' for Active; 'I' for Inactive)
REMARK    1  A    between atoms: C_1  and  O_2
REMARK    2  A    between atoms: O_2  and  C_3
REMARK    3  A    between atoms: C_3  and  C_4
REMARK    4  A    between atoms: C_4  and  N_5
REMARK    5  A    between atoms: N_5  and  C_6
REMARK    6  A    between atoms: C_8  and  N_9
REMARK    7  A    between atoms: C_18  and  C_19
REMARK    8  A    between atoms: C_22  and  C_23
REMARK    9  A    between atoms: CA_25  and  C_26
REMARK   10  A    between atoms: C_32  and  C_33
REMARK                            x       y       z     vdW  Elec       q    Type
REMARK                         _______ _______ _______ _____ _____    ______ ____
ROOT
ATOM      1  N   UNL     1      -4.676  12.564  19.907  0.00  0.00    +0.000 N 
ATOM      2  C   UNL     1      -5.854  12.209  20.508  0.00  0.00    +0.000 C 
ATOM      3  O   UNL     1      -6.652  11.416  20.006  0.00  0.00    +0.000 OA
ATOM      4  N   UNL     1      -6.093  12.805  21.759  0.00  0.00    +0.000 N 
ATOM      5  C   UNL     1      -7.269  12.375  22.510  0.00  0.00    +0.000 C 
ATOM      6  C   UNL     1      -7.916  13.522  23.269  0.00  0.00    +0.000 C 
ATOM      7  C   UNL     1      -6.912  14.144  24.228  0.00  0.00    +0.000 C 
ATOM      8  C   UNL     1      -5.572  14.356  23.582  0.00  0.00    +0.000 A 
ATOM      9  C   UNL     1      -4.644  15.225  24.184  0.00  0.00    +0.000 A 
ATOM     10  C   UNL     1      -3.362  15.427  23.646  0.00  0.00    +0.000 A 
ATOM     11  CA  UNL     1      -3.085  14.714  22.484  0.00  0.00    +0.000 A 
ATOM     12  N   UNL     1      -3.973  13.880  21.887  0.00  0.00    +0.000 NA
ATOM     13  C   UNL     1      -5.196  13.696  22.416  0.00  0.00    +0.000 A 
ATOM     14  H   UNL     1      -3.948  12.888  20.535  0.00  0.00    +0.000 HD
ENDROOT
BRANCH   1  17
ATOM     15  C   UNL     1      -2.458  10.899  17.479  0.00  0.00    +0.000 A 
ATOM     16  C   UNL     1      -2.883  11.546  18.649  0.00  0.00    +0.000 A 
ATOM     17  C   UNL     1      -4.165  12.058  18.725  0.00  0.00    +0.000 A 
ATOM     18  N   UNL     1      -5.041  12.005  17.708  0.00  0.00    +0.000 NA
ATOM     19  C   UNL     1      -4.593  11.492  16.544  0.00  0.00    +0.000 A 
ATOM     20  C   UNL     1      -3.327  10.941  16.374  0.00  0.00    +0.000 A 
BRANCH  15  21
ATOM     21  N   UNL     1      -1.181  10.330  17.377  0.00  0.00    +0.000 N 
ATOM     22  H   UNL     1      -1.124   9.491  16.803  0.00  0.00    +0.000 HD
BRANCH  21  23
ATOM     23  C   UNL     1      -0.288  10.337  18.539  0.00  0.00    +0.000 C 
BRANCH  23  24
ATOM     24  C   UNL     1       1.144   9.949  18.165  0.00  0.00    +0.000 C 
BRANCH  24  26
ATOM     25  C   UNL     1       2.405   7.960  18.130  0.00  0.00    +0.000 C 
ATOM     26  O   UNL     1       1.536   8.784  18.889  0.00  0.00    +0.000 OA
ENDBRANCH  24  26
ENDBRANCH  23  24
ENDBRANCH  21  23
ENDBRANCH  15  21
BRANCH  20  27
ATOM     27  C   UNL     1      -2.981  10.430  15.086  0.00  0.00    +0.000 C 
ATOM     28  N   UNL     1      -2.681   9.998  14.052  0.00  0.00    +0.000 NA
ENDBRANCH  20  27
ENDBRANCH   1  17
BRANCH  10  29
ATOM     29  C   UNL     1      -2.426  16.374  24.261  0.00  0.00    +0.000 A 
ATOM     30  C   UNL     1      -2.061  17.657  23.887  0.00  0.00    +0.000 A 
ATOM     31  N   UNL     1      -1.143  18.290  24.699  0.00  0.00    +0.000 NA
ATOM     32  C   UNL     1      -0.829  17.506  25.703  0.00  0.00    +0.000 A 
ATOM     33  C   UNL     1       0.085  17.882  26.814  0.00  0.00    +0.000 C 
ATOM     34  S   UNL     1      -1.564  15.959  25.694  0.00  0.00    +0.000 S 
ENDBRANCH  10  29
BRANCH  11  35
ATOM     35  C   UNL     1      -1.762  14.737  21.807  0.00  0.00    +0.000 C 
ATOM     36  O   UNL     1      -1.482  15.529  20.916  0.00  0.00    +0.000 OA
ENDBRANCH  11  35
TORSDOF 8
ENDMDL
