MODEL 1
REMARK VINA RESULT:      -7.1      0.000      0.000
REMARK  Name = 
REMARK  10 active torsions:
REMARK  status: ('A' for Active; 'I' for Inactive)
REMARK    1  A    between atoms: N_3  and  C_4
REMARK    2  A    between atoms: C_4  and  C_5
REMARK    3  A    between atoms: C_5  and  C_6
REMARK    4  A    between atoms: C_6  and  C_7
REMARK    5  A    between atoms: C_7  and  C_8
REMARK    6  A    between atoms: C_8  and  C_9
REMARK    7  A    between atoms: C_9  and  O_10
REMARK    8  A    between atoms: O_10  and  C_11
REMARK    9  A    between atoms: C_14  and  C_15
REMARK   10  A    between atoms: N_24  and  C_25
REMARK                            x       y       z     vdW  Elec       q    Type
REMARK                         _______ _______ _______ _____ _____    ______ ____
ROOT
ATOM      1  C   UNL     1       1.713   5.131  20.998  0.00  0.00    +0.000 C 
ENDROOT
BRANCH   1   2
ATOM      2  C   UNL     1       2.743   5.963  20.237  0.00  0.00    +0.000 C 
BRANCH   2   3
ATOM      3  C   UNL     1       2.056   6.844  19.198  0.00  0.00    +0.000 C 
BRANCH   3   6
ATOM      4  O   UNL     1       1.661   9.329  17.759  0.00  0.00    +0.000 OA
ATOM      5  C   UNL     1       1.425   9.261  18.957  0.00  0.00    +0.000 C 
ATOM      6  N   UNL     1       1.630   8.116  19.739  0.00  0.00    +0.000 N 
ATOM      7  C   UNL     1       0.997   8.270  21.022  0.00  0.00    +0.000 C 
ATOM      8  C   UNL     1       0.965   9.782  21.190  0.00  0.00    +0.000 C 
ATOM      9  N   UNL     1       0.946  10.270  19.826  0.00  0.00    +0.000 N 
BRANCH   9  10
ATOM     10  C   UNL     1       0.681  11.614  19.472  0.00  0.00    +0.000 A 
ATOM     11  C   UNL     1       1.438  12.661  20.001  0.00  0.00    +0.000 A 
ATOM     12  C   UNL     1       1.135  13.964  19.635  0.00  0.00    +0.000 A 
ATOM     13  N   UNL     1       0.138  14.294  18.790  0.00  0.00    +0.000 NA
ATOM     14  C   UNL     1      -0.580  13.271  18.284  0.00  0.00    +0.000 A 
ATOM     15  C   UNL     1      -0.343  11.935  18.579  0.00  0.00    +0.000 A 
ENDBRANCH   9  10
ENDBRANCH   3   6
ENDBRANCH   2   3
ENDBRANCH   1   2
BRANCH   1  16
ATOM     16  C   UNL     1       0.832   4.329  20.038  0.00  0.00    +0.000 C 
BRANCH  16  17
ATOM     17  C   UNL     1       1.067   2.819  20.117  0.00  0.00    +0.000 C 
BRANCH  17  18
ATOM     18  C   UNL     1       0.980   2.143  18.754  0.00  0.00    +0.000 C 
BRANCH  18  19
ATOM     19  O   UNL     1       2.275   1.674  18.382  0.00  0.00    +0.000 OA
BRANCH  19  20
ATOM     20  C   UNL     1       3.216   2.658  18.238  0.00  0.00    +0.000 A 
ATOM     21  C   UNL     1       4.199   2.695  19.225  0.00  0.00    +0.000 A 
ATOM     22  C   UNL     1       5.198   3.674  19.192  0.00  0.00    +0.000 A 
ATOM     23  C   UNL     1       5.242   4.625  18.160  0.00  0.00    +0.000 A 
ATOM     24  C   UNL     1       4.275   4.546  17.152  0.00  0.00    +0.000 A 
ATOM     25  C   UNL     1       3.269   3.575  17.190  0.00  0.00    +0.000 A 
BRANCH  23  26
ATOM     26  C   UNL     1       6.289   5.660  18.146  0.00  0.00    +0.000 A 
ATOM     27  C   UNL     1       7.364   5.823  19.005  0.00  0.00    +0.000 A 
ATOM     28  C   UNL     1       8.163   6.959  18.685  0.00  0.00    +0.000 A 
ATOM     29  C   UNL     1       7.680   7.637  17.592  0.00  0.00    +0.000 A 
ATOM     30  S   UNL     1       6.264   6.918  16.970  0.00  0.00    +0.000 S 
ENDBRANCH  23  26
ENDBRANCH  19  20
ENDBRANCH  18  19
ENDBRANCH  17  18
ENDBRANCH  16  17
ENDBRANCH   1  16
TORSDOF 10
ENDMDL
MODEL 2
REMARK VINA RESULT:      -7.1      3.996      9.193
REMARK  Name = 
REMARK  10 active torsions:
REMARK  status: ('A' for Active; 'I' for Inactive)
REMARK    1  A    between atoms: N_3  and  C_4
REMARK    2  A    between atoms: C_4  and  C_5
REMARK    3  A    between atoms: C_5  and  C_6
REMARK    4  A    between atoms: C_6  and  C_7
REMARK    5  A    between atoms: C_7  and  C_8
REMARK    6  A    between atoms: C_8  and  C_9
REMARK    7  A    between atoms: C_9  and  O_10
REMARK    8  A    between atoms: O_10  and  C_11
REMARK    9  A    between atoms: C_14  and  C_15
REMARK   10  A    between atoms: N_24  and  C_25
REMARK                            x       y       z     vdW  Elec       q    Type
REMARK                         _______ _______ _______ _____ _____    ______ ____
ROOT
ATOM      1  C   UNL     1       2.624   4.658  21.089  0.00  0.00    +0.000 C 
ENDROOT
BRANCH   1   2
ATOM      2  C   UNL     1       1.976   3.285  21.248  0.00  0.00    +0.000 C 
BRANCH   2   3
ATOM      3  C   UNL     1       2.578   2.291  20.260  0.00  0.00    +0.000 C 
BRANCH   3   6
ATOM      4  O   UNL     1       5.217   3.152  19.423  0.00  0.00    +0.000 OA
ATOM      5  C   UNL     1       4.262   3.254  18.667  0.00  0.00    +0.000 C 
ATOM      6  N   UNL     1       2.947   2.907  19.004  0.00  0.00    +0.000 N 
ATOM      7  C   UNL     1       2.122   2.874  17.824  0.00  0.00    +0.000 C 
ATOM      8  C   UNL     1       2.852   3.830  16.891  0.00  0.00    +0.000 C 
ATOM      9  N   UNL     1       4.226   3.754  17.343  0.00  0.00    +0.000 N 
BRANCH   9  10
ATOM     10  C   UNL     1       5.323   4.295  16.630  0.00  0.00    +0.000 A 
ATOM     11  C   UNL     1       5.682   3.799  15.376  0.00  0.00    +0.000 A 
ATOM     12  C   UNL     1       6.772   4.351  14.719  0.00  0.00    +0.000 A 
ATOM     13  N   UNL     1       7.523   5.351  15.222  0.00  0.00    +0.000 NA
ATOM     14  C   UNL     1       7.160   5.822  16.432  0.00  0.00    +0.000 A 
ATOM     15  C   UNL     1       6.077   5.345  17.158  0.00  0.00    +0.000 A 
ENDBRANCH   9  10
ENDBRANCH   3   6
ENDBRANCH   2   3
ENDBRANCH   1   2
BRANCH   1  16
ATOM     16  C   UNL     1       1.595   5.711  20.674  0.00  0.00    +0.000 C 
BRANCH  16  17
ATOM     17  C   UNL     1       2.201   6.877  19.890  0.00  0.00    +0.000 C 
BRANCH  17  18
ATOM     18  C   UNL     1       1.725   8.233  20.398  0.00  0.00    +0.000 C 
BRANCH  18  19
ATOM     19  O   UNL     1       0.626   8.038  21.288  0.00  0.00    +0.000 OA
BRANCH  19  20
ATOM     20  C   UNL     1      -0.032   9.186  21.638  0.00  0.00    +0.000 A 
ATOM     21  C   UNL     1      -0.269  10.082  20.598  0.00  0.00    +0.000 A 
ATOM     22  C   UNL     1      -0.913  11.299  20.845  0.00  0.00    +0.000 A 
ATOM     23  C   UNL     1      -1.348  11.635  22.137  0.00  0.00    +0.000 A 
ATOM     24  C   UNL     1      -1.143  10.705  23.162  0.00  0.00    +0.000 A 
ATOM     25  C   UNL     1      -0.489   9.493  22.919  0.00  0.00    +0.000 A 
BRANCH  23  26
ATOM     26  C   UNL     1      -2.011  12.927  22.387  0.00  0.00    +0.000 A 
ATOM     27  C   UNL     1      -3.205  13.406  21.875  0.00  0.00    +0.000 A 
ATOM     28  C   UNL     1      -3.521  14.717  22.336  0.00  0.00    +0.000 A 
ATOM     29  C   UNL     1      -2.561  15.207  23.188  0.00  0.00    +0.000 A 
ATOM     30  S   UNL     1      -1.282  14.103  23.413  0.00  0.00    +0.000 S 
ENDBRANCH  23  26
ENDBRANCH  19  20
ENDBRANCH  18  19
ENDBRANCH  17  18
ENDBRANCH  16  17
ENDBRANCH   1  16
TORSDOF 10
ENDMDL
MODEL 3
REMARK VINA RESULT:      -6.9      2.781      3.274
REMARK  Name = 
REMARK  10 active torsions:
REMARK  status: ('A' for Active; 'I' for Inactive)
REMARK    1  A    between atoms: N_3  and  C_4
REMARK    2  A    between atoms: C_4  and  C_5
REMARK    3  A    between atoms: C_5  and  C_6
REMARK    4  A    between atoms: C_6  and  C_7
REMARK    5  A    between atoms: C_7  and  C_8
REMARK    6  A    between atoms: C_8  and  C_9
REMARK    7  A    between atoms: C_9  and  O_10
REMARK    8  A    between atoms: O_10  and  C_11
REMARK    9  A    between atoms: C_14  and  C_15
REMARK   10  A    between atoms: N_24  and  C_25
REMARK                            x       y       z     vdW  Elec       q    Type
REMARK                         _______ _______ _______ _____ _____    ______ ____
ROOT
ATOM      1  C   UNL     1       2.710   6.338  20.119  0.00  0.00    +0.000 C 
ENDROOT
BRANCH   1   2
ATOM      2  C   UNL     1       1.676   7.448  19.944  0.00  0.00    +0.000 C 
BRANCH   2   3
ATOM      3  C   UNL     1       1.318   8.063  21.293  0.00  0.00    +0.000 C 
BRANCH   3   6
ATOM      4  O   UNL     1       0.421   9.824  23.413  0.00  0.00    +0.000 OA
ATOM      5  C   UNL     1       0.134  10.059  22.248  0.00  0.00    +0.000 C 
ATOM      6  N   UNL     1       0.486   9.239  21.167  0.00  0.00    +0.000 N 
ATOM      7  C   UNL     1       0.253   9.926  19.924  0.00  0.00    +0.000 C 
ATOM      8  C   UNL     1      -0.834  10.921  20.301  0.00  0.00    +0.000 C 
ATOM      9  N   UNL     1      -0.615  11.136  21.717  0.00  0.00    +0.000 N 
BRANCH   9  10
ATOM     10  C   UNL     1      -1.239  12.162  22.466  0.00  0.00    +0.000 A 
ATOM     11  C   UNL     1      -0.630  13.407  22.628  0.00  0.00    +0.000 A 
ATOM     12  C   UNL     1      -1.271  14.380  23.381  0.00  0.00    +0.000 A 
ATOM     13  N   UNL     1      -2.464  14.198  23.982  0.00  0.00    +0.000 NA
ATOM     14  C   UNL     1      -3.041  12.991  23.812  0.00  0.00    +0.000 A 
ATOM     15  C   UNL     1      -2.484  11.962  23.064  0.00  0.00    +0.000 A 
ENDBRANCH   9  10
ENDBRANCH   3   6
ENDBRANCH   2   3
ENDBRANCH   1   2
BRANCH   1  16
ATOM     16  C   UNL     1       2.207   5.261  21.083  0.00  0.00    +0.000 C 
BRANCH  16  17
ATOM     17  C   UNL     1       1.008   4.477  20.546  0.00  0.00    +0.000 C 
BRANCH  17  18
ATOM     18  C   UNL     1       1.122   2.980  20.812  0.00  0.00    +0.000 C 
BRANCH  18  19
ATOM     19  O   UNL     1       1.183   2.288  19.566  0.00  0.00    +0.000 OA
BRANCH  19  20
ATOM     20  C   UNL     1       2.130   2.761  18.698  0.00  0.00    +0.000 A 
ATOM     21  C   UNL     1       3.433   2.331  18.942  0.00  0.00    +0.000 A 
ATOM     22  C   UNL     1       4.486   2.770  18.134  0.00  0.00    +0.000 A 
ATOM     23  C   UNL     1       4.253   3.635  17.053  0.00  0.00    +0.000 A 
ATOM     24  C   UNL     1       2.933   4.021  16.793  0.00  0.00    +0.000 A 
ATOM     25  C   UNL     1       1.881   3.592  17.608  0.00  0.00    +0.000 A 
BRANCH  23  26
ATOM     26  C   UNL     1       5.373   4.104  16.218  0.00  0.00    +0.000 A 
ATOM     27  C   UNL     1       5.475   4.136  14.837  0.00  0.00    +0.000 A 
ATOM     28  C   UNL     1       6.725   4.646  14.383  0.00  0.00    +0.000 A 
ATOM     29  C   UNL     1       7.549   4.990  15.428  0.00  0.00    +0.000 A 
ATOM     30  S   UNL     1       6.825   4.682  16.941  0.00  0.00    +0.000 S 
ENDBRANCH  23  26
ENDBRANCH  19  20
ENDBRANCH  18  19
ENDBRANCH  17  18
ENDBRANCH  16  17
ENDBRANCH   1  16
TORSDOF 10
ENDMDL
MODEL 4
REMARK VINA RESULT:      -6.8      3.997      8.726
REMARK  Name = 
REMARK  10 active torsions:
REMARK  status: ('A' for Active; 'I' for Inactive)
REMARK    1  A    between atoms: N_3  and  C_4
REMARK    2  A    between atoms: C_4  and  C_5
REMARK    3  A    between atoms: C_5  and  C_6
REMARK    4  A    between atoms: C_6  and  C_7
REMARK    5  A    between atoms: C_7  and  C_8
REMARK    6  A    between atoms: C_8  and  C_9
REMARK    7  A    between atoms: C_9  and  O_10
REMARK    8  A    between atoms: O_10  and  C_11
REMARK    9  A    between atoms: C_14  and  C_15
REMARK   10  A    between atoms: N_24  and  C_25
REMARK                            x       y       z     vdW  Elec       q    Type
REMARK                         _______ _______ _______ _____ _____    ______ ____
ROOT
ATOM      1  C   UNL     1       1.094   3.390  20.702  0.00  0.00    +0.000 C 
ENDROOT
BRANCH   1   2
ATOM      2  C   UNL     1       2.324   3.237  21.593  0.00  0.00    +0.000 C 
BRANCH   2   3
ATOM      3  C   UNL     1       3.359   2.339  20.925  0.00  0.00    +0.000 C 
BRANCH   3   6
ATOM      4  O   UNL     1       5.189   4.177  19.630  0.00  0.00    +0.000 OA
ATOM      5  C   UNL     1       4.438   3.477  18.966  0.00  0.00    +0.000 C 
ATOM      6  N   UNL     1       3.492   2.597  19.508  0.00  0.00    +0.000 N 
ATOM      7  C   UNL     1       2.977   1.727  18.484  0.00  0.00    +0.000 C 
ATOM      8  C   UNL     1       3.183   2.552  17.222  0.00  0.00    +0.000 C 
ATOM      9  N   UNL     1       4.307   3.402  17.559  0.00  0.00    +0.000 N 
BRANCH   9  10
ATOM     10  C   UNL     1       5.015   4.185  16.616  0.00  0.00    +0.000 A 
ATOM     11  C   UNL     1       4.828   5.566  16.541  0.00  0.00    +0.000 A 
ATOM     12  C   UNL     1       5.534   6.293  15.594  0.00  0.00    +0.000 A 
ATOM     13  N   UNL     1       6.402   5.743  14.721  0.00  0.00    +0.000 NA
ATOM     14  C   UNL     1       6.575   4.408  14.809  0.00  0.00    +0.000 A 
ATOM     15  C   UNL     1       5.925   3.601  15.733  0.00  0.00    +0.000 A 
ENDBRANCH   9  10
ENDBRANCH   3   6
ENDBRANCH   2   3
ENDBRANCH   1   2
BRANCH   1  16
ATOM     16  C   UNL     1       1.128   4.712  19.932  0.00  0.00    +0.000 C 
BRANCH  16  17
ATOM     17  C   UNL     1       2.039   5.762  20.569  0.00  0.00    +0.000 C 
BRANCH  17  18
ATOM     18  C   UNL     1       1.263   6.956  21.114  0.00  0.00    +0.000 C 
BRANCH  18  19
ATOM     19  O   UNL     1       1.538   8.099  20.305  0.00  0.00    +0.000 OA
BRANCH  19  20
ATOM     20  C   UNL     1       0.823   9.218  20.639  0.00  0.00    +0.000 A 
ATOM     21  C   UNL     1       0.459   9.317  21.980  0.00  0.00    +0.000 A 
ATOM     22  C   UNL     1      -0.294  10.407  22.430  0.00  0.00    +0.000 A 
ATOM     23  C   UNL     1      -0.683  11.428  21.549  0.00  0.00    +0.000 A 
ATOM     24  C   UNL     1      -0.270  11.336  20.214  0.00  0.00    +0.000 A 
ATOM     25  C   UNL     1       0.472  10.242  19.761  0.00  0.00    +0.000 A 
BRANCH  23  26
ATOM     26  C   UNL     1      -1.490  12.561  22.031  0.00  0.00    +0.000 A 
ATOM     27  C   UNL     1      -1.462  13.187  23.267  0.00  0.00    +0.000 A 
ATOM     28  C   UNL     1      -2.407  14.247  23.375  0.00  0.00    +0.000 A 
ATOM     29  C   UNL     1      -3.135  14.406  22.221  0.00  0.00    +0.000 A 
ATOM     30  S   UNL     1      -2.694  13.273  21.026  0.00  0.00    +0.000 S 
ENDBRANCH  23  26
ENDBRANCH  19  20
ENDBRANCH  18  19
ENDBRANCH  17  18
ENDBRANCH  16  17
ENDBRANCH   1  16
TORSDOF 10
ENDMDL
MODEL 5
REMARK VINA RESULT:      -6.8      4.081      9.377
REMARK  Name = 
REMARK  10 active torsions:
REMARK  status: ('A' for Active; 'I' for Inactive)
REMARK    1  A    between atoms: N_3  and  C_4
REMARK    2  A    between atoms: C_4  and  C_5
REMARK    3  A    between atoms: C_5  and  C_6
REMARK    4  A    between atoms: C_6  and  C_7
REMARK    5  A    between atoms: C_7  and  C_8
REMARK    6  A    between atoms: C_8  and  C_9
REMARK    7  A    between atoms: C_9  and  O_10
REMARK    8  A    between atoms: O_10  and  C_11
REMARK    9  A    between atoms: C_14  and  C_15
REMARK   10  A    between atoms: N_24  and  C_25
REMARK                            x       y       z     vdW  Elec       q    Type
REMARK                         _______ _______ _______ _____ _____    ______ ____
ROOT
ATOM      1  C   UNL     1       1.570   4.796  20.503  0.00  0.00    +0.000 C 
ENDROOT
BRANCH   1   2
ATOM      2  C   UNL     1       2.235   3.837  21.488  0.00  0.00    +0.000 C 
BRANCH   2   3
ATOM      3  C   UNL     1       2.895   2.681  20.745  0.00  0.00    +0.000 C 
BRANCH   3   6
ATOM      4  O   UNL     1       5.317   3.997  19.851  0.00  0.00    +0.000 OA
ATOM      5  C   UNL     1       4.479   3.626  19.043  0.00  0.00    +0.000 C 
ATOM      6  N   UNL     1       3.261   3.025  19.388  0.00  0.00    +0.000 N 
ATOM      7  C   UNL     1       2.638   2.456  18.222  0.00  0.00    +0.000 C 
ATOM      8  C   UNL     1       3.221   3.300  17.098  0.00  0.00    +0.000 C 
ATOM      9  N   UNL     1       4.496   3.734  17.632  0.00  0.00    +0.000 N 
BRANCH   9  10
ATOM     10  C   UNL     1       5.506   4.355  16.859  0.00  0.00    +0.000 A 
ATOM     11  C   UNL     1       6.163   5.498  17.317  0.00  0.00    +0.000 A 
ATOM     12  C   UNL     1       7.138   6.081  16.521  0.00  0.00    +0.000 A 
ATOM     13  N   UNL     1       7.497   5.611  15.309  0.00  0.00    +0.000 NA
ATOM     14  C   UNL     1       6.856   4.503  14.883  0.00  0.00    +0.000 A 
ATOM     15  C   UNL     1       5.879   3.842  15.615  0.00  0.00    +0.000 A 
ENDBRANCH   9  10
ENDBRANCH   3   6
ENDBRANCH   2   3
ENDBRANCH   1   2
BRANCH   1  16
ATOM     16  C   UNL     1       1.645   6.241  21.001  0.00  0.00    +0.000 C 
BRANCH  16  17
ATOM     17  C   UNL     1       2.055   7.237  19.915  0.00  0.00    +0.000 C 
BRANCH  17  18
ATOM     18  C   UNL     1       1.337   8.575  20.048  0.00  0.00    +0.000 C 
BRANCH  18  19
ATOM     19  O   UNL     1       1.152   8.870  21.432  0.00  0.00    +0.000 OA
BRANCH  19  20
ATOM     20  C   UNL     1       0.215   9.834  21.688  0.00  0.00    +0.000 A 
ATOM     21  C   UNL     1      -0.198  10.576  20.584  0.00  0.00    +0.000 A 
ATOM     22  C   UNL     1      -1.135  11.604  20.733  0.00  0.00    +0.000 A 
ATOM     23  C   UNL     1      -1.690  11.898  21.989  0.00  0.00    +0.000 A 
ATOM     24  C   UNL     1      -1.299  11.113  23.080  0.00  0.00    +0.000 A 
ATOM     25  C   UNL     1      -0.354  10.093  22.934  0.00  0.00    +0.000 A 
BRANCH  23  26
ATOM     26  C   UNL     1      -2.663  12.994  22.136  0.00  0.00    +0.000 A 
ATOM     27  C   UNL     1      -3.249  13.774  21.152  0.00  0.00    +0.000 A 
ATOM     28  C   UNL     1      -4.138  14.755  21.679  0.00  0.00    +0.000 A 
ATOM     29  C   UNL     1      -4.209  14.702  23.050  0.00  0.00    +0.000 A 
ATOM     30  S   UNL     1      -3.197  13.491  23.695  0.00  0.00    +0.000 S 
ENDBRANCH  23  26
ENDBRANCH  19  20
ENDBRANCH  18  19
ENDBRANCH  17  18
ENDBRANCH  16  17
ENDBRANCH   1  16
TORSDOF 10
ENDMDL
MODEL 6
REMARK VINA RESULT:      -6.7      3.844      9.006
REMARK  Name = 
REMARK  10 active torsions:
REMARK  status: ('A' for Active; 'I' for Inactive)
REMARK    1  A    between atoms: N_3  and  C_4
REMARK    2  A    between atoms: C_4  and  C_5
REMARK    3  A    between atoms: C_5  and  C_6
REMARK    4  A    between atoms: C_6  and  C_7
REMARK    5  A    between atoms: C_7  and  C_8
REMARK    6  A    between atoms: C_8  and  C_9
REMARK    7  A    between atoms: C_9  and  O_10
REMARK    8  A    between atoms: O_10  and  C_11
REMARK    9  A    between atoms: C_14  and  C_15
REMARK   10  A    between atoms: N_24  and  C_25
REMARK                            x       y       z     vdW  Elec       q    Type
REMARK                         _______ _______ _______ _____ _____    ______ ____
ROOT
ATOM      1  C   UNL     1       2.097   4.406  21.339  0.00  0.00    +0.000 C 
ENDROOT
BRANCH   1   2
ATOM      2  C   UNL     1       1.544   2.987  21.223  0.00  0.00    +0.000 C 
BRANCH   2   3
ATOM      3  C   UNL     1       2.499   2.105  20.426  0.00  0.00    +0.000 C 
BRANCH   3   6
ATOM      4  O   UNL     1       5.100   3.144  19.678  0.00  0.00    +0.000 OA
ATOM      5  C   UNL     1       4.180   3.135  18.873  0.00  0.00    +0.000 C 
ATOM      6  N   UNL     1       2.881   2.695  19.162  0.00  0.00    +0.000 N 
ATOM      7  C   UNL     1       2.124   2.546  17.947  0.00  0.00    +0.000 C 
ATOM      8  C   UNL     1       2.821   3.518  17.008  0.00  0.00    +0.000 C 
ATOM      9  N   UNL     1       4.172   3.575  17.528  0.00  0.00    +0.000 N 
BRANCH   9  10
ATOM     10  C   UNL     1       5.258   4.174  16.844  0.00  0.00    +0.000 A 
ATOM     11  C   UNL     1       5.303   4.203  15.449  0.00  0.00    +0.000 A 
ATOM     12  C   UNL     1       6.392   4.789  14.821  0.00  0.00    +0.000 A 
ATOM     13  N   UNL     1       7.431   5.339  15.480  0.00  0.00    +0.000 NA
ATOM     14  C   UNL     1       7.370   5.307  16.827  0.00  0.00    +0.000 A 
ATOM     15  C   UNL     1       6.315   4.757  17.543  0.00  0.00    +0.000 A 
ENDBRANCH   9  10
ENDBRANCH   3   6
ENDBRANCH   2   3
ENDBRANCH   1   2
BRANCH   1  16
ATOM     16  C   UNL     1       1.291   5.386  20.483  0.00  0.00    +0.000 C 
BRANCH  16  17
ATOM     17  C   UNL     1       2.147   6.483  19.849  0.00  0.00    +0.000 C 
BRANCH  17  18
ATOM     18  C   UNL     1       1.820   7.868  20.395  0.00  0.00    +0.000 C 
BRANCH  18  19
ATOM     19  O   UNL     1       1.411   8.710  19.318  0.00  0.00    +0.000 OA
BRANCH  19  20
ATOM     20  C   UNL     1       0.585   9.739  19.682  0.00  0.00    +0.000 A 
ATOM     21  C   UNL     1       0.142  10.549  18.638  0.00  0.00    +0.000 A 
ATOM     22  C   UNL     1      -0.687  11.646  18.897  0.00  0.00    +0.000 A 
ATOM     23  C   UNL     1      -1.103  11.944  20.204  0.00  0.00    +0.000 A 
ATOM     24  C   UNL     1      -0.686  11.094  21.236  0.00  0.00    +0.000 A 
ATOM     25  C   UNL     1       0.152  10.004  20.980  0.00  0.00    +0.000 A 
BRANCH  23  26
ATOM     26  C   UNL     1      -1.962  13.111  20.466  0.00  0.00    +0.000 A 
ATOM     27  C   UNL     1      -1.601  14.439  20.623  0.00  0.00    +0.000 A 
ATOM     28  C   UNL     1      -2.714  15.290  20.881  0.00  0.00    +0.000 A 
ATOM     29  C   UNL     1      -3.898  14.593  20.916  0.00  0.00    +0.000 A 
ATOM     30  S   UNL     1      -3.663  12.924  20.659  0.00  0.00    +0.000 S 
ENDBRANCH  23  26
ENDBRANCH  19  20
ENDBRANCH  18  19
ENDBRANCH  17  18
ENDBRANCH  16  17
ENDBRANCH   1  16
TORSDOF 10
ENDMDL
MODEL 7
REMARK VINA RESULT:      -6.7      5.405      9.950
REMARK  Name = 
REMARK  10 active torsions:
REMARK  status: ('A' for Active; 'I' for Inactive)
REMARK    1  A    between atoms: N_3  and  C_4
REMARK    2  A    between atoms: C_4  and  C_5
REMARK    3  A    between atoms: C_5  and  C_6
REMARK    4  A    between atoms: C_6  and  C_7
REMARK    5  A    between atoms: C_7  and  C_8
REMARK    6  A    between atoms: C_8  and  C_9
REMARK    7  A    between atoms: C_9  and  O_10
REMARK    8  A    between atoms: O_10  and  C_11
REMARK    9  A    between atoms: C_14  and  C_15
REMARK   10  A    between atoms: N_24  and  C_25
REMARK                            x       y       z     vdW  Elec       q    Type
REMARK                         _______ _______ _______ _____ _____    ______ ____
ROOT
ATOM      1  C   UNL     1       8.733  10.367  18.164  0.00  0.00    +0.000 C 
ENDROOT
BRANCH   1   2
ATOM      2  C   UNL     1       8.644   8.897  18.565  0.00  0.00    +0.000 C 
BRANCH   2   3
ATOM      3  C   UNL     1       7.998   8.078  17.453  0.00  0.00    +0.000 C 
BRANCH   3   6
ATOM      4  O   UNL     1       5.487   7.162  16.330  0.00  0.00    +0.000 OA
ATOM      5  C   UNL     1       5.955   6.624  17.323  0.00  0.00    +0.000 C 
ATOM      6  N   UNL     1       7.137   7.031  17.958  0.00  0.00    +0.000 N 
ATOM      7  C   UNL     1       7.560   6.035  18.908  0.00  0.00    +0.000 C 
ATOM      8  C   UNL     1       6.251   5.343  19.258  0.00  0.00    +0.000 C 
ATOM      9  N   UNL     1       5.441   5.540  18.073  0.00  0.00    +0.000 N 
BRANCH   9  10
ATOM     10  C   UNL     1       4.216   4.872  17.833  0.00  0.00    +0.000 A 
ATOM     11  C   UNL     1       3.006   5.406  18.276  0.00  0.00    +0.000 A 
ATOM     12  C   UNL     1       1.831   4.712  18.030  0.00  0.00    +0.000 A 
ATOM     13  N   UNL     1       1.779   3.531  17.383  0.00  0.00    +0.000 NA
ATOM     14  C   UNL     1       2.957   3.030  16.957  0.00  0.00    +0.000 A 
ATOM     15  C   UNL     1       4.180   3.659  17.143  0.00  0.00    +0.000 A 
ENDBRANCH   9  10
ENDBRANCH   3   6
ENDBRANCH   2   3
ENDBRANCH   1   2
BRANCH   1  16
ATOM     16  C   UNL     1      10.170  10.884  18.269  0.00  0.00    +0.000 C 
BRANCH  16  17
ATOM     17  C   UNL     1      10.388  12.219  17.555  0.00  0.00    +0.000 C 
BRANCH  17  18
ATOM     18  C   UNL     1      11.401  13.106  18.271  0.00  0.00    +0.000 C 
BRANCH  18  19
ATOM     19  O   UNL     1      10.753  14.306  18.693  0.00  0.00    +0.000 OA
BRANCH  19  20
ATOM     20  C   UNL     1       9.845  14.138  19.703  0.00  0.00    +0.000 A 
ATOM     21  C   UNL     1      10.353  13.596  20.881  0.00  0.00    +0.000 A 
ATOM     22  C   UNL     1       9.510  13.357  21.971  0.00  0.00    +0.000 A 
ATOM     23  C   UNL     1       8.144  13.674  21.910  0.00  0.00    +0.000 A 
ATOM     24  C   UNL     1       7.658  14.260  20.735  0.00  0.00    +0.000 A 
ATOM     25  C   UNL     1       8.497  14.488  19.640  0.00  0.00    +0.000 A 
BRANCH  23  26
ATOM     26  C   UNL     1       7.263  13.403  23.058  0.00  0.00    +0.000 A 
ATOM     27  C   UNL     1       6.478  14.287  23.780  0.00  0.00    +0.000 A 
ATOM     28  C   UNL     1       5.767  13.659  24.843  0.00  0.00    +0.000 A 
ATOM     29  C   UNL     1       6.026  12.310  24.909  0.00  0.00    +0.000 A 
ATOM     30  S   UNL     1       7.133  11.814  23.710  0.00  0.00    +0.000 S 
ENDBRANCH  23  26
ENDBRANCH  19  20
ENDBRANCH  18  19
ENDBRANCH  17  18
ENDBRANCH  16  17
ENDBRANCH   1  16
TORSDOF 10
ENDMDL
MODEL 8
REMARK VINA RESULT:      -6.6      5.507      8.060
REMARK  Name = 
REMARK  10 active torsions:
REMARK  status: ('A' for Active; 'I' for Inactive)
REMARK    1  A    between atoms: N_3  and  C_4
REMARK    2  A    between atoms: C_4  and  C_5
REMARK    3  A    between atoms: C_5  and  C_6
REMARK    4  A    between atoms: C_6  and  C_7
REMARK    5  A    between atoms: C_7  and  C_8
REMARK    6  A    between atoms: C_8  and  C_9
REMARK    7  A    between atoms: C_9  and  O_10
REMARK    8  A    between atoms: O_10  and  C_11
REMARK    9  A    between atoms: C_14  and  C_15
REMARK   10  A    between atoms: N_24  and  C_25
REMARK                            x       y       z     vdW  Elec       q    Type
REMARK                         _______ _______ _______ _____ _____    ______ ____
ROOT
ATOM      1  C   UNL     1       8.415   7.864  18.470  0.00  0.00    +0.000 C 
ENDROOT
BRANCH   1   2
ATOM      2  C   UNL     1       8.751   9.270  18.959  0.00  0.00    +0.000 C 
BRANCH   2   3
ATOM      3  C   UNL     1       8.729  10.259  17.797  0.00  0.00    +0.000 C 
BRANCH   3   6
ATOM      4  O   UNL     1       7.858  12.981  17.316  0.00  0.00    +0.000 OA
ATOM      5  C   UNL     1       8.931  12.760  17.859  0.00  0.00    +0.000 C 
ATOM      6  N   UNL     1       9.450  11.478  18.088  0.00  0.00    +0.000 N 
ATOM      7  C   UNL     1      10.574  11.550  18.986  0.00  0.00    +0.000 C 
ATOM      8  C   UNL     1      11.078  12.968  18.762  0.00  0.00    +0.000 C 
ATOM      9  N   UNL     1       9.892  13.682  18.337  0.00  0.00    +0.000 N 
BRANCH   9  10
ATOM     10  C   UNL     1       9.813  15.091  18.233  0.00  0.00    +0.000 A 
ATOM     11  C   UNL     1       9.021  15.835  19.109  0.00  0.00    +0.000 A 
ATOM     12  C   UNL     1       8.963  17.213  18.963  0.00  0.00    +0.000 A 
ATOM     13  N   UNL     1       9.631  17.895  18.011  0.00  0.00    +0.000 NA
ATOM     14  C   UNL     1      10.396  17.162  17.176  0.00  0.00    +0.000 A 
ATOM     15  C   UNL     1      10.528  15.783  17.253  0.00  0.00    +0.000 A 
ENDBRANCH   9  10
ENDBRANCH   3   6
ENDBRANCH   2   3
ENDBRANCH   1   2
BRANCH   1  16
ATOM     16  C   UNL     1       7.265   7.888  17.460  0.00  0.00    +0.000 C 
BRANCH  16  17
ATOM     17  C   UNL     1       6.541   6.547  17.331  0.00  0.00    +0.000 C 
BRANCH  17  18
ATOM     18  C   UNL     1       5.277   6.645  16.485  0.00  0.00    +0.000 C 
BRANCH  18  19
ATOM     19  O   UNL     1       4.254   5.848  17.082  0.00  0.00    +0.000 OA
BRANCH  19  20
ATOM     20  C   UNL     1       3.466   6.513  17.982  0.00  0.00    +0.000 A 
ATOM     21  C   UNL     1       2.984   7.749  17.556  0.00  0.00    +0.000 A 
ATOM     22  C   UNL     1       2.189   8.529  18.403  0.00  0.00    +0.000 A 
ATOM     23  C   UNL     1       1.845   8.077  19.687  0.00  0.00    +0.000 A 
ATOM     24  C   UNL     1       2.299   6.813  20.083  0.00  0.00    +0.000 A 
ATOM     25  C   UNL     1       3.104   6.039  19.241  0.00  0.00    +0.000 A 
BRANCH  23  26
ATOM     26  C   UNL     1       1.021   8.914  20.576  0.00  0.00    +0.000 A 
ATOM     27  C   UNL     1       0.816   8.794  21.941  0.00  0.00    +0.000 A 
ATOM     28  C   UNL     1      -0.066   9.786  22.459  0.00  0.00    +0.000 A 
ATOM     29  C   UNL     1      -0.514  10.638  21.479  0.00  0.00    +0.000 A 
ATOM     30  S   UNL     1       0.109  10.231  19.945  0.00  0.00    +0.000 S 
ENDBRANCH  23  26
ENDBRANCH  19  20
ENDBRANCH  18  19
ENDBRANCH  17  18
ENDBRANCH  16  17
ENDBRANCH   1  16
TORSDOF 10
ENDMDL
MODEL 9
REMARK VINA RESULT:      -6.5      3.709      8.708
REMARK  Name = 
REMARK  10 active torsions:
REMARK  status: ('A' for Active; 'I' for Inactive)
REMARK    1  A    between atoms: N_3  and  C_4
REMARK    2  A    between atoms: C_4  and  C_5
REMARK    3  A    between atoms: C_5  and  C_6
REMARK    4  A    between atoms: C_6  and  C_7
REMARK    5  A    between atoms: C_7  and  C_8
REMARK    6  A    between atoms: C_8  and  C_9
REMARK    7  A    between atoms: C_9  and  O_10
REMARK    8  A    between atoms: O_10  and  C_11
REMARK    9  A    between atoms: C_14  and  C_15
REMARK   10  A    between atoms: N_24  and  C_25
REMARK                            x       y       z     vdW  Elec       q    Type
REMARK                         _______ _______ _______ _____ _____    ______ ____
ROOT
ATOM      1  C   UNL     1       0.757   4.977  20.176  0.00  0.00    +0.000 C 
ENDROOT
BRANCH   1   2
ATOM      2  C   UNL     1       0.797   3.474  20.441  0.00  0.00    +0.000 C 
BRANCH   2   3
ATOM      3  C   UNL     1       1.353   2.733  19.229  0.00  0.00    +0.000 C 
BRANCH   3   6
ATOM      4  O   UNL     1       2.618   4.383  17.210  0.00  0.00    +0.000 OA
ATOM      5  C   UNL     1       3.291   3.811  18.055  0.00  0.00    +0.000 C 
ATOM      6  N   UNL     1       2.768   2.959  19.037  0.00  0.00    +0.000 N 
ATOM      7  C   UNL     1       3.767   2.677  20.035  0.00  0.00    +0.000 C 
ATOM      8  C   UNL     1       5.063   2.877  19.263  0.00  0.00    +0.000 C 
ATOM      9  N   UNL     1       4.695   3.825  18.231  0.00  0.00    +0.000 N 
BRANCH   9  10
ATOM     10  C   UNL     1       5.629   4.495  17.405  0.00  0.00    +0.000 A 
ATOM     11  C   UNL     1       5.972   3.990  16.150  0.00  0.00    +0.000 A 
ATOM     12  C   UNL     1       6.901   4.673  15.379  0.00  0.00    +0.000 A 
ATOM     13  N   UNL     1       7.509   5.811  15.769  0.00  0.00    +0.000 NA
ATOM     14  C   UNL     1       7.163   6.288  16.983  0.00  0.00    +0.000 A 
ATOM     15  C   UNL     1       6.234   5.683  17.818  0.00  0.00    +0.000 A 
ENDBRANCH   9  10
ENDBRANCH   3   6
ENDBRANCH   2   3
ENDBRANCH   1   2
BRANCH   1  16
ATOM     16  C   UNL     1       1.820   5.712  20.996  0.00  0.00    +0.000 C 
BRANCH  16  17
ATOM     17  C   UNL     1       1.790   7.230  20.806  0.00  0.00    +0.000 C 
BRANCH  17  18
ATOM     18  C   UNL     1       1.953   7.639  19.346  0.00  0.00    +0.000 C 
BRANCH  18  19
ATOM     19  O   UNL     1       1.918   9.063  19.254  0.00  0.00    +0.000 OA
BRANCH  19  20
ATOM     20  C   UNL     1       0.697   9.582  18.917  0.00  0.00    +0.000 A 
ATOM     21  C   UNL     1       0.024  10.243  19.943  0.00  0.00    +0.000 A 
ATOM     22  C   UNL     1      -1.243  10.792  19.718  0.00  0.00    +0.000 A 
ATOM     23  C   UNL     1      -1.854  10.704  18.458  0.00  0.00    +0.000 A 
ATOM     24  C   UNL     1      -1.146  10.077  17.426  0.00  0.00    +0.000 A 
ATOM     25  C   UNL     1       0.116   9.517  17.652  0.00  0.00    +0.000 A 
BRANCH  23  26
ATOM     26  C   UNL     1      -3.196  11.271  18.238  0.00  0.00    +0.000 A 
ATOM     27  C   UNL     1      -4.007  11.956  19.129  0.00  0.00    +0.000 A 
ATOM     28  C   UNL     1      -5.254  12.343  18.559  0.00  0.00    +0.000 A 
ATOM     29  C   UNL     1      -5.367  11.944  17.248  0.00  0.00    +0.000 A 
ATOM     30  S   UNL     1      -3.986  11.094  16.719  0.00  0.00    +0.000 S 
ENDBRANCH  23  26
ENDBRANCH  19  20
ENDBRANCH  18  19
ENDBRANCH  17  18
ENDBRANCH  16  17
ENDBRANCH   1  16
TORSDOF 10
ENDMDL
