MODEL 1
REMARK VINA RESULT:      -7.5      0.000      0.000
REMARK  Name = 
REMARK  12 active torsions:
REMARK  status: ('A' for Active; 'I' for Inactive)
REMARK    1  A    between atoms: C_1  and  C_2
REMARK    2  A    between atoms: C_2  and  O_3
REMARK    3  A    between atoms: O_3  and  C_4
REMARK    4  A    between atoms: C_4  and  C_6
REMARK    5  A    between atoms: C_6  and  C_8
REMARK    6  A    between atoms: C_9  and  C_10
REMARK    7  A    between atoms: C_10  and  S_11
REMARK    8  A    between atoms: S_11  and  C_12
REMARK    9  A    between atoms: C_18  and  O_19
REMARK   10  A    between atoms: C_18  and  O_20
REMARK   11  A    between atoms: O_20  and  C_21
REMARK   12  A    between atoms: C_21  and  C_22
REMARK                            x       y       z     vdW  Elec       q    Type
REMARK                         _______ _______ _______ _____ _____    ______ ____
ROOT
ATOM      1  C   UNL     1       6.259   4.708  16.324  0.00  0.00    +0.000 C 
ATOM      2  C   UNL     1       7.122   4.623  17.372  0.00  0.00    +0.000 C 
ENDROOT
BRANCH   1   4
ATOM      3  C   UNL     1       5.969   4.462  13.880  0.00  0.00    +0.000 C 
ATOM      4  C   UNL     1       6.528   4.072  15.040  0.00  0.00    +0.000 C 
BRANCH   3   5
ATOM      5  C   UNL     1       6.389   3.865  12.580  0.00  0.00    +0.000 C 
ATOM      6  O   UNL     1       7.486   4.071  12.083  0.00  0.00    +0.000 OA
BRANCH   5   7
ATOM      7  C   UNL     1       5.334   2.987  11.884  0.00  0.00    +0.000 C 
ATOM      8  O   UNL     1       5.537   1.809  11.627  0.00  0.00    +0.000 OA
BRANCH   7   9
ATOM      9  O   UNL     1       4.249   3.714  11.549  0.00  0.00    +0.000 OA
BRANCH   9  11
ATOM     10  C   UNL     1       2.873   4.182   9.658  0.00  0.00    +0.000 C 
ATOM     11  C   UNL     1       3.368   3.100  10.598  0.00  0.00    +0.000 C 
ENDBRANCH   9  11
ENDBRANCH   7   9
ENDBRANCH   5   7
ENDBRANCH   3   5
ENDBRANCH   1   4
BRANCH   2  12
ATOM     12  O   UNL     1       8.328   3.944  17.310  0.00  0.00    +0.000 OA
ATOM     13  H   UNL     1       8.859   4.189  18.085  0.00  0.00    +0.000 HD
ENDBRANCH   2  12
BRANCH   1  14
ATOM     14  S   UNL     1       4.726   5.517  16.609  0.00  0.00    +0.000 S 
BRANCH  14  15
ATOM     15  C   UNL     1       3.660   4.332  17.382  0.00  0.00    +0.000 A 
ATOM     16  C   UNL     1       2.362   4.722  17.725  0.00  0.00    +0.000 A 
ATOM     17  C   UNL     1       1.434   3.781  18.174  0.00  0.00    +0.000 A 
ATOM     18  C   UNL     1       1.797   2.440  18.273  0.00  0.00    +0.000 A 
ATOM     19  C   UNL     1       3.087   2.040  17.926  0.00  0.00    +0.000 A 
ATOM     20  C   UNL     1       4.017   2.983  17.477  0.00  0.00    +0.000 A 
ENDBRANCH  14  15
ENDBRANCH   1  14
BRANCH   2  21
ATOM     21  O   UNL     1       6.770   5.177  18.592  0.00  0.00    +0.000 OA
BRANCH  21  22
ATOM     22  C   UNL     1       7.778   5.980  19.195  0.00  0.00    +0.000 C 
ATOM     23  C   UNL     1       7.914   7.235  18.351  0.00  0.00    +0.000 C 
ENDBRANCH  21  22
ENDBRANCH   2  21
TORSDOF 10
ENDMDL
MODEL 2
REMARK VINA RESULT:      -7.3      2.648      4.442
REMARK  Name = 
REMARK  12 active torsions:
REMARK  status: ('A' for Active; 'I' for Inactive)
REMARK    1  A    between atoms: C_1  and  C_2
REMARK    2  A    between atoms: C_2  and  O_3
REMARK    3  A    between atoms: O_3  and  C_4
REMARK    4  A    between atoms: C_4  and  C_6
REMARK    5  A    between atoms: C_6  and  C_8
REMARK    6  A    between atoms: C_9  and  C_10
REMARK    7  A    between atoms: C_10  and  S_11
REMARK    8  A    between atoms: S_11  and  C_12
REMARK    9  A    between atoms: C_18  and  O_19
REMARK   10  A    between atoms: C_18  and  O_20
REMARK   11  A    between atoms: O_20  and  C_21
REMARK   12  A    between atoms: C_21  and  C_22
REMARK                            x       y       z     vdW  Elec       q    Type
REMARK                         _______ _______ _______ _____ _____    ______ ____
ROOT
ATOM      1  C   UNL     1       4.113   3.657  18.378  0.00  0.00    +0.000 C 
ATOM      2  C   UNL     1       4.065   2.727  19.371  0.00  0.00    +0.000 C 
ENDROOT
BRANCH   1   4
ATOM      3  C   UNL     1       5.408   4.524  16.458  0.00  0.00    +0.000 C 
ATOM      4  C   UNL     1       5.355   4.005  17.698  0.00  0.00    +0.000 C 
BRANCH   3   5
ATOM      5  C   UNL     1       6.696   4.989  15.869  0.00  0.00    +0.000 C 
ATOM      6  O   UNL     1       7.562   5.540  16.530  0.00  0.00    +0.000 OA
BRANCH   5   7
ATOM      7  C   UNL     1       6.854   4.754  14.356  0.00  0.00    +0.000 C 
ATOM      8  O   UNL     1       7.560   5.468  13.659  0.00  0.00    +0.000 OA
BRANCH   7   9
ATOM      9  O   UNL     1       6.065   3.743  13.942  0.00  0.00    +0.000 OA
BRANCH   9  11
ATOM     10  C   UNL     1       4.797   3.378  11.954  0.00  0.00    +0.000 C 
ATOM     11  C   UNL     1       6.190   3.395  12.556  0.00  0.00    +0.000 C 
ENDBRANCH   9  11
ENDBRANCH   7   9
ENDBRANCH   5   7
ENDBRANCH   3   5
ENDBRANCH   1   4
BRANCH   2  12
ATOM     12  O   UNL     1       5.180   2.045  19.829  0.00  0.00    +0.000 OA
ATOM     13  H   UNL     1       5.512   2.497  20.621  0.00  0.00    +0.000 HD
ENDBRANCH   2  12
BRANCH   1  14
ATOM     14  S   UNL     1       2.587   4.347  17.848  0.00  0.00    +0.000 S 
BRANCH  14  15
ATOM     15  C   UNL     1       2.411   5.899  18.683  0.00  0.00    +0.000 A 
ATOM     16  C   UNL     1       2.440   7.074  17.927  0.00  0.00    +0.000 A 
ATOM     17  C   UNL     1       2.132   8.302  18.513  0.00  0.00    +0.000 A 
ATOM     18  C   UNL     1       1.783   8.362  19.860  0.00  0.00    +0.000 A 
ATOM     19  C   UNL     1       1.744   7.194  20.621  0.00  0.00    +0.000 A 
ATOM     20  C   UNL     1       2.053   5.963  20.034  0.00  0.00    +0.000 A 
ENDBRANCH  14  15
ENDBRANCH   1  14
BRANCH   2  21
ATOM     21  O   UNL     1       2.841   2.380  19.920  0.00  0.00    +0.000 OA
BRANCH  21  22
ATOM     22  C   UNL     1       2.749   2.555  21.329  0.00  0.00    +0.000 C 
ATOM     23  C   UNL     1       1.279   2.738  21.662  0.00  0.00    +0.000 C 
ENDBRANCH  21  22
ENDBRANCH   2  21
TORSDOF 10
ENDMDL
MODEL 3
REMARK VINA RESULT:      -7.2      2.936      5.042
REMARK  Name = 
REMARK  12 active torsions:
REMARK  status: ('A' for Active; 'I' for Inactive)
REMARK    1  A    between atoms: C_1  and  C_2
REMARK    2  A    between atoms: C_2  and  O_3
REMARK    3  A    between atoms: O_3  and  C_4
REMARK    4  A    between atoms: C_4  and  C_6
REMARK    5  A    between atoms: C_6  and  C_8
REMARK    6  A    between atoms: C_9  and  C_10
REMARK    7  A    between atoms: C_10  and  S_11
REMARK    8  A    between atoms: S_11  and  C_12
REMARK    9  A    between atoms: C_18  and  O_19
REMARK   10  A    between atoms: C_18  and  O_20
REMARK   11  A    between atoms: O_20  and  C_21
REMARK   12  A    between atoms: C_21  and  C_22
REMARK                            x       y       z     vdW  Elec       q    Type
REMARK                         _______ _______ _______ _____ _____    ______ ____
ROOT
ATOM      1  C   UNL     1       3.673   4.230  18.386  0.00  0.00    +0.000 C 
ATOM      2  C   UNL     1       2.470   3.666  18.092  0.00  0.00    +0.000 C 
ENDROOT
BRANCH   1   4
ATOM      3  C   UNL     1       5.847   4.896  17.415  0.00  0.00    +0.000 C 
ATOM      4  C   UNL     1       4.862   3.995  17.576  0.00  0.00    +0.000 C 
BRANCH   3   5
ATOM      5  C   UNL     1       7.102   4.548  16.690  0.00  0.00    +0.000 C 
ATOM      6  O   UNL     1       8.125   4.212  17.266  0.00  0.00    +0.000 OA
BRANCH   5   7
ATOM      7  C   UNL     1       7.035   4.666  15.157  0.00  0.00    +0.000 C 
ATOM      8  O   UNL     1       7.527   5.610  14.557  0.00  0.00    +0.000 OA
BRANCH   7   9
ATOM      9  O   UNL     1       6.311   3.658  14.630  0.00  0.00    +0.000 OA
BRANCH   9  11
ATOM     10  C   UNL     1       6.258   3.350  12.264  0.00  0.00    +0.000 C 
ATOM     11  C   UNL     1       5.563   3.991  13.451  0.00  0.00    +0.000 C 
ENDBRANCH   9  11
ENDBRANCH   7   9
ENDBRANCH   5   7
ENDBRANCH   3   5
ENDBRANCH   1   4
BRANCH   2  12
ATOM     12  O   UNL     1       2.272   2.815  17.018  0.00  0.00    +0.000 OA
ATOM     13  H   UNL     1       1.536   3.157  16.486  0.00  0.00    +0.000 HD
ENDBRANCH   2  12
BRANCH   1  14
ATOM     14  S   UNL     1       3.721   5.370  19.722  0.00  0.00    +0.000 S 
BRANCH  14  15
ATOM     15  C   UNL     1       2.771   6.780  19.225  0.00  0.00    +0.000 A 
ATOM     16  C   UNL     1       1.971   7.419  20.177  0.00  0.00    +0.000 A 
ATOM     17  C   UNL     1       1.344   8.630  19.879  0.00  0.00    +0.000 A 
ATOM     18  C   UNL     1       1.522   9.215  18.627  0.00  0.00    +0.000 A 
ATOM     19  C   UNL     1       2.324   8.589  17.673  0.00  0.00    +0.000 A 
ATOM     20  C   UNL     1       2.951   7.376  17.972  0.00  0.00    +0.000 A 
ENDBRANCH  14  15
ENDBRANCH   1  14
BRANCH   2  21
ATOM     21  O   UNL     1       1.359   3.996  18.852  0.00  0.00    +0.000 OA
BRANCH  21  22
ATOM     22  C   UNL     1       0.771   2.905  19.552  0.00  0.00    +0.000 C 
ATOM     23  C   UNL     1       1.220   3.009  20.998  0.00  0.00    +0.000 C 
ENDBRANCH  21  22
ENDBRANCH   2  21
TORSDOF 10
ENDMDL
MODEL 4
REMARK VINA RESULT:      -7.0      3.014      5.513
REMARK  Name = 
REMARK  12 active torsions:
REMARK  status: ('A' for Active; 'I' for Inactive)
REMARK    1  A    between atoms: C_1  and  C_2
REMARK    2  A    between atoms: C_2  and  O_3
REMARK    3  A    between atoms: O_3  and  C_4
REMARK    4  A    between atoms: C_4  and  C_6
REMARK    5  A    between atoms: C_6  and  C_8
REMARK    6  A    between atoms: C_9  and  C_10
REMARK    7  A    between atoms: C_10  and  S_11
REMARK    8  A    between atoms: S_11  and  C_12
REMARK    9  A    between atoms: C_18  and  O_19
REMARK   10  A    between atoms: C_18  and  O_20
REMARK   11  A    between atoms: O_20  and  C_21
REMARK   12  A    between atoms: C_21  and  C_22
REMARK                            x       y       z     vdW  Elec       q    Type
REMARK                         _______ _______ _______ _____ _____    ______ ____
ROOT
ATOM      1  C   UNL     1       3.797   3.547  18.543  0.00  0.00    +0.000 C 
ATOM      2  C   UNL     1       3.947   2.557  19.465  0.00  0.00    +0.000 C 
ENDROOT
BRANCH   1   4
ATOM      3  C   UNL     1       4.910   3.925  16.367  0.00  0.00    +0.000 C 
ATOM      4  C   UNL     1       4.901   4.007  17.710  0.00  0.00    +0.000 C 
BRANCH   3   5
ATOM      5  C   UNL     1       6.004   4.539  15.562  0.00  0.00    +0.000 C 
ATOM      6  O   UNL     1       6.697   3.893  14.791  0.00  0.00    +0.000 OA
BRANCH   5   7
ATOM      7  C   UNL     1       6.225   6.045  15.786  0.00  0.00    +0.000 C 
ATOM      8  O   UNL     1       5.394   6.878  15.456  0.00  0.00    +0.000 OA
BRANCH   7   9
ATOM      9  O   UNL     1       7.450   6.280  16.296  0.00  0.00    +0.000 OA
BRANCH   9  11
ATOM     10  C   UNL     1       7.730   6.219  18.665  0.00  0.00    +0.000 C 
ATOM     11  C   UNL     1       7.478   7.112  17.465  0.00  0.00    +0.000 C 
ENDBRANCH   9  11
ENDBRANCH   7   9
ENDBRANCH   5   7
ENDBRANCH   3   5
ENDBRANCH   1   4
BRANCH   2  12
ATOM     12  O   UNL     1       5.151   1.914  19.702  0.00  0.00    +0.000 OA
ATOM     13  H   UNL     1       5.871   2.488  19.395  0.00  0.00    +0.000 HD
ENDBRANCH   2  12
BRANCH   1  14
ATOM     14  S   UNL     1       2.177   4.177  18.297  0.00  0.00    +0.000 S 
BRANCH  14  15
ATOM     15  C   UNL     1       2.160   5.819  18.962  0.00  0.00    +0.000 A 
ATOM     16  C   UNL     1       2.355   6.896  18.093  0.00  0.00    +0.000 A 
ATOM     17  C   UNL     1       2.178   8.207  18.538  0.00  0.00    +0.000 A 
ATOM     18  C   UNL     1       1.795   8.448  19.855  0.00  0.00    +0.000 A 
ATOM     19  C   UNL     1       1.591   7.380  20.728  0.00  0.00    +0.000 A 
ATOM     20  C   UNL     1       1.769   6.066  20.282  0.00  0.00    +0.000 A 
ENDBRANCH  14  15
ENDBRANCH   1  14
BRANCH   2  21
ATOM     21  O   UNL     1       2.839   2.106  20.166  0.00  0.00    +0.000 OA
BRANCH  21  22
ATOM     22  C   UNL     1       2.735   2.601  21.496  0.00  0.00    +0.000 C 
ATOM     23  C   UNL     1       1.256   2.761  21.798  0.00  0.00    +0.000 C 
ENDBRANCH  21  22
ENDBRANCH   2  21
TORSDOF 10
ENDMDL
MODEL 5
REMARK VINA RESULT:      -7.0      4.483      6.713
REMARK  Name = 
REMARK  12 active torsions:
REMARK  status: ('A' for Active; 'I' for Inactive)
REMARK    1  A    between atoms: C_1  and  C_2
REMARK    2  A    between atoms: C_2  and  O_3
REMARK    3  A    between atoms: O_3  and  C_4
REMARK    4  A    between atoms: C_4  and  C_6
REMARK    5  A    between atoms: C_6  and  C_8
REMARK    6  A    between atoms: C_9  and  C_10
REMARK    7  A    between atoms: C_10  and  S_11
REMARK    8  A    between atoms: S_11  and  C_12
REMARK    9  A    between atoms: C_18  and  O_19
REMARK   10  A    between atoms: C_18  and  O_20
REMARK   11  A    between atoms: O_20  and  C_21
REMARK   12  A    between atoms: C_21  and  C_22
REMARK                            x       y       z     vdW  Elec       q    Type
REMARK                         _______ _______ _______ _____ _____    ______ ____
ROOT
ATOM      1  C   UNL     1       4.307   4.033  18.817  0.00  0.00    +0.000 C 
ATOM      2  C   UNL     1       4.045   2.744  19.165  0.00  0.00    +0.000 C 
ENDROOT
BRANCH   1   4
ATOM      3  C   UNL     1       6.477   5.096  18.290  0.00  0.00    +0.000 C 
ATOM      4  C   UNL     1       5.551   4.700  19.182  0.00  0.00    +0.000 C 
BRANCH   3   5
ATOM      5  C   UNL     1       7.662   5.897  18.710  0.00  0.00    +0.000 C 
ATOM      6  O   UNL     1       8.416   5.541  19.603  0.00  0.00    +0.000 OA
BRANCH   5   7
ATOM      7  C   UNL     1       7.862   7.225  17.959  0.00  0.00    +0.000 C 
ATOM      8  O   UNL     1       7.505   7.375  16.800  0.00  0.00    +0.000 OA
BRANCH   7   9
ATOM      9  O   UNL     1       8.535   8.111  18.721  0.00  0.00    +0.000 OA
BRANCH   9  11
ATOM     10  C   UNL     1       9.338  10.304  19.209  0.00  0.00    +0.000 C 
ATOM     11  C   UNL     1       8.496   9.470  18.262  0.00  0.00    +0.000 C 
ENDBRANCH   9  11
ENDBRANCH   7   9
ENDBRANCH   5   7
ENDBRANCH   3   5
ENDBRANCH   1   4
BRANCH   2  12
ATOM     12  O   UNL     1       4.920   1.963  19.903  0.00  0.00    +0.000 OA
ATOM     13  H   UNL     1       5.815   2.084  19.547  0.00  0.00    +0.000 HD
ENDBRANCH   2  12
BRANCH   1  14
ATOM     14  S   UNL     1       3.135   4.842  17.789  0.00  0.00    +0.000 S 
BRANCH  14  15
ATOM     15  C   UNL     1       2.638   6.313  18.641  0.00  0.00    +0.000 A 
ATOM     16  C   UNL     1       2.459   7.487  17.903  0.00  0.00    +0.000 A 
ATOM     17  C   UNL     1       1.902   8.620  18.497  0.00  0.00    +0.000 A 
ATOM     18  C   UNL     1       1.512   8.583  19.834  0.00  0.00    +0.000 A 
ATOM     19  C   UNL     1       1.680   7.414  20.576  0.00  0.00    +0.000 A 
ATOM     20  C   UNL     1       2.237   6.279  19.980  0.00  0.00    +0.000 A 
ENDBRANCH  14  15
ENDBRANCH   1  14
BRANCH   2  21
ATOM     21  O   UNL     1       2.882   2.140  18.716  0.00  0.00    +0.000 OA
BRANCH  21  22
ATOM     22  C   UNL     1       1.830   2.087  19.673  0.00  0.00    +0.000 C 
ATOM     23  C   UNL     1       0.555   2.494  18.957  0.00  0.00    +0.000 C 
ENDBRANCH  21  22
ENDBRANCH   2  21
TORSDOF 10
ENDMDL
MODEL 6
REMARK VINA RESULT:      -7.0      3.441      6.027
REMARK  Name = 
REMARK  12 active torsions:
REMARK  status: ('A' for Active; 'I' for Inactive)
REMARK    1  A    between atoms: C_1  and  C_2
REMARK    2  A    between atoms: C_2  and  O_3
REMARK    3  A    between atoms: O_3  and  C_4
REMARK    4  A    between atoms: C_4  and  C_6
REMARK    5  A    between atoms: C_6  and  C_8
REMARK    6  A    between atoms: C_9  and  C_10
REMARK    7  A    between atoms: C_10  and  S_11
REMARK    8  A    between atoms: S_11  and  C_12
REMARK    9  A    between atoms: C_18  and  O_19
REMARK   10  A    between atoms: C_18  and  O_20
REMARK   11  A    between atoms: O_20  and  C_21
REMARK   12  A    between atoms: C_21  and  C_22
REMARK                            x       y       z     vdW  Elec       q    Type
REMARK                         _______ _______ _______ _____ _____    ______ ____
ROOT
ATOM      1  C   UNL     1       2.938   4.914  18.461  0.00  0.00    +0.000 C 
ATOM      2  C   UNL     1       1.895   4.048  18.581  0.00  0.00    +0.000 C 
ENDROOT
BRANCH   1   4
ATOM      3  C   UNL     1       4.568   6.024  16.969  0.00  0.00    +0.000 C 
ATOM      4  C   UNL     1       3.743   4.999  17.248  0.00  0.00    +0.000 C 
BRANCH   3   5
ATOM      5  C   UNL     1       5.470   5.989  15.782  0.00  0.00    +0.000 C 
ATOM      6  O   UNL     1       5.347   6.753  14.837  0.00  0.00    +0.000 OA
BRANCH   5   7
ATOM      7  C   UNL     1       6.559   4.902  15.810  0.00  0.00    +0.000 C 
ATOM      8  O   UNL     1       6.417   3.826  15.246  0.00  0.00    +0.000 OA
BRANCH   7   9
ATOM      9  O   UNL     1       7.594   5.279  16.586  0.00  0.00    +0.000 OA
BRANCH   9  11
ATOM     10  C   UNL     1       7.781   5.716  18.924  0.00  0.00    +0.000 C 
ATOM     11  C   UNL     1       7.669   4.635  17.866  0.00  0.00    +0.000 C 
ENDBRANCH   9  11
ENDBRANCH   7   9
ENDBRANCH   5   7
ENDBRANCH   3   5
ENDBRANCH   1   4
BRANCH   2  12
ATOM     12  O   UNL     1       1.517   3.170  17.579  0.00  0.00    +0.000 OA
ATOM     13  H   UNL     1       1.014   3.663  16.911  0.00  0.00    +0.000 HD
ENDBRANCH   2  12
BRANCH   1  14
ATOM     14  S   UNL     1       3.211   6.032  19.787  0.00  0.00    +0.000 S 
BRANCH  14  15
ATOM     15  C   UNL     1       2.170   7.435  19.495  0.00  0.00    +0.000 A 
ATOM     16  C   UNL     1       1.510   8.017  20.581  0.00  0.00    +0.000 A 
ATOM     17  C   UNL     1       0.822   9.222  20.430  0.00  0.00    +0.000 A 
ATOM     18  C   UNL     1       0.797   9.858  19.191  0.00  0.00    +0.000 A 
ATOM     19  C   UNL     1       1.459   9.288  18.103  0.00  0.00    +0.000 A 
ATOM     20  C   UNL     1       2.148   8.081  18.255  0.00  0.00    +0.000 A 
ENDBRANCH  14  15
ENDBRANCH   1  14
BRANCH   2  21
ATOM     21  O   UNL     1       1.116   4.075  19.727  0.00  0.00    +0.000 OA
BRANCH  21  22
ATOM     22  C   UNL     1       1.073   2.848  20.446  0.00  0.00    +0.000 C 
ATOM     23  C   UNL     1       1.923   3.030  21.691  0.00  0.00    +0.000 C 
ENDBRANCH  21  22
ENDBRANCH   2  21
TORSDOF 10
ENDMDL
MODEL 7
REMARK VINA RESULT:      -6.9      3.403      5.349
REMARK  Name = 
REMARK  12 active torsions:
REMARK  status: ('A' for Active; 'I' for Inactive)
REMARK    1  A    between atoms: C_1  and  C_2
REMARK    2  A    between atoms: C_2  and  O_3
REMARK    3  A    between atoms: O_3  and  C_4
REMARK    4  A    between atoms: C_4  and  C_6
REMARK    5  A    between atoms: C_6  and  C_8
REMARK    6  A    between atoms: C_9  and  C_10
REMARK    7  A    between atoms: C_10  and  S_11
REMARK    8  A    between atoms: S_11  and  C_12
REMARK    9  A    between atoms: C_18  and  O_19
REMARK   10  A    between atoms: C_18  and  O_20
REMARK   11  A    between atoms: O_20  and  C_21
REMARK   12  A    between atoms: C_21  and  C_22
REMARK                            x       y       z     vdW  Elec       q    Type
REMARK                         _______ _______ _______ _____ _____    ______ ____
ROOT
ATOM      1  C   UNL     1       2.946   4.855  18.441  0.00  0.00    +0.000 C 
ATOM      2  C   UNL     1       1.920   3.971  18.571  0.00  0.00    +0.000 C 
ENDROOT
BRANCH   1   4
ATOM      3  C   UNL     1       4.817   5.745  17.090  0.00  0.00    +0.000 C 
ATOM      4  C   UNL     1       3.725   4.968  17.214  0.00  0.00    +0.000 C 
BRANCH   3   5
ATOM      5  C   UNL     1       5.652   5.712  15.856  0.00  0.00    +0.000 C 
ATOM      6  O   UNL     1       5.569   6.559  14.980  0.00  0.00    +0.000 OA
BRANCH   5   7
ATOM      7  C   UNL     1       6.617   4.518  15.742  0.00  0.00    +0.000 C 
ATOM      8  O   UNL     1       7.682   4.485  16.340  0.00  0.00    +0.000 OA
BRANCH   7   9
ATOM      9  O   UNL     1       6.155   3.611  14.858  0.00  0.00    +0.000 OA
BRANCH   9  11
ATOM     10  C   UNL     1       5.353   3.523  12.612  0.00  0.00    +0.000 C 
ATOM     11  C   UNL     1       6.549   3.826  13.495  0.00  0.00    +0.000 C 
ENDBRANCH   9  11
ENDBRANCH   7   9
ENDBRANCH   5   7
ENDBRANCH   3   5
ENDBRANCH   1   4
BRANCH   2  12
ATOM     12  O   UNL     1       1.537   3.098  17.567  0.00  0.00    +0.000 OA
ATOM     13  H   UNL     1       2.132   2.332  17.582  0.00  0.00    +0.000 HD
ENDBRANCH   2  12
BRANCH   1  14
ATOM     14  S   UNL     1       3.227   5.962  19.775  0.00  0.00    +0.000 S 
BRANCH  14  15
ATOM     15  C   UNL     1       2.210   7.383  19.483  0.00  0.00    +0.000 A 
ATOM     16  C   UNL     1       1.556   7.974  20.569  0.00  0.00    +0.000 A 
ATOM     17  C   UNL     1       0.888   9.189  20.418  0.00  0.00    +0.000 A 
ATOM     18  C   UNL     1       0.878   9.828  19.180  0.00  0.00    +0.000 A 
ATOM     19  C   UNL     1       1.534   9.251  18.093  0.00  0.00    +0.000 A 
ATOM     20  C   UNL     1       2.203   8.032  18.245  0.00  0.00    +0.000 A 
ENDBRANCH  14  15
ENDBRANCH   1  14
BRANCH   2  21
ATOM     21  O   UNL     1       1.164   3.972  19.732  0.00  0.00    +0.000 OA
BRANCH  21  22
ATOM     22  C   UNL     1       1.146   2.732  20.432  0.00  0.00    +0.000 C 
ATOM     23  C   UNL     1       2.040   2.893  21.648  0.00  0.00    +0.000 C 
ENDBRANCH  21  22
ENDBRANCH   2  21
TORSDOF 10
ENDMDL
MODEL 8
REMARK VINA RESULT:      -6.9      2.992      5.139
REMARK  Name = 
REMARK  12 active torsions:
REMARK  status: ('A' for Active; 'I' for Inactive)
REMARK    1  A    between atoms: C_1  and  C_2
REMARK    2  A    between atoms: C_2  and  O_3
REMARK    3  A    between atoms: O_3  and  C_4
REMARK    4  A    between atoms: C_4  and  C_6
REMARK    5  A    between atoms: C_6  and  C_8
REMARK    6  A    between atoms: C_9  and  C_10
REMARK    7  A    between atoms: C_10  and  S_11
REMARK    8  A    between atoms: S_11  and  C_12
REMARK    9  A    between atoms: C_18  and  O_19
REMARK   10  A    between atoms: C_18  and  O_20
REMARK   11  A    between atoms: O_20  and  C_21
REMARK   12  A    between atoms: C_21  and  C_22
REMARK                            x       y       z     vdW  Elec       q    Type
REMARK                         _______ _______ _______ _____ _____    ______ ____
ROOT
ATOM      1  C   UNL     1       3.483   4.406  18.270  0.00  0.00    +0.000 C 
ATOM      2  C   UNL     1       2.284   3.807  18.037  0.00  0.00    +0.000 C 
ENDROOT
BRANCH   1   4
ATOM      3  C   UNL     1       5.821   4.805  17.571  0.00  0.00    +0.000 C 
ATOM      4  C   UNL     1       4.587   4.334  17.320  0.00  0.00    +0.000 C 
BRANCH   3   5
ATOM      5  C   UNL     1       6.944   4.578  16.616  0.00  0.00    +0.000 C 
ATOM      6  O   UNL     1       8.052   4.214  16.977  0.00  0.00    +0.000 OA
BRANCH   5   7
ATOM      7  C   UNL     1       6.623   4.861  15.138  0.00  0.00    +0.000 C 
ATOM      8  O   UNL     1       6.265   5.964  14.752  0.00  0.00    +0.000 OA
BRANCH   7   9
ATOM      9  O   UNL     1       6.715   3.735  14.403  0.00  0.00    +0.000 OA
BRANCH   9  11
ATOM     10  C   UNL     1       6.679   3.510  12.028  0.00  0.00    +0.000 C 
ATOM     11  C   UNL     1       5.830   3.665  13.276  0.00  0.00    +0.000 C 
ENDBRANCH   9  11
ENDBRANCH   7   9
ENDBRANCH   5   7
ENDBRANCH   3   5
ENDBRANCH   1   4
BRANCH   2  12
ATOM     12  O   UNL     1       2.011   3.070  16.896  0.00  0.00    +0.000 OA
ATOM     13  H   UNL     1       2.784   2.518  16.695  0.00  0.00    +0.000 HD
ENDBRANCH   2  12
BRANCH   1  14
ATOM     14  S   UNL     1       3.622   5.392  19.717  0.00  0.00    +0.000 S 
BRANCH  14  15
ATOM     15  C   UNL     1       2.841   6.941  19.358  0.00  0.00    +0.000 A 
ATOM     16  C   UNL     1       2.993   7.487  18.080  0.00  0.00    +0.000 A 
ATOM     17  C   UNL     1       2.258   8.610  17.697  0.00  0.00    +0.000 A 
ATOM     18  C   UNL     1       1.358   9.189  18.589  0.00  0.00    +0.000 A 
ATOM     19  C   UNL     1       1.194   8.647  19.863  0.00  0.00    +0.000 A 
ATOM     20  C   UNL     1       1.931   7.521  20.247  0.00  0.00    +0.000 A 
ENDBRANCH  14  15
ENDBRANCH   1  14
BRANCH   2  21
ATOM     21  O   UNL     1       1.248   3.983  18.940  0.00  0.00    +0.000 OA
BRANCH  21  22
ATOM     22  C   UNL     1       0.729   2.779  19.494  0.00  0.00    +0.000 C 
ATOM     23  C   UNL     1       1.215   2.703  20.930  0.00  0.00    +0.000 C 
ENDBRANCH  21  22
ENDBRANCH   2  21
TORSDOF 10
ENDMDL
MODEL 9
REMARK VINA RESULT:      -6.9      2.769      5.065
REMARK  Name = 
REMARK  12 active torsions:
REMARK  status: ('A' for Active; 'I' for Inactive)
REMARK    1  A    between atoms: C_1  and  C_2
REMARK    2  A    between atoms: C_2  and  O_3
REMARK    3  A    between atoms: O_3  and  C_4
REMARK    4  A    between atoms: C_4  and  C_6
REMARK    5  A    between atoms: C_6  and  C_8
REMARK    6  A    between atoms: C_9  and  C_10
REMARK    7  A    between atoms: C_10  and  S_11
REMARK    8  A    between atoms: S_11  and  C_12
REMARK    9  A    between atoms: C_18  and  O_19
REMARK   10  A    between atoms: C_18  and  O_20
REMARK   11  A    between atoms: O_20  and  C_21
REMARK   12  A    between atoms: C_21  and  C_22
REMARK                            x       y       z     vdW  Elec       q    Type
REMARK                         _______ _______ _______ _____ _____    ______ ____
ROOT
ATOM      1  C   UNL     1       3.896   3.865  18.411  0.00  0.00    +0.000 C 
ATOM      2  C   UNL     1       3.994   2.859  19.322  0.00  0.00    +0.000 C 
ENDROOT
BRANCH   1   4
ATOM      3  C   UNL     1       5.450   5.634  17.655  0.00  0.00    +0.000 C 
ATOM      4  C   UNL     1       5.047   4.350  17.660  0.00  0.00    +0.000 C 
BRANCH   3   5
ATOM      5  C   UNL     1       6.715   6.045  16.982  0.00  0.00    +0.000 C 
ATOM      6  O   UNL     1       7.055   7.213  16.874  0.00  0.00    +0.000 OA
BRANCH   5   7
ATOM      7  C   UNL     1       7.559   4.896  16.402  0.00  0.00    +0.000 C 
ATOM      8  O   UNL     1       8.197   4.136  17.116  0.00  0.00    +0.000 OA
BRANCH   7   9
ATOM      9  O   UNL     1       7.545   4.922  15.055  0.00  0.00    +0.000 OA
BRANCH   9  11
ATOM     10  C   UNL     1       6.265   3.789  13.390  0.00  0.00    +0.000 C 
ATOM     11  C   UNL     1       6.242   4.871  14.454  0.00  0.00    +0.000 C 
ENDBRANCH   9  11
ENDBRANCH   7   9
ENDBRANCH   5   7
ENDBRANCH   3   5
ENDBRANCH   1   4
BRANCH   2  12
ATOM     12  O   UNL     1       5.186   2.222  19.625  0.00  0.00    +0.000 OA
ATOM     13  H   UNL     1       5.808   2.371  18.895  0.00  0.00    +0.000 HD
ENDBRANCH   2  12
BRANCH   1  14
ATOM     14  S   UNL     1       2.289   4.487  18.070  0.00  0.00    +0.000 S 
BRANCH  14  15
ATOM     15  C   UNL     1       2.168   6.060  18.875  0.00  0.00    +0.000 A 
ATOM     16  C   UNL     1       2.205   7.218  18.093  0.00  0.00    +0.000 A 
ATOM     17  C   UNL     1       1.940   8.465  18.660  0.00  0.00    +0.000 A 
ATOM     18  C   UNL     1       1.627   8.561  20.014  0.00  0.00    +0.000 A 
ATOM     19  C   UNL     1       1.580   7.411  20.801  0.00  0.00    +0.000 A 
ATOM     20  C   UNL     1       1.846   6.161  20.232  0.00  0.00    +0.000 A 
ENDBRANCH  14  15
ENDBRANCH   1  14
BRANCH   2  21
ATOM     21  O   UNL     1       2.848   2.386  19.940  0.00  0.00    +0.000 OA
BRANCH  21  22
ATOM     22  C   UNL     1       2.772   2.650  21.337  0.00  0.00    +0.000 C 
ATOM     23  C   UNL     1       1.300   2.741  21.695  0.00  0.00    +0.000 C 
ENDBRANCH  21  22
ENDBRANCH   2  21
TORSDOF 10
ENDMDL
