MODEL 1
REMARK VINA RESULT:      -8.6      0.000      0.000
REMARK  Name = 
REMARK  5 active torsions:
REMARK  status: ('A' for Active; 'I' for Inactive)
REMARK    1  A    between atoms: C_2  and  C_3
REMARK    2  A    between atoms: C_5  and  C_6
REMARK    3  A    between atoms: C_6  and  N_7
REMARK    4  A    between atoms: C_10  and  N_11
REMARK    5  A    between atoms: N_11  and  C_12
REMARK                            x       y       z     vdW  Elec       q    Type
REMARK                         _______ _______ _______ _____ _____    ______ ____
ROOT
ATOM      1  N   UNL     1       2.889   2.906  18.923  0.00  0.00    +0.000 NA
ATOM      2  C   UNL     1       3.281   3.184  20.317  0.00  0.00    +0.000 C 
ATOM      3  C   UNL     1       2.165   3.803  21.157  0.00  0.00    +0.000 C 
ATOM      4  C   UNL     1       1.604   5.074  20.522  0.00  0.00    +0.000 C 
ATOM      5  C   UNL     1       1.115   4.706  19.120  0.00  0.00    +0.000 C 
ATOM      6  C   UNL     1       2.214   4.048  18.280  0.00  0.00    +0.000 C 
ENDROOT
BRANCH   4   7
ATOM      7  N   UNL     1       2.596   6.161  20.432  0.00  0.00    +0.000 N 
ATOM      8  H   UNL     1       3.514   5.858  20.129  0.00  0.00    +0.000 HD
BRANCH   7   9
ATOM      9  C   UNL     1       2.213   7.328  19.764  0.00  0.00    +0.000 A 
ATOM     10  N   UNL     1       2.619   7.539  18.492  0.00  0.00    +0.000 NA
ATOM     11  C   UNL     1       2.238   8.661  17.859  0.00  0.00    +0.000 A 
ATOM     12  N   UNL     1       1.485   9.652  18.339  0.00  0.00    +0.000 NA
ATOM     13  C   UNL     1       1.093   9.423  19.601  0.00  0.00    +0.000 A 
ATOM     14  S   UNL     1       0.123  10.561  20.425  0.00  0.00    +0.000 S 
ATOM     15  C   UNL     1       0.097   9.597  21.810  0.00  0.00    +0.000 A 
ATOM     16 CL   UNL     1      -0.751  10.130  23.205  0.00  0.00    +0.000 Cl
ATOM     17  C   UNL     1       0.794   8.423  21.676  0.00  0.00    +0.000 A 
ATOM     18  C   UNL     1       1.399   8.309  20.373  0.00  0.00    +0.000 A 
ENDBRANCH   7   9
ENDBRANCH   4   7
BRANCH   1  19
ATOM     19  C   UNL     1       4.080   2.540  18.119  0.00  0.00    +0.000 C 
BRANCH  19  22
ATOM     20  C   UNL     1       6.478   4.924  16.298  0.00  0.00    +0.000 A 
ATOM     21  C   UNL     1       5.548   3.898  16.542  0.00  0.00    +0.000 A 
ATOM     22  C   UNL     1       5.033   3.688  17.836  0.00  0.00    +0.000 A 
ATOM     23  C   UNL     1       5.460   4.524  18.880  0.00  0.00    +0.000 A 
ATOM     24  C   UNL     1       6.379   5.546  18.638  0.00  0.00    +0.000 A 
ATOM     25  C   UNL     1       6.881   5.735  17.353  0.00  0.00    +0.000 A 
ATOM     26  F   UNL     1       7.773   6.719  17.153  0.00  0.00    +0.000 F 
BRANCH  20  28
ATOM     27  N   UNL     1       7.487   5.277  13.938  0.00  0.00    +0.000 NA
ATOM     28  C   UNL     1       7.019   5.118  14.984  0.00  0.00    +0.000 C 
ENDBRANCH  20  28
ENDBRANCH  19  22
ENDBRANCH   1  19
TORSDOF 5
ENDMDL
MODEL 2
REMARK VINA RESULT:      -8.4      1.383      1.798
REMARK  Name = 
REMARK  5 active torsions:
REMARK  status: ('A' for Active; 'I' for Inactive)
REMARK    1  A    between atoms: C_2  and  C_3
REMARK    2  A    between atoms: C_5  and  C_6
REMARK    3  A    between atoms: C_6  and  N_7
REMARK    4  A    between atoms: C_10  and  N_11
REMARK    5  A    between atoms: N_11  and  C_12
REMARK                            x       y       z     vdW  Elec       q    Type
REMARK                         _______ _______ _______ _____ _____    ______ ____
ROOT
ATOM      1  N   UNL     1       2.410   2.632  18.979  0.00  0.00    +0.000 NA
ATOM      2  C   UNL     1       3.062   2.787  20.294  0.00  0.00    +0.000 C 
ATOM      3  C   UNL     1       2.169   3.438  21.349  0.00  0.00    +0.000 C 
ATOM      4  C   UNL     1       1.623   4.788  20.889  0.00  0.00    +0.000 C 
ATOM      5  C   UNL     1       0.867   4.552  19.579  0.00  0.00    +0.000 C 
ATOM      6  C   UNL     1       1.740   3.864  18.525  0.00  0.00    +0.000 C 
ENDROOT
BRANCH   4   7
ATOM      7  N   UNL     1       2.678   5.795  20.677  0.00  0.00    +0.000 N 
ATOM      8  H   UNL     1       3.562   5.410  20.365  0.00  0.00    +0.000 HD
BRANCH   7   9
ATOM      9  C   UNL     1       2.344   6.931  19.934  0.00  0.00    +0.000 A 
ATOM     10  N   UNL     1       2.802   7.067  18.670  0.00  0.00    +0.000 NA
ATOM     11  C   UNL     1       2.468   8.160  17.964  0.00  0.00    +0.000 A 
ATOM     12  N   UNL     1       1.716   9.188  18.361  0.00  0.00    +0.000 NA
ATOM     13  C   UNL     1       1.271   9.034  19.617  0.00  0.00    +0.000 A 
ATOM     14  S   UNL     1       0.293  10.230  20.341  0.00  0.00    +0.000 S 
ATOM     15  C   UNL     1       0.195   9.342  21.772  0.00  0.00    +0.000 A 
ATOM     16 CL   UNL     1      -0.695   9.964  23.103  0.00  0.00    +0.000 Cl
ATOM     17  C   UNL     1       0.873   8.151  21.729  0.00  0.00    +0.000 A 
ATOM     18  C   UNL     1       1.526   7.958  20.458  0.00  0.00    +0.000 A 
ENDBRANCH   7   9
ENDBRANCH   4   7
BRANCH   1  19
ATOM     19  C   UNL     1       3.406   2.225  17.959  0.00  0.00    +0.000 C 
BRANCH  19  22
ATOM     20  C   UNL     1       6.241   4.798  18.268  0.00  0.00    +0.000 A 
ATOM     21  C   UNL     1       5.336   3.767  18.578  0.00  0.00    +0.000 A 
ATOM     22  C   UNL     1       4.430   3.290  17.610  0.00  0.00    +0.000 A 
ATOM     23  C   UNL     1       4.450   3.857  16.325  0.00  0.00    +0.000 A 
ATOM     24  C   UNL     1       5.352   4.876  16.015  0.00  0.00    +0.000 A 
ATOM     25  C   UNL     1       6.236   5.338  16.986  0.00  0.00    +0.000 A 
ATOM     26  F   UNL     1       7.083   6.327  16.662  0.00  0.00    +0.000 F 
BRANCH  20  28
ATOM     27  N   UNL     1       7.845   5.699  20.091  0.00  0.00    +0.000 NA
ATOM     28  C   UNL     1       7.144   5.297  19.264  0.00  0.00    +0.000 C 
ENDBRANCH  20  28
ENDBRANCH  19  22
ENDBRANCH   1  19
TORSDOF 5
ENDMDL
MODEL 3
REMARK VINA RESULT:      -8.0      3.564      4.875
REMARK  Name = 
REMARK  5 active torsions:
REMARK  status: ('A' for Active; 'I' for Inactive)
REMARK    1  A    between atoms: C_2  and  C_3
REMARK    2  A    between atoms: C_5  and  C_6
REMARK    3  A    between atoms: C_6  and  N_7
REMARK    4  A    between atoms: C_10  and  N_11
REMARK    5  A    between atoms: N_11  and  C_12
REMARK                            x       y       z     vdW  Elec       q    Type
REMARK                         _______ _______ _______ _____ _____    ______ ____
ROOT
ATOM      1  N   UNL     1       2.723   7.634  18.883  0.00  0.00    +0.000 NA
ATOM      2  C   UNL     1       2.475   8.525  17.734  0.00  0.00    +0.000 C 
ATOM      3  C   UNL     1       2.164   9.967  18.131  0.00  0.00    +0.000 C 
ATOM      4  C   UNL     1       0.991  10.057  19.105  0.00  0.00    +0.000 C 
ATOM      5  C   UNL     1       1.346   9.201  20.324  0.00  0.00    +0.000 C 
ATOM      6  C   UNL     1       1.699   7.763  19.935  0.00  0.00    +0.000 C 
ENDROOT
BRANCH   4   7
ATOM      7  N   UNL     1      -0.279   9.588  18.523  0.00  0.00    +0.000 N 
ATOM      8  H   UNL     1      -0.531   8.643  18.786  0.00  0.00    +0.000 HD
BRANCH   7   9
ATOM      9  C   UNL     1      -1.384  10.440  18.620  0.00  0.00    +0.000 A 
ATOM     10  N   UNL     1      -1.570  11.176  19.738  0.00  0.00    +0.000 NA
ATOM     11  C   UNL     1      -2.631  11.995  19.816  0.00  0.00    +0.000 A 
ATOM     12  N   UNL     1      -3.582  12.187  18.900  0.00  0.00    +0.000 NA
ATOM     13  C   UNL     1      -3.378  11.449  17.798  0.00  0.00    +0.000 A 
ATOM     14  S   UNL     1      -4.473  11.526  16.491  0.00  0.00    +0.000 S 
ATOM     15  C   UNL     1      -3.571  10.402  15.615  0.00  0.00    +0.000 A 
ATOM     16 CL   UNL     1      -4.098   9.914  14.056  0.00  0.00    +0.000 Cl
ATOM     17  C   UNL     1      -2.449   9.965  16.272  0.00  0.00    +0.000 A 
ATOM     18  C   UNL     1      -2.326  10.571  17.574  0.00  0.00    +0.000 A 
ENDBRANCH   7   9
ENDBRANCH   4   7
BRANCH   1  19
ATOM     19  C   UNL     1       2.774   6.222  18.435  0.00  0.00    +0.000 C 
BRANCH  19  22
ATOM     20  C   UNL     1       5.744   4.741  16.503  0.00  0.00    +0.000 A 
ATOM     21  C   UNL     1       4.475   5.271  16.796  0.00  0.00    +0.000 A 
ATOM     22  C   UNL     1       4.163   5.712  18.096  0.00  0.00    +0.000 A 
ATOM     23  C   UNL     1       5.144   5.621  19.097  0.00  0.00    +0.000 A 
ATOM     24  C   UNL     1       6.406   5.100  18.806  0.00  0.00    +0.000 A 
ATOM     25  C   UNL     1       6.694   4.664  17.515  0.00  0.00    +0.000 A 
ATOM     26  F   UNL     1       7.913   4.158  17.268  0.00  0.00    +0.000 F 
BRANCH  20  28
ATOM     27  N   UNL     1       6.326   3.879  14.130  0.00  0.00    +0.000 NA
ATOM     28  C   UNL     1       6.049   4.270  15.183  0.00  0.00    +0.000 C 
ENDBRANCH  20  28
ENDBRANCH  19  22
ENDBRANCH   1  19
TORSDOF 5
ENDMDL
MODEL 4
REMARK VINA RESULT:      -7.9      2.198      2.734
REMARK  Name = 
REMARK  5 active torsions:
REMARK  status: ('A' for Active; 'I' for Inactive)
REMARK    1  A    between atoms: C_2  and  C_3
REMARK    2  A    between atoms: C_5  and  C_6
REMARK    3  A    between atoms: C_6  and  N_7
REMARK    4  A    between atoms: C_10  and  N_11
REMARK    5  A    between atoms: N_11  and  C_12
REMARK                            x       y       z     vdW  Elec       q    Type
REMARK                         _______ _______ _______ _____ _____    ______ ____
ROOT
ATOM      1  N   UNL     1       2.485   2.329  19.013  0.00  0.00    +0.000 NA
ATOM      2  C   UNL     1       3.088   2.364  20.359  0.00  0.00    +0.000 C 
ATOM      3  C   UNL     1       2.119   2.803  21.455  0.00  0.00    +0.000 C 
ATOM      4  C   UNL     1       1.478   4.156  21.149  0.00  0.00    +0.000 C 
ATOM      5  C   UNL     1       0.778   4.032  19.794  0.00  0.00    +0.000 C 
ATOM      6  C   UNL     1       1.729   3.554  18.694  0.00  0.00    +0.000 C 
ENDROOT
BRANCH   4   7
ATOM      7  N   UNL     1       2.454   5.260  21.104  0.00  0.00    +0.000 N 
ATOM      8  H   UNL     1       3.327   5.021  20.650  0.00  0.00    +0.000 HD
BRANCH   7   9
ATOM      9  C   UNL     1       1.994   6.507  20.670  0.00  0.00    +0.000 A 
ATOM     10  N   UNL     1       1.112   7.198  21.426  0.00  0.00    +0.000 NA
ATOM     11  C   UNL     1       0.683   8.398  21.001  0.00  0.00    +0.000 A 
ATOM     12  N   UNL     1       1.016   9.032  19.875  0.00  0.00    +0.000 NA
ATOM     13  C   UNL     1       1.893   8.330  19.141  0.00  0.00    +0.000 A 
ATOM     14  S   UNL     1       2.458   8.942  17.652  0.00  0.00    +0.000 S 
ATOM     15  C   UNL     1       3.416   7.574  17.407  0.00  0.00    +0.000 A 
ATOM     16 CL   UNL     1       4.362   7.440  15.980  0.00  0.00    +0.000 Cl
ATOM     17  C   UNL     1       3.336   6.657  18.423  0.00  0.00    +0.000 A 
ATOM     18  C   UNL     1       2.428   7.088  19.457  0.00  0.00    +0.000 A 
ENDBRANCH   7   9
ENDBRANCH   4   7
BRANCH   1  19
ATOM     19  C   UNL     1       3.536   2.134  17.986  0.00  0.00    +0.000 C 
BRANCH  19  22
ATOM     20  C   UNL     1       6.243   4.557  16.740  0.00  0.00    +0.000 A 
ATOM     21  C   UNL     1       5.207   3.607  16.750  0.00  0.00    +0.000 A 
ATOM     22  C   UNL     1       4.609   3.208  17.962  0.00  0.00    +0.000 A 
ATOM     23  C   UNL     1       5.061   3.781  19.162  0.00  0.00    +0.000 A 
ATOM     24  C   UNL     1       6.086   4.727  19.152  0.00  0.00    +0.000 A 
ATOM     25  C   UNL     1       6.669   5.105  17.945  0.00  0.00    +0.000 A 
ATOM     26  F   UNL     1       7.661   6.010  17.968  0.00  0.00    +0.000 F 
BRANCH  20  28
ATOM     27  N   UNL     1       7.359   5.285  14.518  0.00  0.00    +0.000 NA
ATOM     28  C   UNL     1       6.866   4.941  15.506  0.00  0.00    +0.000 C 
ENDBRANCH  20  28
ENDBRANCH  19  22
ENDBRANCH   1  19
TORSDOF 5
ENDMDL
MODEL 5
REMARK VINA RESULT:      -7.8      3.665      5.091
REMARK  Name = 
REMARK  5 active torsions:
REMARK  status: ('A' for Active; 'I' for Inactive)
REMARK    1  A    between atoms: C_2  and  C_3
REMARK    2  A    between atoms: C_5  and  C_6
REMARK    3  A    between atoms: C_6  and  N_7
REMARK    4  A    between atoms: C_10  and  N_11
REMARK    5  A    between atoms: N_11  and  C_12
REMARK                            x       y       z     vdW  Elec       q    Type
REMARK                         _______ _______ _______ _____ _____    ______ ____
ROOT
ATOM      1  N   UNL     1       2.443   7.556  19.533  0.00  0.00    +0.000 NA
ATOM      2  C   UNL     1       2.237   8.072  18.166  0.00  0.00    +0.000 C 
ATOM      3  C   UNL     1       2.059   9.588  18.103  0.00  0.00    +0.000 C 
ATOM      4  C   UNL     1       0.927  10.073  19.006  0.00  0.00    +0.000 C 
ATOM      5  C   UNL     1       1.244   9.602  20.427  0.00  0.00    +0.000 C 
ATOM      6  C   UNL     1       1.465   8.089  20.498  0.00  0.00    +0.000 C 
ENDROOT
BRANCH   4   7
ATOM      7  N   UNL     1      -0.395   9.563  18.599  0.00  0.00    +0.000 N 
ATOM      8  H   UNL     1      -0.643   8.675  19.017  0.00  0.00    +0.000 HD
BRANCH   7   9
ATOM      9  C   UNL     1      -1.472  10.454  18.652  0.00  0.00    +0.000 A 
ATOM     10  N   UNL     1      -1.653  11.226  19.746  0.00  0.00    +0.000 NA
ATOM     11  C   UNL     1      -2.687  12.081  19.782  0.00  0.00    +0.000 A 
ATOM     12  N   UNL     1      -3.616  12.278  18.844  0.00  0.00    +0.000 NA
ATOM     13  C   UNL     1      -3.418  11.503  17.767  0.00  0.00    +0.000 A 
ATOM     14  S   UNL     1      -4.488  11.579  16.439  0.00  0.00    +0.000 S 
ATOM     15  C   UNL     1      -3.608  10.401  15.611  0.00  0.00    +0.000 A 
ATOM     16 CL   UNL     1      -4.125   9.886  14.057  0.00  0.00    +0.000 Cl
ATOM     17  C   UNL     1      -2.513   9.947  16.300  0.00  0.00    +0.000 A 
ATOM     18  C   UNL     1      -2.392  10.585  17.586  0.00  0.00    +0.000 A 
ENDBRANCH   7   9
ENDBRANCH   4   7
BRANCH   1  19
ATOM     19  C   UNL     1       2.364   6.075  19.539  0.00  0.00    +0.000 C 
BRANCH  19  22
ATOM     20  C   UNL     1       5.315   5.347  17.192  0.00  0.00    +0.000 A 
ATOM     21  C   UNL     1       4.506   5.958  18.166  0.00  0.00    +0.000 A 
ATOM     22  C   UNL     1       3.273   5.386  18.538  0.00  0.00    +0.000 A 
ATOM     23  C   UNL     1       2.869   4.189  17.925  0.00  0.00    +0.000 A 
ATOM     24  C   UNL     1       3.675   3.579  16.962  0.00  0.00    +0.000 A 
ATOM     25  C   UNL     1       4.887   4.163  16.603  0.00  0.00    +0.000 A 
ATOM     26  F   UNL     1       5.635   3.559  15.666  0.00  0.00    +0.000 F 
BRANCH  20  28
ATOM     27  N   UNL     1       7.558   6.412  16.451  0.00  0.00    +0.000 NA
ATOM     28  C   UNL     1       6.557   5.947  16.799  0.00  0.00    +0.000 C 
ENDBRANCH  20  28
ENDBRANCH  19  22
ENDBRANCH   1  19
TORSDOF 5
ENDMDL
MODEL 6
REMARK VINA RESULT:      -7.8      4.295      7.864
REMARK  Name = 
REMARK  5 active torsions:
REMARK  status: ('A' for Active; 'I' for Inactive)
REMARK    1  A    between atoms: C_2  and  C_3
REMARK    2  A    between atoms: C_5  and  C_6
REMARK    3  A    between atoms: C_6  and  N_7
REMARK    4  A    between atoms: C_10  and  N_11
REMARK    5  A    between atoms: N_11  and  C_12
REMARK                            x       y       z     vdW  Elec       q    Type
REMARK                         _______ _______ _______ _____ _____    ______ ____
ROOT
ATOM      1  N   UNL     1       1.633   6.768  20.073  0.00  0.00    +0.000 NA
ATOM      2  C   UNL     1       2.762   7.025  19.159  0.00  0.00    +0.000 C 
ATOM      3  C   UNL     1       2.822   6.066  17.971  0.00  0.00    +0.000 C 
ATOM      4  C   UNL     1       2.848   4.604  18.413  0.00  0.00    +0.000 C 
ATOM      5  C   UNL     1       1.602   4.364  19.268  0.00  0.00    +0.000 C 
ATOM      6  C   UNL     1       1.509   5.346  20.439  0.00  0.00    +0.000 C 
ENDROOT
BRANCH   4   7
ATOM      7  N   UNL     1       4.054   4.255  19.185  0.00  0.00    +0.000 N 
ATOM      8  H   UNL     1       4.111   3.278  19.445  0.00  0.00    +0.000 HD
BRANCH   7   9
ATOM      9  C   UNL     1       5.283   4.712  18.699  0.00  0.00    +0.000 A 
ATOM     10  N   UNL     1       6.171   5.281  19.544  0.00  0.00    +0.000 NA
ATOM     11  C   UNL     1       7.350   5.709  19.066  0.00  0.00    +0.000 A 
ATOM     12  N   UNL     1       7.787   5.657  17.806  0.00  0.00    +0.000 NA
ATOM     13  C   UNL     1       6.892   5.088  16.985  0.00  0.00    +0.000 A 
ATOM     14  S   UNL     1       7.232   4.918  15.321  0.00  0.00    +0.000 S 
ATOM     15  C   UNL     1       5.735   4.189  15.048  0.00  0.00    +0.000 A 
ATOM     16 CL   UNL     1       5.301   3.702  13.460  0.00  0.00    +0.000 Cl
ATOM     17  C   UNL     1       4.974   4.055  16.180  0.00  0.00    +0.000 A 
ATOM     18  C   UNL     1       5.644   4.592  17.338  0.00  0.00    +0.000 A 
ENDBRANCH   7   9
ENDBRANCH   4   7
BRANCH   1  19
ATOM     19  C   UNL     1       1.783   7.570  21.311  0.00  0.00    +0.000 C 
BRANCH  19  22
ATOM     20  C   UNL     1      -0.476  10.541  20.406  0.00  0.00    +0.000 A 
ATOM     21  C   UNL     1       0.365   9.421  20.286  0.00  0.00    +0.000 A 
ATOM     22  C   UNL     1       0.821   8.738  21.431  0.00  0.00    +0.000 A 
ATOM     23  C   UNL     1       0.418   9.193  22.697  0.00  0.00    +0.000 A 
ATOM     24  C   UNL     1      -0.421  10.302  22.817  0.00  0.00    +0.000 A 
ATOM     25  C   UNL     1      -0.858  10.967  21.674  0.00  0.00    +0.000 A 
ATOM     26  F   UNL     1      -1.654  12.037  21.821  0.00  0.00    +0.000 F 
BRANCH  20  28
ATOM     27  N   UNL     1      -1.301  11.794  18.294  0.00  0.00    +0.000 NA
ATOM     28  C   UNL     1      -0.918  11.248  19.239  0.00  0.00    +0.000 C 
ENDBRANCH  20  28
ENDBRANCH  19  22
ENDBRANCH   1  19
TORSDOF 5
ENDMDL
MODEL 7
REMARK VINA RESULT:      -7.7      4.238      7.280
REMARK  Name = 
REMARK  5 active torsions:
REMARK  status: ('A' for Active; 'I' for Inactive)
REMARK    1  A    between atoms: C_2  and  C_3
REMARK    2  A    between atoms: C_5  and  C_6
REMARK    3  A    between atoms: C_6  and  N_7
REMARK    4  A    between atoms: C_10  and  N_11
REMARK    5  A    between atoms: N_11  and  C_12
REMARK                            x       y       z     vdW  Elec       q    Type
REMARK                         _______ _______ _______ _____ _____    ______ ____
ROOT
ATOM      1  N   UNL     1       2.350   3.561  20.109  0.00  0.00    +0.000 NA
ATOM      2  C   UNL     1       1.622   3.361  18.842  0.00  0.00    +0.000 C 
ATOM      3  C   UNL     1       2.371   2.492  17.834  0.00  0.00    +0.000 C 
ATOM      4  C   UNL     1       3.769   3.029  17.537  0.00  0.00    +0.000 C 
ATOM      5  C   UNL     1       4.516   3.117  18.870  0.00  0.00    +0.000 C 
ATOM      6  C   UNL     1       3.756   3.953  19.903  0.00  0.00    +0.000 C 
ENDROOT
BRANCH   4   7
ATOM      7  N   UNL     1       3.753   4.354  16.890  0.00  0.00    +0.000 N 
ATOM      8  H   UNL     1       3.169   5.036  17.358  0.00  0.00    +0.000 HD
BRANCH   7   9
ATOM      9  C   UNL     1       4.986   4.914  16.540  0.00  0.00    +0.000 A 
ATOM     10  N   UNL     1       5.593   5.782  17.379  0.00  0.00    +0.000 NA
ATOM     11  C   UNL     1       6.779   6.307  17.033  0.00  0.00    +0.000 A 
ATOM     12  N   UNL     1       7.474   6.088  15.915  0.00  0.00    +0.000 NA
ATOM     13  C   UNL     1       6.855   5.223  15.097  0.00  0.00    +0.000 A 
ATOM     14  S   UNL     1       7.556   4.796  13.601  0.00  0.00    +0.000 S 
ATOM     15  C   UNL     1       6.260   3.779  13.238  0.00  0.00    +0.000 A 
ATOM     16 CL   UNL     1       6.237   2.924  11.749  0.00  0.00    +0.000 Cl
ATOM     17  C   UNL     1       5.302   3.737  14.219  0.00  0.00    +0.000 A 
ATOM     18  C   UNL     1       5.637   4.597  15.326  0.00  0.00    +0.000 A 
ENDBRANCH   7   9
ENDBRANCH   4   7
BRANCH   1  19
ATOM     19  C   UNL     1       1.679   4.600  20.927  0.00  0.00    +0.000 C 
BRANCH  19  22
ATOM     20  C   UNL     1       1.365   8.411  20.575  0.00  0.00    +0.000 A 
ATOM     21  C   UNL     1       1.330   7.115  21.119  0.00  0.00    +0.000 A 
ATOM     22  C   UNL     1       1.778   6.009  20.371  0.00  0.00    +0.000 A 
ATOM     23  C   UNL     1       2.267   6.223  19.072  0.00  0.00    +0.000 A 
ATOM     24  C   UNL     1       2.307   7.509  18.533  0.00  0.00    +0.000 A 
ATOM     25  C   UNL     1       1.855   8.590  19.286  0.00  0.00    +0.000 A 
ATOM     26  F   UNL     1       1.895   9.814  18.737  0.00  0.00    +0.000 F 
BRANCH  20  28
ATOM     27  N   UNL     1       0.531  10.442  21.950  0.00  0.00    +0.000 NA
ATOM     28  C   UNL     1       0.885   9.531  21.332  0.00  0.00    +0.000 C 
ENDBRANCH  20  28
ENDBRANCH  19  22
ENDBRANCH   1  19
TORSDOF 5
ENDMDL
MODEL 8
REMARK VINA RESULT:      -7.7      1.469      1.874
REMARK  Name = 
REMARK  5 active torsions:
REMARK  status: ('A' for Active; 'I' for Inactive)
REMARK    1  A    between atoms: C_2  and  C_3
REMARK    2  A    between atoms: C_5  and  C_6
REMARK    3  A    between atoms: C_6  and  N_7
REMARK    4  A    between atoms: C_10  and  N_11
REMARK    5  A    between atoms: N_11  and  C_12
REMARK                            x       y       z     vdW  Elec       q    Type
REMARK                         _______ _______ _______ _____ _____    ______ ____
ROOT
ATOM      1  N   UNL     1       4.101   3.709  18.277  0.00  0.00    +0.000 NA
ATOM      2  C   UNL     1       3.756   3.704  19.711  0.00  0.00    +0.000 C 
ATOM      3  C   UNL     1       2.281   3.989  19.989  0.00  0.00    +0.000 C 
ATOM      4  C   UNL     1       1.818   5.301  19.359  0.00  0.00    +0.000 C 
ATOM      5  C   UNL     1       2.102   5.210  17.858  0.00  0.00    +0.000 C 
ATOM      6  C   UNL     1       3.569   4.886  17.566  0.00  0.00    +0.000 C 
ENDROOT
BRANCH   4   7
ATOM      7  N   UNL     1       2.498   6.482  19.921  0.00  0.00    +0.000 N 
ATOM      8  H   UNL     1       3.509   6.411  19.934  0.00  0.00    +0.000 HD
BRANCH   7   9
ATOM      9  C   UNL     1       2.096   7.738  19.455  0.00  0.00    +0.000 A 
ATOM     10  N   UNL     1       2.461   8.146  18.220  0.00  0.00    +0.000 NA
ATOM     11  C   UNL     1       2.063   9.351  17.782  0.00  0.00    +0.000 A 
ATOM     12  N   UNL     1       1.328  10.254  18.434  0.00  0.00    +0.000 NA
ATOM     13  C   UNL     1       0.976   9.830  19.658  0.00  0.00    +0.000 A 
ATOM     14  S   UNL     1       0.036  10.822  20.680  0.00  0.00    +0.000 S 
ATOM     15  C   UNL     1       0.052   9.654  21.897  0.00  0.00    +0.000 A 
ATOM     16 CL   UNL     1      -0.748   9.962  23.385  0.00  0.00    +0.000 Cl
ATOM     17  C   UNL     1       0.742   8.518  21.560  0.00  0.00    +0.000 A 
ATOM     18  C   UNL     1       1.304   8.610  20.236  0.00  0.00    +0.000 A 
ENDBRANCH   7   9
ENDBRANCH   4   7
BRANCH   1  19
ATOM     19  C   UNL     1       5.573   3.670  18.104  0.00  0.00    +0.000 C 
BRANCH  19  22
ATOM     20  C   UNL     1       6.109   4.045  14.320  0.00  0.00    +0.000 A 
ATOM     21  C   UNL     1       5.600   3.615  15.558  0.00  0.00    +0.000 A 
ATOM     22  C   UNL     1       6.069   4.177  16.762  0.00  0.00    +0.000 A 
ATOM     23  C   UNL     1       7.050   5.180  16.706  0.00  0.00    +0.000 A 
ATOM     24  C   UNL     1       7.552   5.611  15.477  0.00  0.00    +0.000 A 
ATOM     25  C   UNL     1       7.080   5.040  14.298  0.00  0.00    +0.000 A 
ATOM     26  F   UNL     1       7.590   5.467  13.132  0.00  0.00    +0.000 F 
BRANCH  20  28
ATOM     27  N   UNL     1       5.304   2.986  12.098  0.00  0.00    +0.000 NA
ATOM     28  C   UNL     1       5.647   3.453  13.099  0.00  0.00    +0.000 C 
ENDBRANCH  20  28
ENDBRANCH  19  22
ENDBRANCH   1  19
TORSDOF 5
ENDMDL
MODEL 9
REMARK VINA RESULT:      -7.6      3.812      5.746
REMARK  Name = 
REMARK  5 active torsions:
REMARK  status: ('A' for Active; 'I' for Inactive)
REMARK    1  A    between atoms: C_2  and  C_3
REMARK    2  A    between atoms: C_5  and  C_6
REMARK    3  A    between atoms: C_6  and  N_7
REMARK    4  A    between atoms: C_10  and  N_11
REMARK    5  A    between atoms: N_11  and  C_12
REMARK                            x       y       z     vdW  Elec       q    Type
REMARK                         _______ _______ _______ _____ _____    ______ ____
ROOT
ATOM      1  N   UNL     1       1.781   8.051  18.594  0.00  0.00    +0.000 NA
ATOM      2  C   UNL     1       1.886   8.164  20.061  0.00  0.00    +0.000 C 
ATOM      3  C   UNL     1       0.676   8.829  20.714  0.00  0.00    +0.000 C 
ATOM      4  C   UNL     1       0.383  10.205  20.117  0.00  0.00    +0.000 C 
ATOM      5  C   UNL     1       0.178  10.014  18.613  0.00  0.00    +0.000 C 
ATOM      6  C   UNL     1       1.367   9.312  17.953  0.00  0.00    +0.000 C 
ENDROOT
BRANCH   4   7
ATOM      7  N   UNL     1       1.466  11.177  20.351  0.00  0.00    +0.000 N 
ATOM      8  H   UNL     1       2.181  11.181  19.633  0.00  0.00    +0.000 HD
BRANCH   7   9
ATOM      9  C   UNL     1       1.097  12.483  20.688  0.00  0.00    +0.000 A 
ATOM     10  N   UNL     1       0.275  12.699  21.739  0.00  0.00    +0.000 NA
ATOM     11  C   UNL     1      -0.067  13.958  22.056  0.00  0.00    +0.000 A 
ATOM     12  N   UNL     1       0.302  15.083  21.441  0.00  0.00    +0.000 NA
ATOM     13  C   UNL     1       1.118  14.847  20.403  0.00  0.00    +0.000 A 
ATOM     14  S   UNL     1       1.715  16.139  19.460  0.00  0.00    +0.000 S 
ATOM     15  C   UNL     1       2.565  15.075  18.466  0.00  0.00    +0.000 A 
ATOM     16 CL   UNL     1       3.487  15.687  17.152  0.00  0.00    +0.000 Cl
ATOM     17  C   UNL     1       2.426  13.758  18.823  0.00  0.00    +0.000 A 
ATOM     18  C   UNL     1       1.562  13.606  19.966  0.00  0.00    +0.000 A 
ENDBRANCH   7   9
ENDBRANCH   4   7
BRANCH   1  19
ATOM     19  C   UNL     1       3.079   7.624  18.019  0.00  0.00    +0.000 C 
BRANCH  19  22
ATOM     20  C   UNL     1       2.335   3.857  18.016  0.00  0.00    +0.000 A 
ATOM     21  C   UNL     1       2.167   5.249  18.123  0.00  0.00    +0.000 A 
ATOM     22  C   UNL     1       3.234   6.125  17.840  0.00  0.00    +0.000 A 
ATOM     23  C   UNL     1       4.467   5.585  17.442  0.00  0.00    +0.000 A 
ATOM     24  C   UNL     1       4.633   4.204  17.330  0.00  0.00    +0.000 A 
ATOM     25  C   UNL     1       3.569   3.353  17.620  0.00  0.00    +0.000 A 
ATOM     26  F   UNL     1       3.761   2.029  17.514  0.00  0.00    +0.000 F 
BRANCH  20  28
ATOM     27  N   UNL     1       0.378   2.268  18.614  0.00  0.00    +0.000 NA
ATOM     28  C   UNL     1       1.254   2.968  18.330  0.00  0.00    +0.000 C 
ENDBRANCH  20  28
ENDBRANCH  19  22
ENDBRANCH   1  19
TORSDOF 5
ENDMDL
