MODEL 1
REMARK VINA RESULT:      -7.4      0.000      0.000
REMARK  Name = 
REMARK  10 active torsions:
REMARK  status: ('A' for Active; 'I' for Inactive)
REMARK    1  A    between atoms: C_1  and  S_2
REMARK    2  A    between atoms: S_2  and  C_3
REMARK    3  A    between atoms: C_6  and  C_7
REMARK    4  A    between atoms: C_7  and  C_8
REMARK    5  A    between atoms: C_10  and  C_11
REMARK    6  A    between atoms: C_13  and  C_14
REMARK    7  A    between atoms: C_14  and  O_15
REMARK    8  A    between atoms: C_16  and  O_17
REMARK    9  A    between atoms: C_18  and  O_19
REMARK   10  A    between atoms: C_20  and  O_21
REMARK                            x       y       z     vdW  Elec       q    Type
REMARK                         _______ _______ _______ _____ _____    ______ ____
ROOT
ATOM      1  C   UNL     1       3.888   4.338  19.434  0.00  0.00    +0.000 A 
ATOM      2  C   UNL     1       3.698   5.693  19.791  0.00  0.00    +0.000 A 
ATOM      3  C   UNL     1       2.410   6.234  19.920  0.00  0.00    +0.000 A 
ATOM      4  C   UNL     1       1.306   5.370  19.804  0.00  0.00    +0.000 A 
ATOM      5  C   UNL     1       1.479   4.022  19.508  0.00  0.00    +0.000 A 
ATOM      6  C   UNL     1       2.760   3.511  19.304  0.00  0.00    +0.000 A 
ATOM      7 CL   UNL     1       2.872   1.860  18.811  0.00  0.00    +0.000 Cl
ENDROOT
BRANCH   3   8
ATOM      8  C   UNL     1       2.124   7.721  19.868  0.00  0.00    +0.000 C 
ATOM      9  O   UNL     1       1.173   7.836  20.936  0.00  0.00    +0.000 OA
ATOM     10  C   UNL     1       0.845   9.171  21.305  0.00  0.00    +0.000 C 
ATOM     11  C   UNL     1       0.190   9.887  20.117  0.00  0.00    +0.000 C 
ATOM     12  C   UNL     1       1.127   9.807  18.899  0.00  0.00    +0.000 C 
ATOM     13  C   UNL     1       1.566   8.363  18.584  0.00  0.00    +0.000 C 
BRANCH  11  14
ATOM     14  O   UNL     1      -0.094  11.250  20.440  0.00  0.00    +0.000 OA
ATOM     15  H   UNL     1       0.136  11.813  19.680  0.00  0.00    +0.000 HD
ENDBRANCH  11  14
BRANCH  12  16
ATOM     16  O   UNL     1       0.534  10.381  17.723  0.00  0.00    +0.000 OA
ATOM     17  H   UNL     1      -0.422  10.486  17.883  0.00  0.00    +0.000 HD
ENDBRANCH  12  16
BRANCH  13  18
ATOM     18  O   UNL     1       2.575   8.416  17.566  0.00  0.00    +0.000 OA
ATOM     19  H   UNL     1       2.970   7.521  17.519  0.00  0.00    +0.000 HD
ENDBRANCH  13  18
BRANCH  10  20
ATOM     20  C   UNL     1      -0.084   9.041  22.516  0.00  0.00    +0.000 C 
BRANCH  20  21
ATOM     21  O   UNL     1      -0.007  10.215  23.328  0.00  0.00    +0.000 OA
ATOM     22  H   UNL     1       0.940  10.469  23.320  0.00  0.00    +0.000 HD
ENDBRANCH  20  21
ENDBRANCH  10  20
ENDBRANCH   3   8
BRANCH   1  23
ATOM     23  C   UNL     1       5.288   3.863  19.108  0.00  0.00    +0.000 C 
BRANCH  23  27
ATOM     24  C   UNL     1       6.619   4.607  15.166  0.00  0.00    +0.000 A 
ATOM     25  C   UNL     1       5.285   4.303  15.346  0.00  0.00    +0.000 A 
ATOM     26  C   UNL     1       4.817   4.046  16.632  0.00  0.00    +0.000 A 
ATOM     27  C   UNL     1       5.721   4.088  17.686  0.00  0.00    +0.000 A 
ATOM     28  N   UNL     1       7.018   4.387  17.478  0.00  0.00    +0.000 NA
ATOM     29  N   UNL     1       7.468   4.647  16.212  0.00  0.00    +0.000 NA
BRANCH  24  31
ATOM     30  C   UNL     1       6.391   3.656  12.590  0.00  0.00    +0.000 C 
ATOM     31  S   UNL     1       7.233   4.956  13.531  0.00  0.00    +0.000 S 
ENDBRANCH  24  31
ENDBRANCH  23  27
ENDBRANCH   1  23
TORSDOF 9
ENDMDL
MODEL 2
REMARK VINA RESULT:      -7.3      5.001      7.980
REMARK  Name = 
REMARK  10 active torsions:
REMARK  status: ('A' for Active; 'I' for Inactive)
REMARK    1  A    between atoms: C_1  and  S_2
REMARK    2  A    between atoms: S_2  and  C_3
REMARK    3  A    between atoms: C_6  and  C_7
REMARK    4  A    between atoms: C_7  and  C_8
REMARK    5  A    between atoms: C_10  and  C_11
REMARK    6  A    between atoms: C_13  and  C_14
REMARK    7  A    between atoms: C_14  and  O_15
REMARK    8  A    between atoms: C_16  and  O_17
REMARK    9  A    between atoms: C_18  and  O_19
REMARK   10  A    between atoms: C_20  and  O_21
REMARK                            x       y       z     vdW  Elec       q    Type
REMARK                         _______ _______ _______ _____ _____    ______ ____
ROOT
ATOM      1  C   UNL     1       2.085   8.113  19.019  0.00  0.00    +0.000 A 
ATOM      2  C   UNL     1       2.829   7.150  18.299  0.00  0.00    +0.000 A 
ATOM      3  C   UNL     1       3.117   5.894  18.856  0.00  0.00    +0.000 A 
ATOM      4  C   UNL     1       2.549   5.567  20.100  0.00  0.00    +0.000 A 
ATOM      5  C   UNL     1       1.768   6.484  20.795  0.00  0.00    +0.000 A 
ATOM      6  C   UNL     1       1.552   7.757  20.268  0.00  0.00    +0.000 A 
ATOM      7 CL   UNL     1       0.683   8.874  21.257  0.00  0.00    +0.000 Cl
ENDROOT
BRANCH   3   8
ATOM      8  C   UNL     1       4.236   5.002  18.359  0.00  0.00    +0.000 C 
ATOM      9  O   UNL     1       5.377   5.742  18.817  0.00  0.00    +0.000 OA
ATOM     10  C   UNL     1       6.621   5.061  18.695  0.00  0.00    +0.000 C 
ATOM     11  C   UNL     1       6.908   4.772  17.217  0.00  0.00    +0.000 C 
ATOM     12  C   UNL     1       5.727   3.989  16.616  0.00  0.00    +0.000 C 
ATOM     13  C   UNL     1       4.372   4.685  16.858  0.00  0.00    +0.000 C 
BRANCH  11  14
ATOM     14  O   UNL     1       8.123   4.034  17.070  0.00  0.00    +0.000 OA
ATOM     15  H   UNL     1       7.961   3.103  17.304  0.00  0.00    +0.000 HD
ENDBRANCH  11  14
BRANCH  12  16
ATOM     16  O   UNL     1       5.890   3.764  15.207  0.00  0.00    +0.000 OA
ATOM     17  H   UNL     1       5.056   3.397  14.858  0.00  0.00    +0.000 HD
ENDBRANCH  12  16
BRANCH  13  18
ATOM     18  O   UNL     1       3.331   3.793  16.434  0.00  0.00    +0.000 OA
ATOM     19  H   UNL     1       2.691   3.742  17.172  0.00  0.00    +0.000 HD
ENDBRANCH  13  18
BRANCH  10  20
ATOM     20  C   UNL     1       7.656   5.988  19.340  0.00  0.00    +0.000 C 
BRANCH  20  21
ATOM     21  O   UNL     1       8.079   5.461  20.599  0.00  0.00    +0.000 OA
ATOM     22  H   UNL     1       8.596   4.657  20.378  0.00  0.00    +0.000 HD
ENDBRANCH  20  21
ENDBRANCH  10  20
ENDBRANCH   3   8
BRANCH   1  23
ATOM     23  C   UNL     1       1.981   9.516  18.458  0.00  0.00    +0.000 C 
BRANCH  23  27
ATOM     24  C   UNL     1      -1.966  10.878  17.796  0.00  0.00    +0.000 A 
ATOM     25  C   UNL     1      -1.138  11.663  18.573  0.00  0.00    +0.000 A 
ATOM     26  C   UNL     1       0.166  11.238  18.814  0.00  0.00    +0.000 A 
ATOM     27  C   UNL     1       0.577  10.025  18.278  0.00  0.00    +0.000 A 
ATOM     28  N   UNL     1      -0.256   9.280  17.524  0.00  0.00    +0.000 NA
ATOM     29  N   UNL     1      -1.533   9.709  17.284  0.00  0.00    +0.000 NA
BRANCH  24  31
ATOM     30  C   UNL     1      -3.770  10.949  15.715  0.00  0.00    +0.000 C 
ATOM     31  S   UNL     1      -3.632  11.412  17.461  0.00  0.00    +0.000 S 
ENDBRANCH  24  31
ENDBRANCH  23  27
ENDBRANCH   1  23
TORSDOF 9
ENDMDL
MODEL 3
REMARK VINA RESULT:      -7.2      0.869      1.007
REMARK  Name = 
REMARK  10 active torsions:
REMARK  status: ('A' for Active; 'I' for Inactive)
REMARK    1  A    between atoms: C_1  and  S_2
REMARK    2  A    between atoms: S_2  and  C_3
REMARK    3  A    between atoms: C_6  and  C_7
REMARK    4  A    between atoms: C_7  and  C_8
REMARK    5  A    between atoms: C_10  and  C_11
REMARK    6  A    between atoms: C_13  and  C_14
REMARK    7  A    between atoms: C_14  and  O_15
REMARK    8  A    between atoms: C_16  and  O_17
REMARK    9  A    between atoms: C_18  and  O_19
REMARK   10  A    between atoms: C_20  and  O_21
REMARK                            x       y       z     vdW  Elec       q    Type
REMARK                         _______ _______ _______ _____ _____    ______ ____
ROOT
ATOM      1  C   UNL     1       3.488   4.097  19.736  0.00  0.00    +0.000 A 
ATOM      2  C   UNL     1       3.437   5.479  20.032  0.00  0.00    +0.000 A 
ATOM      3  C   UNL     1       2.209   6.141  20.183  0.00  0.00    +0.000 A 
ATOM      4  C   UNL     1       1.028   5.379  20.151  0.00  0.00    +0.000 A 
ATOM      5  C   UNL     1       1.066   4.008  19.916  0.00  0.00    +0.000 A 
ATOM      6  C   UNL     1       2.286   3.372  19.690  0.00  0.00    +0.000 A 
ATOM      7 CL   UNL     1       2.228   1.697  19.276  0.00  0.00    +0.000 Cl
ENDROOT
BRANCH   3   8
ATOM      8  C   UNL     1       2.057   7.645  20.067  0.00  0.00    +0.000 C 
ATOM      9  O   UNL     1       1.047   7.876  21.060  0.00  0.00    +0.000 OA
ATOM     10  C   UNL     1       0.810   9.246  21.365  0.00  0.00    +0.000 C 
ATOM     11  C   UNL     1       0.304   9.972  20.113  0.00  0.00    +0.000 C 
ATOM     12  C   UNL     1       1.314   9.772  18.969  0.00  0.00    +0.000 C 
ATOM     13  C   UNL     1       1.647   8.286  18.728  0.00  0.00    +0.000 C 
BRANCH  11  14
ATOM     14  O   UNL     1       0.116  11.365  20.375  0.00  0.00    +0.000 OA
ATOM     15  H   UNL     1       0.562  11.883  19.683  0.00  0.00    +0.000 HD
ENDBRANCH  11  14
BRANCH  12  16
ATOM     16  O   UNL     1       0.856  10.352  17.737  0.00  0.00    +0.000 OA
ATOM     17  H   UNL     1       0.403   9.659  17.222  0.00  0.00    +0.000 HD
ENDBRANCH  12  16
BRANCH  13  18
ATOM     18  O   UNL     1       2.726   8.219  17.785  0.00  0.00    +0.000 OA
ATOM     19  H   UNL     1       2.332   7.945  16.932  0.00  0.00    +0.000 HD
ENDBRANCH  13  18
BRANCH  10  20
ATOM     20  C   UNL     1      -0.208   9.237  22.509  0.00  0.00    +0.000 C 
BRANCH  20  21
ATOM     21  O   UNL     1      -0.123  10.449  23.259  0.00  0.00    +0.000 OA
ATOM     22  H   UNL     1       0.655  10.922  22.893  0.00  0.00    +0.000 HD
ENDBRANCH  20  21
ENDBRANCH  10  20
ENDBRANCH   3   8
BRANCH   1  23
ATOM     23  C   UNL     1       4.825   3.481  19.382  0.00  0.00    +0.000 C 
BRANCH  23  27
ATOM     24  C   UNL     1       6.347   4.547  15.585  0.00  0.00    +0.000 A 
ATOM     25  C   UNL     1       7.095   4.886  16.695  0.00  0.00    +0.000 A 
ATOM     26  C   UNL     1       6.617   4.554  17.960  0.00  0.00    +0.000 A 
ATOM     27  C   UNL     1       5.391   3.909  18.056  0.00  0.00    +0.000 A 
ATOM     28  N   UNL     1       4.683   3.593  16.954  0.00  0.00    +0.000 NA
ATOM     29  N   UNL     1       5.164   3.914  15.714  0.00  0.00    +0.000 NA
BRANCH  24  31
ATOM     30  C   UNL     1       6.144   3.643  12.990  0.00  0.00    +0.000 C 
ATOM     31  S   UNL     1       6.949   4.948  13.957  0.00  0.00    +0.000 S 
ENDBRANCH  24  31
ENDBRANCH  23  27
ENDBRANCH   1  23
TORSDOF 9
ENDMDL
MODEL 4
REMARK VINA RESULT:      -7.1      5.179      8.154
REMARK  Name = 
REMARK  10 active torsions:
REMARK  status: ('A' for Active; 'I' for Inactive)
REMARK    1  A    between atoms: C_1  and  S_2
REMARK    2  A    between atoms: S_2  and  C_3
REMARK    3  A    between atoms: C_6  and  C_7
REMARK    4  A    between atoms: C_7  and  C_8
REMARK    5  A    between atoms: C_10  and  C_11
REMARK    6  A    between atoms: C_13  and  C_14
REMARK    7  A    between atoms: C_14  and  O_15
REMARK    8  A    between atoms: C_16  and  O_17
REMARK    9  A    between atoms: C_18  and  O_19
REMARK   10  A    between atoms: C_20  and  O_21
REMARK                            x       y       z     vdW  Elec       q    Type
REMARK                         _______ _______ _______ _____ _____    ______ ____
ROOT
ATOM      1  C   UNL     1       1.988   8.319  18.944  0.00  0.00    +0.000 A 
ATOM      2  C   UNL     1       2.756   7.392  18.202  0.00  0.00    +0.000 A 
ATOM      3  C   UNL     1       3.104   6.145  18.743  0.00  0.00    +0.000 A 
ATOM      4  C   UNL     1       2.574   5.786  19.995  0.00  0.00    +0.000 A 
ATOM      5  C   UNL     1       1.771   6.666  20.713  0.00  0.00    +0.000 A 
ATOM      6  C   UNL     1       1.495   7.934  20.201  0.00  0.00    +0.000 A 
ATOM      7 CL   UNL     1       0.603   9.007  21.217  0.00  0.00    +0.000 Cl
ENDROOT
BRANCH   3   8
ATOM      8  C   UNL     1       4.247   5.301  18.216  0.00  0.00    +0.000 C 
ATOM      9  O   UNL     1       5.303   6.272  18.218  0.00  0.00    +0.000 OA
ATOM     10  C   UNL     1       6.602   5.744  17.969  0.00  0.00    +0.000 C 
ATOM     11  C   UNL     1       6.645   5.119  16.570  0.00  0.00    +0.000 C 
ATOM     12  C   UNL     1       5.529   4.065  16.452  0.00  0.00    +0.000 C 
ATOM     13  C   UNL     1       4.145   4.624  16.837  0.00  0.00    +0.000 C 
BRANCH  11  14
ATOM     14  O   UNL     1       7.921   4.526  16.317  0.00  0.00    +0.000 OA
ATOM     15  H   UNL     1       7.916   4.122  15.432  0.00  0.00    +0.000 HD
ENDBRANCH  11  14
BRANCH  12  16
ATOM     16  O   UNL     1       5.455   3.503  15.133  0.00  0.00    +0.000 OA
ATOM     17  H   UNL     1       6.258   2.970  14.981  0.00  0.00    +0.000 HD
ENDBRANCH  12  16
BRANCH  13  18
ATOM     18  O   UNL     1       3.218   3.529  16.879  0.00  0.00    +0.000 OA
ATOM     19  H   UNL     1       3.750   2.713  16.788  0.00  0.00    +0.000 HD
ENDBRANCH  13  18
BRANCH  10  20
ATOM     20  C   UNL     1       7.559   6.929  18.129  0.00  0.00    +0.000 C 
BRANCH  20  21
ATOM     21  O   UNL     1       7.739   7.594  16.877  0.00  0.00    +0.000 OA
ATOM     22  H   UNL     1       8.307   8.369  17.079  0.00  0.00    +0.000 HD
ENDBRANCH  20  21
ENDBRANCH  10  20
ENDBRANCH   3   8
BRANCH   1  23
ATOM     23  C   UNL     1       1.817   9.721  18.397  0.00  0.00    +0.000 C 
BRANCH  23  27
ATOM     24  C   UNL     1      -2.180  11.085  18.211  0.00  0.00    +0.000 A 
ATOM     25  C   UNL     1      -1.853   9.953  17.490  0.00  0.00    +0.000 A 
ATOM     26  C   UNL     1      -0.543   9.483  17.526  0.00  0.00    +0.000 A 
ATOM     27  C   UNL     1       0.393  10.186  18.274  0.00  0.00    +0.000 A 
ATOM     28  N   UNL     1       0.043  11.288  18.966  0.00  0.00    +0.000 NA
ATOM     29  N   UNL     1      -1.249  11.738  18.933  0.00  0.00    +0.000 NA
BRANCH  24  31
ATOM     30  C   UNL     1      -4.361  11.177  16.530  0.00  0.00    +0.000 C 
ATOM     31  S   UNL     1      -3.854  11.692  18.192  0.00  0.00    +0.000 S 
ENDBRANCH  24  31
ENDBRANCH  23  27
ENDBRANCH   1  23
TORSDOF 9
ENDMDL
MODEL 5
REMARK VINA RESULT:      -7.1      5.424      8.991
REMARK  Name = 
REMARK  10 active torsions:
REMARK  status: ('A' for Active; 'I' for Inactive)
REMARK    1  A    between atoms: C_1  and  S_2
REMARK    2  A    between atoms: S_2  and  C_3
REMARK    3  A    between atoms: C_6  and  C_7
REMARK    4  A    between atoms: C_7  and  C_8
REMARK    5  A    between atoms: C_10  and  C_11
REMARK    6  A    between atoms: C_13  and  C_14
REMARK    7  A    between atoms: C_14  and  O_15
REMARK    8  A    between atoms: C_16  and  O_17
REMARK    9  A    between atoms: C_18  and  O_19
REMARK   10  A    between atoms: C_20  and  O_21
REMARK                            x       y       z     vdW  Elec       q    Type
REMARK                         _______ _______ _______ _____ _____    ______ ____
ROOT
ATOM      1  C   UNL     1       0.738   9.195  20.157  0.00  0.00    +0.000 A 
ATOM      2  C   UNL     1       1.570   8.129  20.570  0.00  0.00    +0.000 A 
ATOM      3  C   UNL     1       2.314   7.390  19.638  0.00  0.00    +0.000 A 
ATOM      4  C   UNL     1       2.309   7.805  18.294  0.00  0.00    +0.000 A 
ATOM      5  C   UNL     1       1.538   8.888  17.882  0.00  0.00    +0.000 A 
ATOM      6  C   UNL     1       0.741   9.567  18.803  0.00  0.00    +0.000 A 
ATOM      7 CL   UNL     1      -0.283  10.811  18.181  0.00  0.00    +0.000 Cl
ENDROOT
BRANCH   3   8
ATOM      8  C   UNL     1       2.867   6.008  19.924  0.00  0.00    +0.000 C 
ATOM      9  O   UNL     1       4.009   6.005  19.056  0.00  0.00    +0.000 OA
ATOM     10  C   UNL     1       4.895   4.905  19.236  0.00  0.00    +0.000 C 
ATOM     11  C   UNL     1       4.160   3.596  18.923  0.00  0.00    +0.000 C 
ATOM     12  C   UNL     1       2.896   3.505  19.796  0.00  0.00    +0.000 C 
ATOM     13  C   UNL     1       2.004   4.757  19.676  0.00  0.00    +0.000 C 
BRANCH  11  14
ATOM     14  O   UNL     1       5.010   2.469  19.156  0.00  0.00    +0.000 OA
ATOM     15  H   UNL     1       4.467   1.662  19.188  0.00  0.00    +0.000 HD
ENDBRANCH  11  14
BRANCH  12  16
ATOM     16  O   UNL     1       2.110   2.342  19.488  0.00  0.00    +0.000 OA
ATOM     17  H   UNL     1       2.714   1.582  19.391  0.00  0.00    +0.000 HD
ENDBRANCH  12  16
BRANCH  13  18
ATOM     18  O   UNL     1       0.963   4.658  20.660  0.00  0.00    +0.000 OA
ATOM     19  H   UNL     1       1.087   5.412  21.271  0.00  0.00    +0.000 HD
ENDBRANCH  13  18
BRANCH  10  20
ATOM     20  C   UNL     1       6.073   5.174  18.295  0.00  0.00    +0.000 C 
BRANCH  20  21
ATOM     21  O   UNL     1       7.098   4.199  18.491  0.00  0.00    +0.000 OA
ATOM     22  H   UNL     1       6.986   3.558  17.757  0.00  0.00    +0.000 HD
ENDBRANCH  20  21
ENDBRANCH  10  20
ENDBRANCH   3   8
BRANCH   1  23
ATOM     23  C   UNL     1      -0.196   9.821  21.172  0.00  0.00    +0.000 C 
BRANCH  23  27
ATOM     24  C   UNL     1       0.308  13.989  21.667  0.00  0.00    +0.000 A 
ATOM     25  C   UNL     1      -0.982  13.497  21.639  0.00  0.00    +0.000 A 
ATOM     26  C   UNL     1      -1.180  12.129  21.470  0.00  0.00    +0.000 A 
ATOM     27  C   UNL     1      -0.068  11.312  21.318  0.00  0.00    +0.000 A 
ATOM     28  N   UNL     1       1.179  11.822  21.349  0.00  0.00    +0.000 NA
ATOM     29  N   UNL     1       1.366  13.166  21.524  0.00  0.00    +0.000 NA
BRANCH  24  31
ATOM     30  C   UNL     1      -0.289  15.987  23.467  0.00  0.00    +0.000 C 
ATOM     31  S   UNL     1       0.584  15.733  21.900  0.00  0.00    +0.000 S 
ENDBRANCH  24  31
ENDBRANCH  23  27
ENDBRANCH   1  23
TORSDOF 9
ENDMDL
MODEL 6
REMARK VINA RESULT:      -7.1      5.319      8.504
REMARK  Name = 
REMARK  10 active torsions:
REMARK  status: ('A' for Active; 'I' for Inactive)
REMARK    1  A    between atoms: C_1  and  S_2
REMARK    2  A    between atoms: S_2  and  C_3
REMARK    3  A    between atoms: C_6  and  C_7
REMARK    4  A    between atoms: C_7  and  C_8
REMARK    5  A    between atoms: C_10  and  C_11
REMARK    6  A    between atoms: C_13  and  C_14
REMARK    7  A    between atoms: C_14  and  O_15
REMARK    8  A    between atoms: C_16  and  O_17
REMARK    9  A    between atoms: C_18  and  O_19
REMARK   10  A    between atoms: C_20  and  O_21
REMARK                            x       y       z     vdW  Elec       q    Type
REMARK                         _______ _______ _______ _____ _____    ______ ____
ROOT
ATOM      1  C   UNL     1       1.365   8.928  19.190  0.00  0.00    +0.000 A 
ATOM      2  C   UNL     1       2.042   7.834  18.603  0.00  0.00    +0.000 A 
ATOM      3  C   UNL     1       2.434   6.728  19.374  0.00  0.00    +0.000 A 
ATOM      4  C   UNL     1       2.035   6.675  20.721  0.00  0.00    +0.000 A 
ATOM      5  C   UNL     1       1.320   7.720  21.298  0.00  0.00    +0.000 A 
ATOM      6  C   UNL     1       1.003   8.849  20.544  0.00  0.00    +0.000 A 
ATOM      7 CL   UNL     1       0.232  10.151  21.375  0.00  0.00    +0.000 Cl
ENDROOT
BRANCH   3   8
ATOM      8  C   UNL     1       3.507   5.751  18.939  0.00  0.00    +0.000 C 
ATOM      9  O   UNL     1       3.825   6.280  17.644  0.00  0.00    +0.000 OA
ATOM     10  C   UNL     1       4.973   5.706  17.028  0.00  0.00    +0.000 C 
ATOM     11  C   UNL     1       4.739   4.209  16.795  0.00  0.00    +0.000 C 
ATOM     12  C   UNL     1       4.371   3.541  18.132  0.00  0.00    +0.000 C 
ATOM     13  C   UNL     1       3.198   4.246  18.841  0.00  0.00    +0.000 C 
BRANCH  11  14
ATOM     14  O   UNL     1       5.902   3.595  16.233  0.00  0.00    +0.000 OA
ATOM     15  H   UNL     1       5.864   2.635  16.391  0.00  0.00    +0.000 HD
ENDBRANCH  11  14
BRANCH  12  16
ATOM     16  O   UNL     1       4.050   2.150  17.969  0.00  0.00    +0.000 OA
ATOM     17  H   UNL     1       4.496   1.649  18.676  0.00  0.00    +0.000 HD
ENDBRANCH  12  16
BRANCH  13  18
ATOM     18  O   UNL     1       3.059   3.673  20.150  0.00  0.00    +0.000 OA
ATOM     19  H   UNL     1       3.860   3.928  20.651  0.00  0.00    +0.000 HD
ENDBRANCH  13  18
BRANCH  10  20
ATOM     20  C   UNL     1       5.173   6.494  15.730  0.00  0.00    +0.000 C 
BRANCH  20  21
ATOM     21  O   UNL     1       6.312   6.002  15.021  0.00  0.00    +0.000 OA
ATOM     22  H   UNL     1       6.446   5.089  15.355  0.00  0.00    +0.000 HD
ENDBRANCH  20  21
ENDBRANCH  10  20
ENDBRANCH   3   8
BRANCH   1  23
ATOM     23  C   UNL     1       1.151  10.177  18.360  0.00  0.00    +0.000 C 
BRANCH  23  27
ATOM     24  C   UNL     1      -2.895  11.153  17.622  0.00  0.00    +0.000 A 
ATOM     25  C   UNL     1      -2.441   9.925  17.184  0.00  0.00    +0.000 A 
ATOM     26  C   UNL     1      -1.111   9.577  17.406  0.00  0.00    +0.000 A 
ATOM     27  C   UNL     1      -0.286  10.492  18.046  0.00  0.00    +0.000 A 
ATOM     28  N   UNL     1      -0.759  11.684  18.461  0.00  0.00    +0.000 NA
ATOM     29  N   UNL     1      -2.069  12.015  18.247  0.00  0.00    +0.000 NA
BRANCH  24  31
ATOM     30  C   UNL     1      -4.996  12.294  18.992  0.00  0.00    +0.000 C 
ATOM     31  S   UNL     1      -4.597  11.610  17.362  0.00  0.00    +0.000 S 
ENDBRANCH  24  31
ENDBRANCH  23  27
ENDBRANCH   1  23
TORSDOF 9
ENDMDL
MODEL 7
REMARK VINA RESULT:      -7.0      5.430      8.581
REMARK  Name = 
REMARK  10 active torsions:
REMARK  status: ('A' for Active; 'I' for Inactive)
REMARK    1  A    between atoms: C_1  and  S_2
REMARK    2  A    between atoms: S_2  and  C_3
REMARK    3  A    between atoms: C_6  and  C_7
REMARK    4  A    between atoms: C_7  and  C_8
REMARK    5  A    between atoms: C_10  and  C_11
REMARK    6  A    between atoms: C_13  and  C_14
REMARK    7  A    between atoms: C_14  and  O_15
REMARK    8  A    between atoms: C_16  and  O_17
REMARK    9  A    between atoms: C_18  and  O_19
REMARK   10  A    between atoms: C_20  and  O_21
REMARK                            x       y       z     vdW  Elec       q    Type
REMARK                         _______ _______ _______ _____ _____    ______ ____
ROOT
ATOM      1  C   UNL     1       1.402   9.117  19.052  0.00  0.00    +0.000 A 
ATOM      2  C   UNL     1       1.954   8.276  18.059  0.00  0.00    +0.000 A 
ATOM      3  C   UNL     1       2.498   7.025  18.392  0.00  0.00    +0.000 A 
ATOM      4  C   UNL     1       2.378   6.573  19.718  0.00  0.00    +0.000 A 
ATOM      5  C   UNL     1       1.787   7.368  20.695  0.00  0.00    +0.000 A 
ATOM      6  C   UNL     1       1.319   8.641  20.370  0.00  0.00    +0.000 A 
ATOM      7 CL   UNL     1       0.723   9.608  21.670  0.00  0.00    +0.000 Cl
ENDROOT
BRANCH   3   8
ATOM      8  C   UNL     1       3.469   6.278  17.499  0.00  0.00    +0.000 C 
ATOM      9  O   UNL     1       3.095   4.924  17.793  0.00  0.00    +0.000 OA
ATOM     10  C   UNL     1       3.684   3.943  16.947  0.00  0.00    +0.000 C 
ATOM     11  C   UNL     1       5.208   3.973  17.107  0.00  0.00    +0.000 C 
ATOM     12  C   UNL     1       5.718   5.399  16.829  0.00  0.00    +0.000 C 
ATOM     13  C   UNL     1       4.987   6.463  17.672  0.00  0.00    +0.000 C 
BRANCH  11  14
ATOM     14  O   UNL     1       5.831   3.039  16.221  0.00  0.00    +0.000 OA
ATOM     15  H   UNL     1       5.854   2.164  16.646  0.00  0.00    +0.000 HD
ENDBRANCH  11  14
BRANCH  12  16
ATOM     16  O   UNL     1       7.132   5.519  17.050  0.00  0.00    +0.000 OA
ATOM     17  H   UNL     1       7.294   5.496  18.011  0.00  0.00    +0.000 HD
ENDBRANCH  12  16
BRANCH  13  18
ATOM     18  O   UNL     1       5.395   7.758  17.206  0.00  0.00    +0.000 OA
ATOM     19  H   UNL     1       5.702   8.251  17.993  0.00  0.00    +0.000 HD
ENDBRANCH  13  18
BRANCH  10  20
ATOM     20  C   UNL     1       3.060   2.611  17.374  0.00  0.00    +0.000 C 
BRANCH  20  21
ATOM     21  O   UNL     1       3.978   1.868  18.178  0.00  0.00    +0.000 OA
ATOM     22  H   UNL     1       4.787   1.783  17.629  0.00  0.00    +0.000 HD
ENDBRANCH  20  21
ENDBRANCH  10  20
ENDBRANCH   3   8
BRANCH   1  23
ATOM     23  C   UNL     1       1.019  10.532  18.671  0.00  0.00    +0.000 C 
BRANCH  23  27
ATOM     24  C   UNL     1      -3.137  11.213  18.296  0.00  0.00    +0.000 A 
ATOM     25  C   UNL     1      -2.567  10.256  17.480  0.00  0.00    +0.000 A 
ATOM     26  C   UNL     1      -1.199  10.014  17.576  0.00  0.00    +0.000 A 
ATOM     27  C   UNL     1      -0.455  10.761  18.479  0.00  0.00    +0.000 A 
ATOM     28  N   UNL     1      -1.041  11.689  19.262  0.00  0.00    +0.000 NA
ATOM     29  N   UNL     1      -2.387  11.915  19.169  0.00  0.00    +0.000 NA
BRANCH  24  31
ATOM     30  C   UNL     1      -5.080  12.678  19.587  0.00  0.00    +0.000 C 
ATOM     31  S   UNL     1      -4.888  11.525  18.202  0.00  0.00    +0.000 S 
ENDBRANCH  24  31
ENDBRANCH  23  27
ENDBRANCH   1  23
TORSDOF 9
ENDMDL
MODEL 8
REMARK VINA RESULT:      -7.0      5.515      8.535
REMARK  Name = 
REMARK  10 active torsions:
REMARK  status: ('A' for Active; 'I' for Inactive)
REMARK    1  A    between atoms: C_1  and  S_2
REMARK    2  A    between atoms: S_2  and  C_3
REMARK    3  A    between atoms: C_6  and  C_7
REMARK    4  A    between atoms: C_7  and  C_8
REMARK    5  A    between atoms: C_10  and  C_11
REMARK    6  A    between atoms: C_13  and  C_14
REMARK    7  A    between atoms: C_14  and  O_15
REMARK    8  A    between atoms: C_16  and  O_17
REMARK    9  A    between atoms: C_18  and  O_19
REMARK   10  A    between atoms: C_20  and  O_21
REMARK                            x       y       z     vdW  Elec       q    Type
REMARK                         _______ _______ _______ _____ _____    ______ ____
ROOT
ATOM      1  C   UNL     1       1.220   9.100  19.056  0.00  0.00    +0.000 A 
ATOM      2  C   UNL     1       1.598   7.957  18.314  0.00  0.00    +0.000 A 
ATOM      3  C   UNL     1       2.068   6.801  18.955  0.00  0.00    +0.000 A 
ATOM      4  C   UNL     1       2.045   6.758  20.361  0.00  0.00    +0.000 A 
ATOM      5  C   UNL     1       1.623   7.855  21.104  0.00  0.00    +0.000 A 
ATOM      6  C   UNL     1       1.231   9.027  20.458  0.00  0.00    +0.000 A 
ATOM      7 CL   UNL     1       0.850  10.380  21.460  0.00  0.00    +0.000 Cl
ENDROOT
BRANCH   3   8
ATOM      8  C   UNL     1       2.879   5.732  18.251  0.00  0.00    +0.000 C 
ATOM      9  O   UNL     1       2.100   4.570  18.570  0.00  0.00    +0.000 OA
ATOM     10  C   UNL     1       2.476   3.387  17.872  0.00  0.00    +0.000 C 
ATOM     11  C   UNL     1       3.916   3.008  18.239  0.00  0.00    +0.000 C 
ATOM     12  C   UNL     1       4.842   4.203  17.951  0.00  0.00    +0.000 C 
ATOM     13  C   UNL     1       4.356   5.504  18.621  0.00  0.00    +0.000 C 
BRANCH  11  14
ATOM     14  O   UNL     1       4.341   1.857  17.505  0.00  0.00    +0.000 OA
ATOM     15  H   UNL     1       3.906   1.855  16.634  0.00  0.00    +0.000 HD
ENDBRANCH  11  14
BRANCH  12  16
ATOM     16  O   UNL     1       6.196   3.947  18.358  0.00  0.00    +0.000 OA
ATOM     17  H   UNL     1       6.567   3.262  17.771  0.00  0.00    +0.000 HD
ENDBRANCH  12  16
BRANCH  13  18
ATOM     18  O   UNL     1       5.170   6.584  18.140  0.00  0.00    +0.000 OA
ATOM     19  H   UNL     1       5.102   7.299  18.804  0.00  0.00    +0.000 HD
ENDBRANCH  13  18
BRANCH  10  20
ATOM     20  C   UNL     1       1.451   2.328  18.287  0.00  0.00    +0.000 C 
BRANCH  20  21
ATOM     21  O   UNL     1       2.035   1.404  19.207  0.00  0.00    +0.000 OA
ATOM     22  H   UNL     1       2.946   1.254  18.875  0.00  0.00    +0.000 HD
ENDBRANCH  20  21
ENDBRANCH  10  20
ENDBRANCH   3   8
BRANCH   1  23
ATOM     23  C   UNL     1       0.919  10.382  18.309  0.00  0.00    +0.000 C 
BRANCH  23  27
ATOM     24  C   UNL     1      -3.194  11.313  18.004  0.00  0.00    +0.000 A 
ATOM     25  C   UNL     1      -2.729  10.220  17.300  0.00  0.00    +0.000 A 
ATOM     26  C   UNL     1      -1.378   9.892  17.375  0.00  0.00    +0.000 A 
ATOM     27  C   UNL     1      -0.543  10.692  18.143  0.00  0.00    +0.000 A 
ATOM     28  N   UNL     1      -1.027  11.753  18.819  0.00  0.00    +0.000 NA
ATOM     29  N   UNL     1      -2.358  12.064  18.748  0.00  0.00    +0.000 NA
BRANCH  24  31
ATOM     30  C   UNL     1      -5.124  12.514  19.560  0.00  0.00    +0.000 C 
ATOM     31  S   UNL     1      -4.922  11.738  17.935  0.00  0.00    +0.000 S 
ENDBRANCH  24  31
ENDBRANCH  23  27
ENDBRANCH   1  23
TORSDOF 9
ENDMDL
MODEL 9
REMARK VINA RESULT:      -6.9      5.025      8.179
REMARK  Name = 
REMARK  10 active torsions:
REMARK  status: ('A' for Active; 'I' for Inactive)
REMARK    1  A    between atoms: C_1  and  S_2
REMARK    2  A    between atoms: S_2  and  C_3
REMARK    3  A    between atoms: C_6  and  C_7
REMARK    4  A    between atoms: C_7  and  C_8
REMARK    5  A    between atoms: C_10  and  C_11
REMARK    6  A    between atoms: C_13  and  C_14
REMARK    7  A    between atoms: C_14  and  O_15
REMARK    8  A    between atoms: C_16  and  O_17
REMARK    9  A    between atoms: C_18  and  O_19
REMARK   10  A    between atoms: C_20  and  O_21
REMARK                            x       y       z     vdW  Elec       q    Type
REMARK                         _______ _______ _______ _____ _____    ______ ____
ROOT
ATOM      1  C   UNL     1       1.495   8.716  19.460  0.00  0.00    +0.000 A 
ATOM      2  C   UNL     1       2.174   7.678  18.782  0.00  0.00    +0.000 A 
ATOM      3  C   UNL     1       2.454   6.459  19.419  0.00  0.00    +0.000 A 
ATOM      4  C   UNL     1       1.941   6.245  20.711  0.00  0.00    +0.000 A 
ATOM      5  C   UNL     1       1.223   7.238  21.370  0.00  0.00    +0.000 A 
ATOM      6  C   UNL     1       1.017   8.474  20.758  0.00  0.00    +0.000 A 
ATOM      7 CL   UNL     1       0.232   9.690  21.699  0.00  0.00    +0.000 Cl
ENDROOT
BRANCH   3   8
ATOM      8  C   UNL     1       3.520   5.495  18.939  0.00  0.00    +0.000 C 
ATOM      9  O   UNL     1       3.838   6.079  17.667  0.00  0.00    +0.000 OA
ATOM     10  C   UNL     1       4.981   5.526  17.023  0.00  0.00    +0.000 C 
ATOM     11  C   UNL     1       4.737   4.042  16.725  0.00  0.00    +0.000 C 
ATOM     12  C   UNL     1       4.367   3.318  18.031  0.00  0.00    +0.000 C 
ATOM     13  C   UNL     1       3.201   3.998  18.775  0.00  0.00    +0.000 C 
BRANCH  11  14
ATOM     14  O   UNL     1       5.894   3.446  16.133  0.00  0.00    +0.000 OA
ATOM     15  H   UNL     1       6.595   4.117  16.057  0.00  0.00    +0.000 HD
ENDBRANCH  11  14
BRANCH  12  16
ATOM     16  O   UNL     1       4.037   1.938  17.808  0.00  0.00    +0.000 OA
ATOM     17  H   UNL     1       4.407   1.670  16.947  0.00  0.00    +0.000 HD
ENDBRANCH  12  16
BRANCH  13  18
ATOM     18  O   UNL     1       3.062   3.368  20.057  0.00  0.00    +0.000 OA
ATOM     19  H   UNL     1       3.583   2.541  20.017  0.00  0.00    +0.000 HD
ENDBRANCH  13  18
BRANCH  10  20
ATOM     20  C   UNL     1       5.182   6.369  15.760  0.00  0.00    +0.000 C 
BRANCH  20  21
ATOM     21  O   UNL     1       6.299   5.884  15.012  0.00  0.00    +0.000 OA
ATOM     22  H   UNL     1       6.715   5.206  15.586  0.00  0.00    +0.000 HD
ENDBRANCH  20  21
ENDBRANCH  10  20
ENDBRANCH   3   8
BRANCH   1  23
ATOM     23  C   UNL     1       1.403  10.075  18.798  0.00  0.00    +0.000 C 
BRANCH  23  27
ATOM     24  C   UNL     1      -2.411  11.030  17.244  0.00  0.00    +0.000 A 
ATOM     25  C   UNL     1      -1.801  11.958  18.065  0.00  0.00    +0.000 A 
ATOM     26  C   UNL     1      -0.548  11.669  18.598  0.00  0.00    +0.000 A 
ATOM     27  C   UNL     1       0.035  10.445  18.296  0.00  0.00    +0.000 A 
ATOM     28  N   UNL     1      -0.586   9.560  17.492  0.00  0.00    +0.000 NA
ATOM     29  N   UNL     1      -1.814   9.854  16.965  0.00  0.00    +0.000 NA
BRANCH  24  31
ATOM     30  C   UNL     1      -3.884  10.462  14.986  0.00  0.00    +0.000 C 
ATOM     31  S   UNL     1      -4.007  11.387  16.539  0.00  0.00    +0.000 S 
ENDBRANCH  24  31
ENDBRANCH  23  27
ENDBRANCH   1  23
TORSDOF 9
ENDMDL
