MODEL 1
REMARK VINA RESULT:      -6.7      0.000      0.000
REMARK  Name = 
REMARK  12 active torsions:
REMARK  status: ('A' for Active; 'I' for Inactive)
REMARK    1  A    between atoms: C_1  and  O_2
REMARK    2  A    between atoms: O_2  and  C_3
REMARK    3  A    between atoms: C_3  and  C_5
REMARK    4  A    between atoms: C_5  and  N_6
REMARK    5  A    between atoms: C_5  and  C_20
REMARK    6  A    between atoms: N_9  and  C_10
REMARK    7  A    between atoms: C_10  and  C_11
REMARK    8  A    between atoms: C_10  and  C_12
REMARK    9  A    between atoms: C_12  and  C_13
REMARK   10  A    between atoms: C_13  and  C_14
REMARK   11  A    between atoms: C_20  and  C_21
REMARK   12  A    between atoms: C_20  and  C_22
REMARK                            x       y       z     vdW  Elec       q    Type
REMARK                         _______ _______ _______ _____ _____    ______ ____
ROOT
ATOM      1  N   UNL     1       5.202   5.705  18.431  0.00  0.00    +0.000 N 
ATOM      2  C   UNL     1       3.860   5.956  18.505  0.00  0.00    +0.000 C 
ATOM      3  O   UNL     1       3.248   6.627  17.683  0.00  0.00    +0.000 OA
ATOM      4  N   UNL     1       3.296   5.444  19.642  0.00  0.00    +0.000 N 
ATOM      5  H   UNL     1       5.562   4.908  18.940  0.00  0.00    +0.000 HD
ATOM      6  H   UNL     1       3.804   4.735  20.147  0.00  0.00    +0.000 HD
ENDROOT
BRANCH   4   7
ATOM      7  C   UNL     1       1.875   5.617  19.921  0.00  0.00    +0.000 C 
ATOM      8  C   UNL     1       1.267   4.297  20.396  0.00  0.00    +0.000 C 
BRANCH   7   9
ATOM      9  C   UNL     1       1.644   6.728  20.956  0.00  0.00    +0.000 C 
BRANCH   9  10
ATOM     10  C   UNL     1       1.641   8.120  20.313  0.00  0.00    +0.000 C 
BRANCH  10  11
ATOM     11  C   UNL     1       0.779   9.091  21.082  0.00  0.00    +0.000 A 
ATOM     12  C   UNL     1       0.565   8.915  22.457  0.00  0.00    +0.000 A 
ATOM     13  C   UNL     1      -0.245   9.805  23.166  0.00  0.00    +0.000 A 
ATOM     14  C   UNL     1      -0.850  10.874  22.507  0.00  0.00    +0.000 A 
ATOM     15  C   UNL     1      -0.647  11.056  21.142  0.00  0.00    +0.000 A 
ATOM     16  C   UNL     1       0.163  10.168  20.431  0.00  0.00    +0.000 A 
ENDBRANCH  10  11
ENDBRANCH   9  10
ENDBRANCH   7   9
ENDBRANCH   4   7
BRANCH   1  17
ATOM     17  C   UNL     1       5.993   6.153  17.281  0.00  0.00    +0.000 C 
BRANCH  17  18
ATOM     18  C   UNL     1       7.451   6.477  17.674  0.00  0.00    +0.000 C 
ATOM     19  C   UNL     1       7.715   7.985  17.601  0.00  0.00    +0.000 C 
ATOM     20  C   UNL     1       7.841   5.953  19.060  0.00  0.00    +0.000 C 
ENDBRANCH  17  18
BRANCH  17  21
ATOM     21  C   UNL     1       5.926   5.085  16.183  0.00  0.00    +0.000 C 
ATOM     22  O   UNL     1       5.703   3.898  16.392  0.00  0.00    +0.000 OA
BRANCH  21  24
ATOM     23  C   UNL     1       6.972   4.800  14.096  0.00  0.00    +0.000 C 
ATOM     24  O   UNL     1       6.200   5.631  14.965  0.00  0.00    +0.000 OA
ENDBRANCH  21  24
ENDBRANCH  17  21
ENDBRANCH   1  17
TORSDOF 8
ENDMDL
MODEL 2
REMARK VINA RESULT:      -6.7      2.670      8.314
REMARK  Name = 
REMARK  12 active torsions:
REMARK  status: ('A' for Active; 'I' for Inactive)
REMARK    1  A    between atoms: C_1  and  O_2
REMARK    2  A    between atoms: O_2  and  C_3
REMARK    3  A    between atoms: C_3  and  C_5
REMARK    4  A    between atoms: C_5  and  N_6
REMARK    5  A    between atoms: C_5  and  C_20
REMARK    6  A    between atoms: N_9  and  C_10
REMARK    7  A    between atoms: C_10  and  C_11
REMARK    8  A    between atoms: C_10  and  C_12
REMARK    9  A    between atoms: C_12  and  C_13
REMARK   10  A    between atoms: C_13  and  C_14
REMARK   11  A    between atoms: C_20  and  C_21
REMARK   12  A    between atoms: C_20  and  C_22
REMARK                            x       y       z     vdW  Elec       q    Type
REMARK                         _______ _______ _______ _____ _____    ______ ____
ROOT
ATOM      1  N   UNL     1       3.983   3.752  19.745  0.00  0.00    +0.000 N 
ATOM      2  C   UNL     1       4.673   4.671  19.003  0.00  0.00    +0.000 C 
ATOM      3  O   UNL     1       4.147   5.418  18.187  0.00  0.00    +0.000 OA
ATOM      4  N   UNL     1       6.023   4.604  19.214  0.00  0.00    +0.000 N 
ATOM      5  H   UNL     1       4.414   3.414  20.596  0.00  0.00    +0.000 HD
ATOM      6  H   UNL     1       6.352   4.130  20.040  0.00  0.00    +0.000 HD
ENDROOT
BRANCH   4   7
ATOM      7  C   UNL     1       6.940   5.490  18.507  0.00  0.00    +0.000 C 
ATOM      8  C   UNL     1       8.215   5.693  19.326  0.00  0.00    +0.000 C 
BRANCH   7   9
ATOM      9  C   UNL     1       7.270   4.944  17.109  0.00  0.00    +0.000 C 
BRANCH   9  10
ATOM     10  C   UNL     1       6.658   5.805  15.997  0.00  0.00    +0.000 C 
BRANCH  10  11
ATOM     11  C   UNL     1       6.598   5.064  14.684  0.00  0.00    +0.000 A 
ATOM     12  C   UNL     1       5.548   4.173  14.419  0.00  0.00    +0.000 A 
ATOM     13  C   UNL     1       5.500   3.476  13.210  0.00  0.00    +0.000 A 
ATOM     14  C   UNL     1       6.502   3.660  12.258  0.00  0.00    +0.000 A 
ATOM     15  C   UNL     1       7.550   4.542  12.512  0.00  0.00    +0.000 A 
ATOM     16  C   UNL     1       7.599   5.240  13.720  0.00  0.00    +0.000 A 
ENDBRANCH  10  11
ENDBRANCH   9  10
ENDBRANCH   7   9
ENDBRANCH   4   7
BRANCH   1  17
ATOM     17  C   UNL     1       2.522   3.670  19.678  0.00  0.00    +0.000 C 
BRANCH  17  18
ATOM     18  C   UNL     1       2.038   2.236  19.370  0.00  0.00    +0.000 C 
ATOM     19  C   UNL     1       0.617   2.250  18.794  0.00  0.00    +0.000 C 
ATOM     20  C   UNL     1       2.968   1.467  18.426  0.00  0.00    +0.000 C 
ENDBRANCH  17  18
BRANCH  17  21
ATOM     21  C   UNL     1       1.933   4.197  20.993  0.00  0.00    +0.000 C 
ATOM     22  O   UNL     1       2.163   3.710  22.094  0.00  0.00    +0.000 OA
BRANCH  21  24
ATOM     23  C   UNL     1       1.628   6.529  21.036  0.00  0.00    +0.000 C 
ATOM     24  O   UNL     1       1.085   5.237  20.755  0.00  0.00    +0.000 OA
ENDBRANCH  21  24
ENDBRANCH  17  21
ENDBRANCH   1  17
TORSDOF 8
ENDMDL
MODEL 3
REMARK VINA RESULT:      -6.6      4.439      8.446
REMARK  Name = 
REMARK  12 active torsions:
REMARK  status: ('A' for Active; 'I' for Inactive)
REMARK    1  A    between atoms: C_1  and  O_2
REMARK    2  A    between atoms: O_2  and  C_3
REMARK    3  A    between atoms: C_3  and  C_5
REMARK    4  A    between atoms: C_5  and  N_6
REMARK    5  A    between atoms: C_5  and  C_20
REMARK    6  A    between atoms: N_9  and  C_10
REMARK    7  A    between atoms: C_10  and  C_11
REMARK    8  A    between atoms: C_10  and  C_12
REMARK    9  A    between atoms: C_12  and  C_13
REMARK   10  A    between atoms: C_13  and  C_14
REMARK   11  A    between atoms: C_20  and  C_21
REMARK   12  A    between atoms: C_20  and  C_22
REMARK                            x       y       z     vdW  Elec       q    Type
REMARK                         _______ _______ _______ _____ _____    ______ ____
ROOT
ATOM      1  N   UNL     1       4.785   3.431  19.525  0.00  0.00    +0.000 N 
ATOM      2  C   UNL     1       5.026   4.671  18.999  0.00  0.00    +0.000 C 
ATOM      3  O   UNL     1       4.150   5.502  18.789  0.00  0.00    +0.000 OA
ATOM      4  N   UNL     1       6.339   4.846  18.657  0.00  0.00    +0.000 N 
ATOM      5  H   UNL     1       5.559   2.944  19.956  0.00  0.00    +0.000 HD
ATOM      6  H   UNL     1       7.021   4.218  19.053  0.00  0.00    +0.000 HD
ENDROOT
BRANCH   4   7
ATOM      7  C   UNL     1       6.802   6.095  18.065  0.00  0.00    +0.000 C 
ATOM      8  C   UNL     1       8.047   6.596  18.796  0.00  0.00    +0.000 C 
BRANCH   7   9
ATOM      9  C   UNL     1       7.082   5.926  16.563  0.00  0.00    +0.000 C 
BRANCH   9  10
ATOM     10  C   UNL     1       6.611   4.563  16.041  0.00  0.00    +0.000 C 
BRANCH  10  11
ATOM     11  C   UNL     1       6.735   4.465  14.541  0.00  0.00    +0.000 A 
ATOM     12  C   UNL     1       5.948   3.554  13.822  0.00  0.00    +0.000 A 
ATOM     13  C   UNL     1       6.072   3.453  12.435  0.00  0.00    +0.000 A 
ATOM     14  C   UNL     1       6.986   4.257  11.756  0.00  0.00    +0.000 A 
ATOM     15  C   UNL     1       7.774   5.164  12.461  0.00  0.00    +0.000 A 
ATOM     16  C   UNL     1       7.650   5.267  13.848  0.00  0.00    +0.000 A 
ENDBRANCH  10  11
ENDBRANCH   9  10
ENDBRANCH   7   9
ENDBRANCH   4   7
BRANCH   1  17
ATOM     17  C   UNL     1       3.443   3.047  19.972  0.00  0.00    +0.000 C 
BRANCH  17  18
ATOM     18  C   UNL     1       2.728   2.145  18.943  0.00  0.00    +0.000 C 
ATOM     19  C   UNL     1       1.795   2.968  18.048  0.00  0.00    +0.000 C 
ATOM     20  C   UNL     1       3.690   1.330  18.071  0.00  0.00    +0.000 C 
ENDBRANCH  17  18
BRANCH  17  21
ATOM     21  C   UNL     1       3.551   2.369  21.343  0.00  0.00    +0.000 C 
ATOM     22  O   UNL     1       4.392   1.524  21.628  0.00  0.00    +0.000 OA
BRANCH  21  24
ATOM     23  C   UNL     1       1.256   2.832  21.572  0.00  0.00    +0.000 C 
ATOM     24  O   UNL     1       2.554   2.796  22.169  0.00  0.00    +0.000 OA
ENDBRANCH  21  24
ENDBRANCH  17  21
ENDBRANCH   1  17
TORSDOF 8
ENDMDL
MODEL 4
REMARK VINA RESULT:      -6.5      2.201      5.436
REMARK  Name = 
REMARK  12 active torsions:
REMARK  status: ('A' for Active; 'I' for Inactive)
REMARK    1  A    between atoms: C_1  and  O_2
REMARK    2  A    between atoms: O_2  and  C_3
REMARK    3  A    between atoms: C_3  and  C_5
REMARK    4  A    between atoms: C_5  and  N_6
REMARK    5  A    between atoms: C_5  and  C_20
REMARK    6  A    between atoms: N_9  and  C_10
REMARK    7  A    between atoms: C_10  and  C_11
REMARK    8  A    between atoms: C_10  and  C_12
REMARK    9  A    between atoms: C_12  and  C_13
REMARK   10  A    between atoms: C_13  and  C_14
REMARK   11  A    between atoms: C_20  and  C_21
REMARK   12  A    between atoms: C_20  and  C_22
REMARK                            x       y       z     vdW  Elec       q    Type
REMARK                         _______ _______ _______ _____ _____    ______ ____
ROOT
ATOM      1  N   UNL     1       4.559   6.287  17.744  0.00  0.00    +0.000 N 
ATOM      2  C   UNL     1       4.067   6.051  18.998  0.00  0.00    +0.000 C 
ATOM      3  O   UNL     1       4.661   5.401  19.850  0.00  0.00    +0.000 OA
ATOM      4  N   UNL     1       2.804   6.550  19.166  0.00  0.00    +0.000 N 
ATOM      5  H   UNL     1       4.180   7.071  17.229  0.00  0.00    +0.000 HD
ATOM      6  H   UNL     1       2.477   7.245  18.513  0.00  0.00    +0.000 HD
ENDROOT
BRANCH   4   7
ATOM      7  C   UNL     1       2.093   6.390  20.428  0.00  0.00    +0.000 C 
ATOM      8  C   UNL     1       1.511   7.730  20.880  0.00  0.00    +0.000 C 
BRANCH   7   9
ATOM      9  C   UNL     1       0.989   5.327  20.312  0.00  0.00    +0.000 C 
BRANCH   9  10
ATOM     10  C   UNL     1       1.419   3.984  20.915  0.00  0.00    +0.000 C 
BRANCH  10  11
ATOM     11  C   UNL     1       2.180   3.142  19.921  0.00  0.00    +0.000 A 
ATOM     12  C   UNL     1       1.712   2.997  18.608  0.00  0.00    +0.000 A 
ATOM     13  C   UNL     1       2.408   2.205  17.692  0.00  0.00    +0.000 A 
ATOM     14  C   UNL     1       3.575   1.550  18.082  0.00  0.00    +0.000 A 
ATOM     15  C   UNL     1       4.048   1.686  19.385  0.00  0.00    +0.000 A 
ATOM     16  C   UNL     1       3.353   2.478  20.302  0.00  0.00    +0.000 A 
ENDBRANCH  10  11
ENDBRANCH   9  10
ENDBRANCH   7   9
ENDBRANCH   4   7
BRANCH   1  17
ATOM     17  C   UNL     1       5.904   5.849  17.365  0.00  0.00    +0.000 C 
BRANCH  17  18
ATOM     18  C   UNL     1       5.935   5.237  15.948  0.00  0.00    +0.000 C 
ATOM     19  C   UNL     1       7.346   4.759  15.588  0.00  0.00    +0.000 C 
ATOM     20  C   UNL     1       4.938   4.089  15.756  0.00  0.00    +0.000 C 
ENDBRANCH  17  18
BRANCH  17  21
ATOM     21  C   UNL     1       6.869   7.035  17.492  0.00  0.00    +0.000 C 
ATOM     22  O   UNL     1       6.670   8.138  16.997  0.00  0.00    +0.000 OA
BRANCH  21  24
ATOM     23  C   UNL     1       7.767   5.729  19.230  0.00  0.00    +0.000 C 
ATOM     24  O   UNL     1       7.988   6.671  18.179  0.00  0.00    +0.000 OA
ENDBRANCH  21  24
ENDBRANCH  17  21
ENDBRANCH   1  17
TORSDOF 8
ENDMDL
MODEL 5
REMARK VINA RESULT:      -6.5      2.542      3.726
REMARK  Name = 
REMARK  12 active torsions:
REMARK  status: ('A' for Active; 'I' for Inactive)
REMARK    1  A    between atoms: C_1  and  O_2
REMARK    2  A    between atoms: O_2  and  C_3
REMARK    3  A    between atoms: C_3  and  C_5
REMARK    4  A    between atoms: C_5  and  N_6
REMARK    5  A    between atoms: C_5  and  C_20
REMARK    6  A    between atoms: N_9  and  C_10
REMARK    7  A    between atoms: C_10  and  C_11
REMARK    8  A    between atoms: C_10  and  C_12
REMARK    9  A    between atoms: C_12  and  C_13
REMARK   10  A    between atoms: C_13  and  C_14
REMARK   11  A    between atoms: C_20  and  C_21
REMARK   12  A    between atoms: C_20  and  C_22
REMARK                            x       y       z     vdW  Elec       q    Type
REMARK                         _______ _______ _______ _____ _____    ______ ____
ROOT
ATOM      1  N   UNL     1       5.765   4.774  18.233  0.00  0.00    +0.000 N 
ATOM      2  C   UNL     1       4.898   3.847  17.724  0.00  0.00    +0.000 C 
ATOM      3  O   UNL     1       4.533   3.827  16.555  0.00  0.00    +0.000 OA
ATOM      4  N   UNL     1       4.422   2.997  18.685  0.00  0.00    +0.000 N 
ATOM      5  H   UNL     1       6.255   4.544  19.087  0.00  0.00    +0.000 HD
ATOM      6  H   UNL     1       4.923   2.937  19.557  0.00  0.00    +0.000 HD
ENDROOT
BRANCH   4   7
ATOM      7  C   UNL     1       3.471   1.942  18.352  0.00  0.00    +0.000 C 
ATOM      8  C   UNL     1       4.021   0.582  18.781  0.00  0.00    +0.000 C 
BRANCH   7   9
ATOM      9  C   UNL     1       2.102   2.206  18.998  0.00  0.00    +0.000 C 
BRANCH   9  10
ATOM     10  C   UNL     1       1.332   3.319  18.276  0.00  0.00    +0.000 C 
BRANCH  10  11
ATOM     11  C   UNL     1       1.656   4.681  18.839  0.00  0.00    +0.000 A 
ATOM     12  C   UNL     1       1.539   4.927  20.214  0.00  0.00    +0.000 A 
ATOM     13  C   UNL     1       1.825   6.192  20.733  0.00  0.00    +0.000 A 
ATOM     14  C   UNL     1       2.227   7.220  19.882  0.00  0.00    +0.000 A 
ATOM     15  C   UNL     1       2.345   6.986  18.514  0.00  0.00    +0.000 A 
ATOM     16  C   UNL     1       2.060   5.723  17.993  0.00  0.00    +0.000 A 
ENDBRANCH  10  11
ENDBRANCH   9  10
ENDBRANCH   7   9
ENDBRANCH   4   7
BRANCH   1  17
ATOM     17  C   UNL     1       6.403   5.769  17.365  0.00  0.00    +0.000 C 
BRANCH  17  18
ATOM     18  C   UNL     1       7.101   6.881  18.178  0.00  0.00    +0.000 C 
ATOM     19  C   UNL     1       8.139   6.288  19.137  0.00  0.00    +0.000 C 
ATOM     20  C   UNL     1       7.762   7.952  17.304  0.00  0.00    +0.000 C 
ENDBRANCH  17  18
BRANCH  17  21
ATOM     21  C   UNL     1       7.381   5.054  16.424  0.00  0.00    +0.000 C 
ATOM     22  O   UNL     1       8.142   4.159  16.774  0.00  0.00    +0.000 OA
BRANCH  21  24
ATOM     23  C   UNL     1       6.842   4.700  14.162  0.00  0.00    +0.000 C 
ATOM     24  O   UNL     1       7.320   5.590  15.173  0.00  0.00    +0.000 OA
ENDBRANCH  21  24
ENDBRANCH  17  21
ENDBRANCH   1  17
TORSDOF 8
ENDMDL
MODEL 6
REMARK VINA RESULT:      -6.4      2.698      7.217
REMARK  Name = 
REMARK  12 active torsions:
REMARK  status: ('A' for Active; 'I' for Inactive)
REMARK    1  A    between atoms: C_1  and  O_2
REMARK    2  A    between atoms: O_2  and  C_3
REMARK    3  A    between atoms: C_3  and  C_5
REMARK    4  A    between atoms: C_5  and  N_6
REMARK    5  A    between atoms: C_5  and  C_20
REMARK    6  A    between atoms: N_9  and  C_10
REMARK    7  A    between atoms: C_10  and  C_11
REMARK    8  A    between atoms: C_10  and  C_12
REMARK    9  A    between atoms: C_12  and  C_13
REMARK   10  A    between atoms: C_13  and  C_14
REMARK   11  A    between atoms: C_20  and  C_21
REMARK   12  A    between atoms: C_20  and  C_22
REMARK                            x       y       z     vdW  Elec       q    Type
REMARK                         _______ _______ _______ _____ _____    ______ ____
ROOT
ATOM      1  N   UNL     1       0.983   6.994  20.746  0.00  0.00    +0.000 N 
ATOM      2  C   UNL     1       1.795   5.911  20.546  0.00  0.00    +0.000 C 
ATOM      3  O   UNL     1       2.983   5.997  20.261  0.00  0.00    +0.000 OA
ATOM      4  N   UNL     1       1.112   4.727  20.620  0.00  0.00    +0.000 N 
ATOM      5  H   UNL     1       0.133   6.855  21.276  0.00  0.00    +0.000 HD
ATOM      6  H   UNL     1       0.208   4.727  21.065  0.00  0.00    +0.000 HD
ENDROOT
BRANCH   4   7
ATOM      7  C   UNL     1       1.792   3.453  20.421  0.00  0.00    +0.000 C 
ATOM      8  C   UNL     1       1.578   2.546  21.633  0.00  0.00    +0.000 C 
BRANCH   7   9
ATOM      9  C   UNL     1       1.315   2.765  19.133  0.00  0.00    +0.000 C 
BRANCH   9  10
ATOM     10  C   UNL     1       2.489   2.303  18.260  0.00  0.00    +0.000 C 
BRANCH  10  11
ATOM     11  C   UNL     1       3.517   3.392  18.080  0.00  0.00    +0.000 A 
ATOM     12  C   UNL     1       4.719   3.359  18.800  0.00  0.00    +0.000 A 
ATOM     13  C   UNL     1       5.665   4.375  18.645  0.00  0.00    +0.000 A 
ATOM     14  C   UNL     1       5.415   5.433  17.772  0.00  0.00    +0.000 A 
ATOM     15  C   UNL     1       4.223   5.476  17.053  0.00  0.00    +0.000 A 
ATOM     16  C   UNL     1       3.276   4.461  17.207  0.00  0.00    +0.000 A 
ENDBRANCH  10  11
ENDBRANCH   9  10
ENDBRANCH   7   9
ENDBRANCH   4   7
BRANCH   1  17
ATOM     17  C   UNL     1       1.521   8.357  20.725  0.00  0.00    +0.000 C 
BRANCH  17  18
ATOM     18  C   UNL     1       1.066   9.138  19.474  0.00  0.00    +0.000 C 
ATOM     19  C   UNL     1       1.116  10.650  19.725  0.00  0.00    +0.000 C 
ATOM     20  C   UNL     1       1.872   8.800  18.215  0.00  0.00    +0.000 C 
ENDBRANCH  17  18
BRANCH  17  21
ATOM     21  C   UNL     1       1.115   9.072  22.019  0.00  0.00    +0.000 C 
ATOM     22  O   UNL     1       1.912   9.528  22.832  0.00  0.00    +0.000 OA
BRANCH  21  24
ATOM     23  C   UNL     1      -0.746  10.067  23.058  0.00  0.00    +0.000 C 
ATOM     24  O   UNL     1      -0.241   9.078  22.159  0.00  0.00    +0.000 OA
ENDBRANCH  21  24
ENDBRANCH  17  21
ENDBRANCH   1  17
TORSDOF 8
ENDMDL
MODEL 7
REMARK VINA RESULT:      -6.4      3.721      8.451
REMARK  Name = 
REMARK  12 active torsions:
REMARK  status: ('A' for Active; 'I' for Inactive)
REMARK    1  A    between atoms: C_1  and  O_2
REMARK    2  A    between atoms: O_2  and  C_3
REMARK    3  A    between atoms: C_3  and  C_5
REMARK    4  A    between atoms: C_5  and  N_6
REMARK    5  A    between atoms: C_5  and  C_20
REMARK    6  A    between atoms: N_9  and  C_10
REMARK    7  A    between atoms: C_10  and  C_11
REMARK    8  A    between atoms: C_10  and  C_12
REMARK    9  A    between atoms: C_12  and  C_13
REMARK   10  A    between atoms: C_13  and  C_14
REMARK   11  A    between atoms: C_20  and  C_21
REMARK   12  A    between atoms: C_20  and  C_22
REMARK                            x       y       z     vdW  Elec       q    Type
REMARK                         _______ _______ _______ _____ _____    ______ ____
ROOT
ATOM      1  N   UNL     1       4.153   4.214  19.087  0.00  0.00    +0.000 N 
ATOM      2  C   UNL     1       4.668   5.348  18.520  0.00  0.00    +0.000 C 
ATOM      3  O   UNL     1       3.981   6.225  18.012  0.00  0.00    +0.000 OA
ATOM      4  N   UNL     1       6.036   5.351  18.511  0.00  0.00    +0.000 N 
ATOM      5  H   UNL     1       4.731   3.713  19.748  0.00  0.00    +0.000 HD
ATOM      6  H   UNL     1       6.517   4.715  19.128  0.00  0.00    +0.000 HD
ENDROOT
BRANCH   4   7
ATOM      7  C   UNL     1       6.782   6.464  17.936  0.00  0.00    +0.000 C 
ATOM      8  C   UNL     1       8.048   6.728  18.753  0.00  0.00    +0.000 C 
BRANCH   7   9
ATOM      9  C   UNL     1       7.129   6.197  16.464  0.00  0.00    +0.000 C 
BRANCH   9  10
ATOM     10  C   UNL     1       6.965   4.717  16.094  0.00  0.00    +0.000 C 
BRANCH  10  11
ATOM     11  C   UNL     1       6.902   4.517  14.600  0.00  0.00    +0.000 A 
ATOM     12  C   UNL     1       7.743   5.248  13.750  0.00  0.00    +0.000 A 
ATOM     13  C   UNL     1       7.676   5.074  12.366  0.00  0.00    +0.000 A 
ATOM     14  C   UNL     1       6.766   4.170  11.820  0.00  0.00    +0.000 A 
ATOM     15  C   UNL     1       5.924   3.439  12.656  0.00  0.00    +0.000 A 
ATOM     16  C   UNL     1       5.991   3.612  14.040  0.00  0.00    +0.000 A 
ENDBRANCH  10  11
ENDBRANCH   9  10
ENDBRANCH   7   9
ENDBRANCH   4   7
BRANCH   1  17
ATOM     17  C   UNL     1       2.706   4.021  19.211  0.00  0.00    +0.000 C 
BRANCH  17  18
ATOM     18  C   UNL     1       2.275   2.597  18.798  0.00  0.00    +0.000 C 
ATOM     19  C   UNL     1       0.762   2.529  18.562  0.00  0.00    +0.000 C 
ATOM     20  C   UNL     1       3.013   2.070  17.562  0.00  0.00    +0.000 C 
ENDBRANCH  17  18
BRANCH  17  21
ATOM     21  C   UNL     1       2.281   4.348  20.648  0.00  0.00    +0.000 C 
ATOM     22  O   UNL     1       1.779   5.412  20.992  0.00  0.00    +0.000 OA
BRANCH  21  24
ATOM     23  C   UNL     1       1.466   2.693  22.107  0.00  0.00    +0.000 C 
ATOM     24  O   UNL     1       2.590   3.317  21.485  0.00  0.00    +0.000 OA
ENDBRANCH  21  24
ENDBRANCH  17  21
ENDBRANCH   1  17
TORSDOF 8
ENDMDL
MODEL 8
REMARK VINA RESULT:      -6.4      2.546      3.854
REMARK  Name = 
REMARK  12 active torsions:
REMARK  status: ('A' for Active; 'I' for Inactive)
REMARK    1  A    between atoms: C_1  and  O_2
REMARK    2  A    between atoms: O_2  and  C_3
REMARK    3  A    between atoms: C_3  and  C_5
REMARK    4  A    between atoms: C_5  and  N_6
REMARK    5  A    between atoms: C_5  and  C_20
REMARK    6  A    between atoms: N_9  and  C_10
REMARK    7  A    between atoms: C_10  and  C_11
REMARK    8  A    between atoms: C_10  and  C_12
REMARK    9  A    between atoms: C_12  and  C_13
REMARK   10  A    between atoms: C_13  and  C_14
REMARK   11  A    between atoms: C_20  and  C_21
REMARK   12  A    between atoms: C_20  and  C_22
REMARK                            x       y       z     vdW  Elec       q    Type
REMARK                         _______ _______ _______ _____ _____    ______ ____
ROOT
ATOM      1  N   UNL     1       5.710   4.818  18.251  0.00  0.00    +0.000 N 
ATOM      2  C   UNL     1       4.820   3.898  17.769  0.00  0.00    +0.000 C 
ATOM      3  O   UNL     1       4.362   3.926  16.633  0.00  0.00    +0.000 OA
ATOM      4  N   UNL     1       4.436   2.994  18.723  0.00  0.00    +0.000 N 
ATOM      5  H   UNL     1       6.270   4.557  19.052  0.00  0.00    +0.000 HD
ATOM      6  H   UNL     1       5.007   2.904  19.548  0.00  0.00    +0.000 HD
ENDROOT
BRANCH   4   7
ATOM      7  C   UNL     1       3.479   1.938  18.416  0.00  0.00    +0.000 C 
ATOM      8  C   UNL     1       4.075   0.572  18.754  0.00  0.00    +0.000 C 
BRANCH   7   9
ATOM      9  C   UNL     1       2.154   2.156  19.164  0.00  0.00    +0.000 C 
BRANCH   9  10
ATOM     10  C   UNL     1       1.267   3.196  18.469  0.00  0.00    +0.000 C 
BRANCH  10  11
ATOM     11  C   UNL     1       1.598   4.600  18.911  0.00  0.00    +0.000 A 
ATOM     12  C   UNL     1       1.952   5.576  17.968  0.00  0.00    +0.000 A 
ATOM     13  C   UNL     1       2.273   6.872  18.378  0.00  0.00    +0.000 A 
ATOM     14  C   UNL     1       2.245   7.202  19.732  0.00  0.00    +0.000 A 
ATOM     15  C   UNL     1       1.896   6.240  20.677  0.00  0.00    +0.000 A 
ATOM     16  C   UNL     1       1.574   4.943  20.269  0.00  0.00    +0.000 A 
ENDBRANCH  10  11
ENDBRANCH   9  10
ENDBRANCH   7   9
ENDBRANCH   4   7
BRANCH   1  17
ATOM     17  C   UNL     1       6.260   5.864  17.385  0.00  0.00    +0.000 C 
BRANCH  17  18
ATOM     18  C   UNL     1       7.074   6.905  18.183  0.00  0.00    +0.000 C 
ATOM     19  C   UNL     1       8.076   6.218  19.117  0.00  0.00    +0.000 C 
ATOM     20  C   UNL     1       7.809   7.916  17.296  0.00  0.00    +0.000 C 
ENDBRANCH  17  18
BRANCH  17  21
ATOM     21  C   UNL     1       7.102   5.208  16.284  0.00  0.00    +0.000 C 
ATOM     22  O   UNL     1       8.013   4.415  16.496  0.00  0.00    +0.000 OA
BRANCH  21  24
ATOM     23  C   UNL     1       6.967   4.762  13.979  0.00  0.00    +0.000 C 
ATOM     24  O   UNL     1       6.730   5.669  15.057  0.00  0.00    +0.000 OA
ENDBRANCH  21  24
ENDBRANCH  17  21
ENDBRANCH   1  17
TORSDOF 8
ENDMDL
MODEL 9
REMARK VINA RESULT:      -6.4      3.154      5.737
REMARK  Name = 
REMARK  12 active torsions:
REMARK  status: ('A' for Active; 'I' for Inactive)
REMARK    1  A    between atoms: C_1  and  O_2
REMARK    2  A    between atoms: O_2  and  C_3
REMARK    3  A    between atoms: C_3  and  C_5
REMARK    4  A    between atoms: C_5  and  N_6
REMARK    5  A    between atoms: C_5  and  C_20
REMARK    6  A    between atoms: N_9  and  C_10
REMARK    7  A    between atoms: C_10  and  C_11
REMARK    8  A    between atoms: C_10  and  C_12
REMARK    9  A    between atoms: C_12  and  C_13
REMARK   10  A    between atoms: C_13  and  C_14
REMARK   11  A    between atoms: C_20  and  C_21
REMARK   12  A    between atoms: C_20  and  C_22
REMARK                            x       y       z     vdW  Elec       q    Type
REMARK                         _______ _______ _______ _____ _____    ______ ____
ROOT
ATOM      1  N   UNL     1       4.747   2.961  19.118  0.00  0.00    +0.000 N 
ATOM      2  C   UNL     1       5.492   4.095  18.943  0.00  0.00    +0.000 C 
ATOM      3  O   UNL     1       5.856   4.817  19.863  0.00  0.00    +0.000 OA
ATOM      4  N   UNL     1       5.712   4.374  17.622  0.00  0.00    +0.000 N 
ATOM      5  H   UNL     1       4.761   2.268  18.381  0.00  0.00    +0.000 HD
ATOM      6  H   UNL     1       5.574   3.635  16.950  0.00  0.00    +0.000 HD
ENDROOT
BRANCH   4   7
ATOM      7  C   UNL     1       6.473   5.551  17.219  0.00  0.00    +0.000 C 
ATOM      8  C   UNL     1       7.153   5.303  15.872  0.00  0.00    +0.000 C 
BRANCH   7   9
ATOM      9  C   UNL     1       5.576   6.796  17.156  0.00  0.00    +0.000 C 
BRANCH   9  10
ATOM     10  C   UNL     1       4.104   6.433  16.924  0.00  0.00    +0.000 C 
BRANCH  10  11
ATOM     11  C   UNL     1       3.200   7.076  17.946  0.00  0.00    +0.000 A 
ATOM     12  C   UNL     1       2.644   8.341  17.707  0.00  0.00    +0.000 A 
ATOM     13  C   UNL     1       1.819   8.943  18.659  0.00  0.00    +0.000 A 
ATOM     14  C   UNL     1       1.546   8.288  19.859  0.00  0.00    +0.000 A 
ATOM     15  C   UNL     1       2.095   7.032  20.108  0.00  0.00    +0.000 A 
ATOM     16  C   UNL     1       2.920   6.428  19.156  0.00  0.00    +0.000 A 
ENDBRANCH  10  11
ENDBRANCH   9  10
ENDBRANCH   7   9
ENDBRANCH   4   7
BRANCH   1  17
ATOM     17  C   UNL     1       4.413   2.476  20.460  0.00  0.00    +0.000 C 
BRANCH  17  18
ATOM     18  C   UNL     1       2.889   2.323  20.657  0.00  0.00    +0.000 C 
ATOM     19  C   UNL     1       2.364   3.341  21.676  0.00  0.00    +0.000 C 
ATOM     20  C   UNL     1       2.090   2.441  19.355  0.00  0.00    +0.000 C 
ENDBRANCH  17  18
BRANCH  17  21
ATOM     21  C   UNL     1       5.152   1.155  20.710  0.00  0.00    +0.000 C 
ATOM     22  O   UNL     1       5.180   0.222  19.916  0.00  0.00    +0.000 OA
BRANCH  21  24
ATOM     23  C   UNL     1       6.340  -0.083  22.319  0.00  0.00    +0.000 C 
ATOM     24  O   UNL     1       5.719   1.150  21.950  0.00  0.00    +0.000 OA
ENDBRANCH  21  24
ENDBRANCH  17  21
ENDBRANCH   1  17
TORSDOF 8
ENDMDL
