MODEL 1
REMARK VINA RESULT:      -6.4      0.000      0.000
REMARK  Name = 
REMARK  12 active torsions:
REMARK  status: ('A' for Active; 'I' for Inactive)
REMARK    1  A    between atoms: C_1  and  O_2
REMARK    2  A    between atoms: O_2  and  C_3
REMARK    3  A    between atoms: C_3  and  C_4
REMARK    4  A    between atoms: C_4  and  C_5
REMARK    5  A    between atoms: C_4  and  N_12
REMARK    6  A    between atoms: C_5  and  C_6
REMARK    7  A    between atoms: N_12  and  C_13
REMARK    8  A    between atoms: N_12  and  C_14
REMARK    9  A    between atoms: C_14  and  C_15
REMARK   10  A    between atoms: N_17  and  C_18
REMARK   11  A    between atoms: C_18  and  C_19
REMARK   12  A    between atoms: C_18  and  C_22
REMARK                            x       y       z     vdW  Elec       q    Type
REMARK                         _______ _______ _______ _____ _____    ______ ____
ROOT
ATOM      1  N   UNL     1       2.114   7.106  18.490  0.00  0.00    +0.000 NA
ATOM      2  C   UNL     1       2.231   7.279  19.941  0.00  0.00    +0.000 C 
ENDROOT
BRANCH   1   3
ATOM      3  C   UNL     1       2.663   5.790  18.010  0.00  0.00    +0.000 C 
BRANCH   3   4
ATOM      4  C   UNL     1       1.666   4.607  18.218  0.00  0.00    +0.000 C 
BRANCH   4   6
ATOM      5  C   UNL     1       2.323   2.385  17.792  0.00  0.00    +0.000 C 
ATOM      6  O   UNL     1       1.831   3.591  17.219  0.00  0.00    +0.000 OA
ENDBRANCH   4   6
ENDBRANCH   3   4
BRANCH   3   7
ATOM      7  C   UNL     1       4.054   5.432  18.619  0.00  0.00    +0.000 C 
BRANCH   7   8
ATOM      8  C   UNL     1       5.156   5.150  17.625  0.00  0.00    +0.000 A 
ATOM      9  C   UNL     1       4.901   5.131  16.248  0.00  0.00    +0.000 A 
ATOM     10  C   UNL     1       5.927   4.841  15.348  0.00  0.00    +0.000 A 
ATOM     11  C   UNL     1       7.215   4.579  15.813  0.00  0.00    +0.000 A 
ATOM     12  C   UNL     1       7.486   4.622  17.178  0.00  0.00    +0.000 A 
ATOM     13  C   UNL     1       6.462   4.909  18.080  0.00  0.00    +0.000 A 
ENDBRANCH   7   8
ENDBRANCH   3   7
ENDBRANCH   1   3
BRANCH   1  14
ATOM     14  C   UNL     1       2.714   8.277  17.809  0.00  0.00    +0.000 C 
BRANCH  14  15
ATOM     15  C   UNL     1       1.798   9.494  17.829  0.00  0.00    +0.000 C 
ATOM     16  O   UNL     1       2.234  10.634  17.713  0.00  0.00    +0.000 OA
ATOM     17  N   UNL     1       0.467   9.198  18.036  0.00  0.00    +0.000 N 
ATOM     18  H   UNL     1       0.183   8.239  17.875  0.00  0.00    +0.000 HD
BRANCH  17  19
ATOM     19  C   UNL     1      -0.542  10.235  18.038  0.00  0.00    +0.000 C 
BRANCH  19  20
ATOM     20  C   UNL     1      -1.661   9.829  17.115  0.00  0.00    +0.000 C 
ATOM     21  C   UNL     1      -3.113  10.068  17.457  0.00  0.00    +0.000 C 
ATOM     22  C   UNL     1      -2.449  10.906  16.404  0.00  0.00    +0.000 C 
ENDBRANCH  19  20
BRANCH  19  23
ATOM     23  C   UNL     1      -1.012  10.465  19.451  0.00  0.00    +0.000 C 
ATOM     24  C   UNL     1      -0.087  10.233  20.624  0.00  0.00    +0.000 C 
ATOM     25  C   UNL     1      -0.458  11.634  20.236  0.00  0.00    +0.000 C 
ENDBRANCH  19  23
ENDBRANCH  17  19
ENDBRANCH  14  15
ENDBRANCH   1  14
TORSDOF 10
ENDMDL
MODEL 2
REMARK VINA RESULT:      -6.3      4.905      8.695
REMARK  Name = 
REMARK  12 active torsions:
REMARK  status: ('A' for Active; 'I' for Inactive)
REMARK    1  A    between atoms: C_1  and  O_2
REMARK    2  A    between atoms: O_2  and  C_3
REMARK    3  A    between atoms: C_3  and  C_4
REMARK    4  A    between atoms: C_4  and  C_5
REMARK    5  A    between atoms: C_4  and  N_12
REMARK    6  A    between atoms: C_5  and  C_6
REMARK    7  A    between atoms: N_12  and  C_13
REMARK    8  A    between atoms: N_12  and  C_14
REMARK    9  A    between atoms: C_14  and  C_15
REMARK   10  A    between atoms: N_17  and  C_18
REMARK   11  A    between atoms: C_18  and  C_19
REMARK   12  A    between atoms: C_18  and  C_22
REMARK                            x       y       z     vdW  Elec       q    Type
REMARK                         _______ _______ _______ _____ _____    ______ ____
ROOT
ATOM      1  N   UNL     1       5.384   5.060  15.860  0.00  0.00    +0.000 NA
ATOM      2  C   UNL     1       5.103   6.484  15.654  0.00  0.00    +0.000 C 
ENDROOT
BRANCH   1   3
ATOM      3  C   UNL     1       5.101   4.603  17.266  0.00  0.00    +0.000 C 
BRANCH   3   4
ATOM      4  C   UNL     1       6.401   4.287  18.072  0.00  0.00    +0.000 C 
BRANCH   4   6
ATOM      5  C   UNL     1       7.749   5.821  19.245  0.00  0.00    +0.000 C 
ATOM      6  O   UNL     1       6.516   5.111  19.239  0.00  0.00    +0.000 OA
ENDBRANCH   4   6
ENDBRANCH   3   4
BRANCH   3   7
ATOM      7  C   UNL     1       4.114   3.397  17.346  0.00  0.00    +0.000 C 
BRANCH   7   8
ATOM      8  C   UNL     1       2.980   3.539  18.334  0.00  0.00    +0.000 A 
ATOM      9  C   UNL     1       3.036   4.481  19.369  0.00  0.00    +0.000 A 
ATOM     10  C   UNL     1       1.990   4.575  20.289  0.00  0.00    +0.000 A 
ATOM     11  C   UNL     1       0.879   3.741  20.176  0.00  0.00    +0.000 A 
ATOM     12  C   UNL     1       0.801   2.821  19.135  0.00  0.00    +0.000 A 
ATOM     13  C   UNL     1       1.846   2.721  18.216  0.00  0.00    +0.000 A 
ENDBRANCH   7   8
ENDBRANCH   3   7
ENDBRANCH   1   3
BRANCH   1  14
ATOM     14  C   UNL     1       6.766   4.766  15.413  0.00  0.00    +0.000 C 
BRANCH  14  15
ATOM     15  C   UNL     1       6.860   4.570  13.905  0.00  0.00    +0.000 C 
ATOM     16  O   UNL     1       7.581   5.273  13.205  0.00  0.00    +0.000 OA
ATOM     17  N   UNL     1       6.036   3.582  13.409  0.00  0.00    +0.000 N 
ATOM     18  H   UNL     1       5.677   2.911  14.078  0.00  0.00    +0.000 HD
BRANCH  17  19
ATOM     19  C   UNL     1       6.037   3.238  12.003  0.00  0.00    +0.000 C 
BRANCH  19  20
ATOM     20  C   UNL     1       7.032   2.131  11.773  0.00  0.00    +0.000 C 
ATOM     21  C   UNL     1       6.672   0.870  11.022  0.00  0.00    +0.000 C 
ATOM     22  C   UNL     1       7.552   1.897  10.373  0.00  0.00    +0.000 C 
ENDBRANCH  19  20
BRANCH  19  23
ATOM     23  C   UNL     1       4.639   2.857  11.588  0.00  0.00    +0.000 C 
ATOM     24  C   UNL     1       3.483   3.809  11.791  0.00  0.00    +0.000 C 
ATOM     25  C   UNL     1       4.001   3.554  10.406  0.00  0.00    +0.000 C 
ENDBRANCH  19  23
ENDBRANCH  17  19
ENDBRANCH  14  15
ENDBRANCH   1  14
TORSDOF 10
ENDMDL
MODEL 3
REMARK VINA RESULT:      -6.3      2.641      4.116
REMARK  Name = 
REMARK  12 active torsions:
REMARK  status: ('A' for Active; 'I' for Inactive)
REMARK    1  A    between atoms: C_1  and  O_2
REMARK    2  A    between atoms: O_2  and  C_3
REMARK    3  A    between atoms: C_3  and  C_4
REMARK    4  A    between atoms: C_4  and  C_5
REMARK    5  A    between atoms: C_4  and  N_12
REMARK    6  A    between atoms: C_5  and  C_6
REMARK    7  A    between atoms: N_12  and  C_13
REMARK    8  A    between atoms: N_12  and  C_14
REMARK    9  A    between atoms: C_14  and  C_15
REMARK   10  A    between atoms: N_17  and  C_18
REMARK   11  A    between atoms: C_18  and  C_19
REMARK   12  A    between atoms: C_18  and  C_22
REMARK                            x       y       z     vdW  Elec       q    Type
REMARK                         _______ _______ _______ _____ _____    ______ ____
ROOT
ATOM      1  N   UNL     1       3.208   3.696  19.067  0.00  0.00    +0.000 NA
ATOM      2  C   UNL     1       3.549   2.290  19.302  0.00  0.00    +0.000 C 
ENDROOT
BRANCH   1   3
ATOM      3  C   UNL     1       4.169   4.386  18.137  0.00  0.00    +0.000 C 
BRANCH   3   4
ATOM      4  C   UNL     1       4.161   3.779  16.698  0.00  0.00    +0.000 C 
BRANCH   4   6
ATOM      5  C   UNL     1       5.841   3.969  15.059  0.00  0.00    +0.000 C 
ATOM      6  O   UNL     1       5.470   3.361  16.290  0.00  0.00    +0.000 OA
ENDBRANCH   4   6
ENDBRANCH   3   4
BRANCH   3   7
ATOM      7  C   UNL     1       5.629   4.454  18.682  0.00  0.00    +0.000 C 
BRANCH   7   8
ATOM      8  C   UNL     1       6.389   5.723  18.376  0.00  0.00    +0.000 A 
ATOM      9  C   UNL     1       5.871   6.682  17.497  0.00  0.00    +0.000 A 
ATOM     10  C   UNL     1       6.603   7.834  17.205  0.00  0.00    +0.000 A 
ATOM     11  C   UNL     1       7.848   8.043  17.796  0.00  0.00    +0.000 A 
ATOM     12  C   UNL     1       8.359   7.110  18.694  0.00  0.00    +0.000 A 
ATOM     13  C   UNL     1       7.632   5.956  18.985  0.00  0.00    +0.000 A 
ENDBRANCH   7   8
ENDBRANCH   3   7
ENDBRANCH   1   3
BRANCH   1  14
ATOM     14  C   UNL     1       3.053   4.385  20.370  0.00  0.00    +0.000 C 
BRANCH  14  15
ATOM     15  C   UNL     1       1.952   5.437  20.344  0.00  0.00    +0.000 C 
ATOM     16  O   UNL     1       0.771   5.141  20.493  0.00  0.00    +0.000 OA
ATOM     17  N   UNL     1       2.396   6.717  20.093  0.00  0.00    +0.000 N 
ATOM     18  H   UNL     1       3.386   6.891  20.229  0.00  0.00    +0.000 HD
BRANCH  17  19
ATOM     19  C   UNL     1       1.484   7.841  20.079  0.00  0.00    +0.000 C 
BRANCH  19  20
ATOM     20  C   UNL     1       1.376   8.399  21.475  0.00  0.00    +0.000 C 
ATOM     21  C   UNL     1       0.938   9.820  21.741  0.00  0.00    +0.000 C 
ATOM     22  C   UNL     1       0.004   8.684  22.042  0.00  0.00    +0.000 C 
ENDBRANCH  19  20
BRANCH  19  23
ATOM     23  C   UNL     1       1.973   8.862  19.084  0.00  0.00    +0.000 C 
ATOM     24  C   UNL     1       2.384   8.451  17.689  0.00  0.00    +0.000 C 
ATOM     25  C   UNL     1       1.107   9.211  17.894  0.00  0.00    +0.000 C 
ENDBRANCH  19  23
ENDBRANCH  17  19
ENDBRANCH  14  15
ENDBRANCH   1  14
TORSDOF 10
ENDMDL
MODEL 4
REMARK VINA RESULT:      -6.1      1.754      8.010
REMARK  Name = 
REMARK  12 active torsions:
REMARK  status: ('A' for Active; 'I' for Inactive)
REMARK    1  A    between atoms: C_1  and  O_2
REMARK    2  A    between atoms: O_2  and  C_3
REMARK    3  A    between atoms: C_3  and  C_4
REMARK    4  A    between atoms: C_4  and  C_5
REMARK    5  A    between atoms: C_4  and  N_12
REMARK    6  A    between atoms: C_5  and  C_6
REMARK    7  A    between atoms: N_12  and  C_13
REMARK    8  A    between atoms: N_12  and  C_14
REMARK    9  A    between atoms: C_14  and  C_15
REMARK   10  A    between atoms: N_17  and  C_18
REMARK   11  A    between atoms: C_18  and  C_19
REMARK   12  A    between atoms: C_18  and  C_22
REMARK                            x       y       z     vdW  Elec       q    Type
REMARK                         _______ _______ _______ _____ _____    ______ ____
ROOT
ATOM      1  N   UNL     1       1.094  10.809  18.660  0.00  0.00    +0.000 NA
ATOM      2  C   UNL     1       2.130  11.846  18.640  0.00  0.00    +0.000 C 
ENDROOT
BRANCH   1   3
ATOM      3  C   UNL     1      -0.198  11.283  19.272  0.00  0.00    +0.000 C 
BRANCH   3   4
ATOM      4  C   UNL     1      -0.035  11.729  20.759  0.00  0.00    +0.000 C 
BRANCH   4   6
ATOM      5  C   UNL     1      -1.138  11.566  22.835  0.00  0.00    +0.000 C 
ATOM      6  O   UNL     1      -0.757  10.871  21.653  0.00  0.00    +0.000 OA
ENDBRANCH   4   6
ENDBRANCH   3   4
BRANCH   3   7
ATOM      7  C   UNL     1      -1.365  10.256  19.144  0.00  0.00    +0.000 C 
BRANCH   7   8
ATOM      8  C   UNL     1      -2.275  10.437  17.951  0.00  0.00    +0.000 A 
ATOM      9  C   UNL     1      -2.009   9.795  16.735  0.00  0.00    +0.000 A 
ATOM     10  C   UNL     1      -2.847   9.998  15.637  0.00  0.00    +0.000 A 
ATOM     11  C   UNL     1      -3.958  10.832  15.747  0.00  0.00    +0.000 A 
ATOM     12  C   UNL     1      -4.247  11.452  16.960  0.00  0.00    +0.000 A 
ATOM     13  C   UNL     1      -3.411  11.254  18.058  0.00  0.00    +0.000 A 
ENDBRANCH   7   8
ENDBRANCH   3   7
ENDBRANCH   1   3
BRANCH   1  14
ATOM     14  C   UNL     1       1.636   9.589  19.304  0.00  0.00    +0.000 C 
BRANCH  14  15
ATOM     15  C   UNL     1       2.100   8.555  18.287  0.00  0.00    +0.000 C 
ATOM     16  O   UNL     1       2.094   8.782  17.083  0.00  0.00    +0.000 OA
ATOM     17  N   UNL     1       2.473   7.347  18.838  0.00  0.00    +0.000 N 
ATOM     18  H   UNL     1       2.675   7.342  19.831  0.00  0.00    +0.000 HD
BRANCH  17  19
ATOM     19  C   UNL     1       2.982   6.270  18.015  0.00  0.00    +0.000 C 
BRANCH  19  20
ATOM     20  C   UNL     1       4.444   6.513  17.744  0.00  0.00    +0.000 C 
ATOM     21  C   UNL     1       5.342   5.446  17.162  0.00  0.00    +0.000 C 
ATOM     22  C   UNL     1       4.915   6.605  16.310  0.00  0.00    +0.000 C 
ENDBRANCH  19  20
BRANCH  19  23
ATOM     23  C   UNL     1       2.732   4.957  18.710  0.00  0.00    +0.000 C 
ATOM     24  C   UNL     1       1.476   4.734  19.520  0.00  0.00    +0.000 C 
ATOM     25  C   UNL     1       1.640   4.043  18.199  0.00  0.00    +0.000 C 
ENDBRANCH  19  23
ENDBRANCH  17  19
ENDBRANCH  14  15
ENDBRANCH   1  14
TORSDOF 10
ENDMDL
MODEL 5
REMARK VINA RESULT:      -6.1      1.961      7.723
REMARK  Name = 
REMARK  12 active torsions:
REMARK  status: ('A' for Active; 'I' for Inactive)
REMARK    1  A    between atoms: C_1  and  O_2
REMARK    2  A    between atoms: O_2  and  C_3
REMARK    3  A    between atoms: C_3  and  C_4
REMARK    4  A    between atoms: C_4  and  C_5
REMARK    5  A    between atoms: C_4  and  N_12
REMARK    6  A    between atoms: C_5  and  C_6
REMARK    7  A    between atoms: N_12  and  C_13
REMARK    8  A    between atoms: N_12  and  C_14
REMARK    9  A    between atoms: C_14  and  C_15
REMARK   10  A    between atoms: N_17  and  C_18
REMARK   11  A    between atoms: C_18  and  C_19
REMARK   12  A    between atoms: C_18  and  C_22
REMARK                            x       y       z     vdW  Elec       q    Type
REMARK                         _______ _______ _______ _____ _____    ______ ____
ROOT
ATOM      1  N   UNL     1       2.786   6.554  19.300  0.00  0.00    +0.000 NA
ATOM      2  C   UNL     1       2.314   5.578  20.287  0.00  0.00    +0.000 C 
ENDROOT
BRANCH   1   3
ATOM      3  C   UNL     1       2.202   7.926  19.506  0.00  0.00    +0.000 C 
BRANCH   3   4
ATOM      4  C   UNL     1       1.153   7.970  20.661  0.00  0.00    +0.000 C 
BRANCH   4   6
ATOM      5  C   UNL     1       0.481   9.677  22.139  0.00  0.00    +0.000 C 
ATOM      6  O   UNL     1       1.561   8.852  21.716  0.00  0.00    +0.000 OA
ENDBRANCH   4   6
ENDBRANCH   3   4
BRANCH   3   7
ATOM      7  C   UNL     1       1.599   8.551  18.209  0.00  0.00    +0.000 C 
BRANCH   7   8
ATOM      8  C   UNL     1       0.958   9.910  18.370  0.00  0.00    +0.000 A 
ATOM      9  C   UNL     1      -0.429  10.071  18.273  0.00  0.00    +0.000 A 
ATOM     10  C   UNL     1      -0.999  11.339  18.396  0.00  0.00    +0.000 A 
ATOM     11  C   UNL     1      -0.191  12.452  18.627  0.00  0.00    +0.000 A 
ATOM     12  C   UNL     1       1.187  12.298  18.753  0.00  0.00    +0.000 A 
ATOM     13  C   UNL     1       1.759  11.033  18.628  0.00  0.00    +0.000 A 
ENDBRANCH   7   8
ENDBRANCH   3   7
ENDBRANCH   1   3
BRANCH   1  14
ATOM     14  C   UNL     1       2.560   6.018  17.937  0.00  0.00    +0.000 C 
BRANCH  14  15
ATOM     15  C   UNL     1       3.742   5.202  17.431  0.00  0.00    +0.000 C 
ATOM     16  O   UNL     1       3.715   3.977  17.395  0.00  0.00    +0.000 OA
ATOM     17  N   UNL     1       4.839   5.955  17.071  0.00  0.00    +0.000 N 
ATOM     18  H   UNL     1       4.679   6.943  16.905  0.00  0.00    +0.000 HD
BRANCH  17  19
ATOM     19  C   UNL     1       6.030   5.339  16.527  0.00  0.00    +0.000 C 
BRANCH  19  20
ATOM     20  C   UNL     1       5.875   5.211  15.034  0.00  0.00    +0.000 C 
ATOM     21  C   UNL     1       7.042   4.893  14.128  0.00  0.00    +0.000 C 
ATOM     22  C   UNL     1       6.004   3.844  14.401  0.00  0.00    +0.000 C 
ENDBRANCH  19  20
BRANCH  19  23
ATOM     23  C   UNL     1       7.233   6.159  16.916  0.00  0.00    +0.000 C 
ATOM     24  C   UNL     1       7.072   7.497  17.599  0.00  0.00    +0.000 C 
ATOM     25  C   UNL     1       7.578   6.321  18.380  0.00  0.00    +0.000 C 
ENDBRANCH  19  23
ENDBRANCH  17  19
ENDBRANCH  14  15
ENDBRANCH   1  14
TORSDOF 10
ENDMDL
MODEL 6
REMARK VINA RESULT:      -6.1      4.559      8.435
REMARK  Name = 
REMARK  12 active torsions:
REMARK  status: ('A' for Active; 'I' for Inactive)
REMARK    1  A    between atoms: C_1  and  O_2
REMARK    2  A    between atoms: O_2  and  C_3
REMARK    3  A    between atoms: C_3  and  C_4
REMARK    4  A    between atoms: C_4  and  C_5
REMARK    5  A    between atoms: C_4  and  N_12
REMARK    6  A    between atoms: C_5  and  C_6
REMARK    7  A    between atoms: N_12  and  C_13
REMARK    8  A    between atoms: N_12  and  C_14
REMARK    9  A    between atoms: C_14  and  C_15
REMARK   10  A    between atoms: N_17  and  C_18
REMARK   11  A    between atoms: C_18  and  C_19
REMARK   12  A    between atoms: C_18  and  C_22
REMARK                            x       y       z     vdW  Elec       q    Type
REMARK                         _______ _______ _______ _____ _____    ______ ____
ROOT
ATOM      1  N   UNL     1       5.446   5.527  15.896  0.00  0.00    +0.000 NA
ATOM      2  C   UNL     1       5.031   6.707  15.132  0.00  0.00    +0.000 C 
ENDROOT
BRANCH   1   3
ATOM      3  C   UNL     1       5.380   5.738  17.385  0.00  0.00    +0.000 C 
BRANCH   3   4
ATOM      4  C   UNL     1       5.712   4.446  18.195  0.00  0.00    +0.000 C 
BRANCH   4   6
ATOM      5  C   UNL     1       7.578   5.544  19.123  0.00  0.00    +0.000 C 
ATOM      6  O   UNL     1       6.435   4.743  19.397  0.00  0.00    +0.000 OA
ENDBRANCH   4   6
ENDBRANCH   3   4
BRANCH   3   7
ATOM      7  C   UNL     1       4.026   6.343  17.872  0.00  0.00    +0.000 C 
BRANCH   7   8
ATOM      8  C   UNL     1       3.010   5.352  18.390  0.00  0.00    +0.000 A 
ATOM      9  C   UNL     1       2.537   4.311  17.582  0.00  0.00    +0.000 A 
ATOM     10  C   UNL     1       1.577   3.424  18.072  0.00  0.00    +0.000 A 
ATOM     11  C   UNL     1       1.093   3.561  19.372  0.00  0.00    +0.000 A 
ATOM     12  C   UNL     1       1.578   4.575  20.193  0.00  0.00    +0.000 A 
ATOM     13  C   UNL     1       2.535   5.465  19.706  0.00  0.00    +0.000 A 
ENDBRANCH   7   8
ENDBRANCH   3   7
ENDBRANCH   1   3
BRANCH   1  14
ATOM     14  C   UNL     1       6.780   5.085  15.424  0.00  0.00    +0.000 C 
BRANCH  14  15
ATOM     15  C   UNL     1       6.782   4.724  13.945  0.00  0.00    +0.000 C 
ATOM     16  O   UNL     1       7.593   5.207  13.162  0.00  0.00    +0.000 OA
ATOM     17  N   UNL     1       5.776   3.859  13.570  0.00  0.00    +0.000 N 
ATOM     18  H   UNL     1       5.324   3.337  14.312  0.00  0.00    +0.000 HD
BRANCH  17  19
ATOM     19  C   UNL     1       5.663   3.381  12.209  0.00  0.00    +0.000 C 
BRANCH  19  20
ATOM     20  C   UNL     1       6.419   2.084  12.084  0.00  0.00    +0.000 C 
ATOM     21  C   UNL     1       6.165   1.110  10.956  0.00  0.00    +0.000 C 
ATOM     22  C   UNL     1       7.423   1.929  10.963  0.00  0.00    +0.000 C 
ENDBRANCH  19  20
BRANCH  19  23
ATOM     23  C   UNL     1       4.205   3.238  11.854  0.00  0.00    +0.000 C 
ATOM     24  C   UNL     1       3.529   4.230  10.937  0.00  0.00    +0.000 C 
ATOM     25  C   UNL     1       3.820   2.843  10.446  0.00  0.00    +0.000 C 
ENDBRANCH  19  23
ENDBRANCH  17  19
ENDBRANCH  14  15
ENDBRANCH   1  14
TORSDOF 10
ENDMDL
MODEL 7
REMARK VINA RESULT:      -6.0      1.138      1.626
REMARK  Name = 
REMARK  12 active torsions:
REMARK  status: ('A' for Active; 'I' for Inactive)
REMARK    1  A    between atoms: C_1  and  O_2
REMARK    2  A    between atoms: O_2  and  C_3
REMARK    3  A    between atoms: C_3  and  C_4
REMARK    4  A    between atoms: C_4  and  C_5
REMARK    5  A    between atoms: C_4  and  N_12
REMARK    6  A    between atoms: C_5  and  C_6
REMARK    7  A    between atoms: N_12  and  C_13
REMARK    8  A    between atoms: N_12  and  C_14
REMARK    9  A    between atoms: C_14  and  C_15
REMARK   10  A    between atoms: N_17  and  C_18
REMARK   11  A    between atoms: C_18  and  C_19
REMARK   12  A    between atoms: C_18  and  C_22
REMARK                            x       y       z     vdW  Elec       q    Type
REMARK                         _______ _______ _______ _____ _____    ______ ____
ROOT
ATOM      1  N   UNL     1       1.990   6.505  19.029  0.00  0.00    +0.000 NA
ATOM      2  C   UNL     1       1.813   5.746  20.270  0.00  0.00    +0.000 C 
ENDROOT
BRANCH   1   3
ATOM      3  C   UNL     1       2.907   5.823  18.049  0.00  0.00    +0.000 C 
BRANCH   3   4
ATOM      4  C   UNL     1       3.117   4.310  18.371  0.00  0.00    +0.000 C 
BRANCH   4   6
ATOM      5  C   UNL     1       2.572   2.107  17.737  0.00  0.00    +0.000 C 
ATOM      6  O   UNL     1       2.611   3.469  17.326  0.00  0.00    +0.000 OA
ENDBRANCH   4   6
ENDBRANCH   3   4
BRANCH   3   7
ATOM      7  C   UNL     1       4.286   6.533  17.884  0.00  0.00    +0.000 C 
BRANCH   7   8
ATOM      8  C   UNL     1       5.302   5.809  17.033  0.00  0.00    +0.000 A 
ATOM      9  C   UNL     1       6.400   5.160  17.612  0.00  0.00    +0.000 A 
ATOM     10  C   UNL     1       7.343   4.521  16.806  0.00  0.00    +0.000 A 
ATOM     11  C   UNL     1       7.192   4.514  15.420  0.00  0.00    +0.000 A 
ATOM     12  C   UNL     1       6.089   5.131  14.836  0.00  0.00    +0.000 A 
ATOM     13  C   UNL     1       5.147   5.774  15.639  0.00  0.00    +0.000 A 
ENDBRANCH   7   8
ENDBRANCH   3   7
ENDBRANCH   1   3
BRANCH   1  14
ATOM     14  C   UNL     1       2.406   7.888  19.359  0.00  0.00    +0.000 C 
BRANCH  14  15
ATOM     15  C   UNL     1       1.694   8.929  18.505  0.00  0.00    +0.000 C 
ATOM     16  O   UNL     1       2.023   9.150  17.345  0.00  0.00    +0.000 OA
ATOM     17  N   UNL     1       0.697   9.618  19.164  0.00  0.00    +0.000 N 
ATOM     18  H   UNL     1       0.344   9.201  20.018  0.00  0.00    +0.000 HD
BRANCH  17  19
ATOM     19  C   UNL     1      -0.108  10.610  18.484  0.00  0.00    +0.000 C 
BRANCH  19  20
ATOM     20  C   UNL     1      -1.518  10.095  18.364  0.00  0.00    +0.000 C 
ATOM     21  C   UNL     1      -2.663  10.980  17.929  0.00  0.00    +0.000 C 
ATOM     22  C   UNL     1      -2.125   9.942  16.988  0.00  0.00    +0.000 C 
ENDBRANCH  19  20
BRANCH  19  23
ATOM     23  C   UNL     1      -0.029  11.912  19.239  0.00  0.00    +0.000 C 
ATOM     24  C   UNL     1       1.305  12.560  19.531  0.00  0.00    +0.000 C 
ATOM     25  C   UNL     1       0.392  13.168  18.508  0.00  0.00    +0.000 C 
ENDBRANCH  19  23
ENDBRANCH  17  19
ENDBRANCH  14  15
ENDBRANCH   1  14
TORSDOF 10
ENDMDL
MODEL 8
REMARK VINA RESULT:      -6.0      2.494      4.018
REMARK  Name = 
REMARK  12 active torsions:
REMARK  status: ('A' for Active; 'I' for Inactive)
REMARK    1  A    between atoms: C_1  and  O_2
REMARK    2  A    between atoms: O_2  and  C_3
REMARK    3  A    between atoms: C_3  and  C_4
REMARK    4  A    between atoms: C_4  and  C_5
REMARK    5  A    between atoms: C_4  and  N_12
REMARK    6  A    between atoms: C_5  and  C_6
REMARK    7  A    between atoms: N_12  and  C_13
REMARK    8  A    between atoms: N_12  and  C_14
REMARK    9  A    between atoms: C_14  and  C_15
REMARK   10  A    between atoms: N_17  and  C_18
REMARK   11  A    between atoms: C_18  and  C_19
REMARK   12  A    between atoms: C_18  and  C_22
REMARK                            x       y       z     vdW  Elec       q    Type
REMARK                         _______ _______ _______ _____ _____    ______ ____
ROOT
ATOM      1  N   UNL     1       2.104   3.431  20.389  0.00  0.00    +0.000 NA
ATOM      2  C   UNL     1       1.953   2.587  21.578  0.00  0.00    +0.000 C 
ENDROOT
BRANCH   1   3
ATOM      3  C   UNL     1       2.937   2.786  19.314  0.00  0.00    +0.000 C 
BRANCH   3   4
ATOM      4  C   UNL     1       4.467   2.840  19.621  0.00  0.00    +0.000 C 
BRANCH   4   6
ATOM      5  C   UNL     1       5.311   1.261  21.152  0.00  0.00    +0.000 C 
ATOM      6  O   UNL     1       5.023   1.529  19.784  0.00  0.00    +0.000 OA
ENDBRANCH   4   6
ENDBRANCH   3   4
BRANCH   3   7
ATOM      7  C   UNL     1       2.657   3.344  17.884  0.00  0.00    +0.000 C 
BRANCH   7   8
ATOM      8  C   UNL     1       3.729   4.235  17.302  0.00  0.00    +0.000 A 
ATOM      9  C   UNL     1       4.737   3.712  16.483  0.00  0.00    +0.000 A 
ATOM     10  C   UNL     1       5.736   4.548  15.979  0.00  0.00    +0.000 A 
ATOM     11  C   UNL     1       5.728   5.909  16.278  0.00  0.00    +0.000 A 
ATOM     12  C   UNL     1       4.714   6.444  17.069  0.00  0.00    +0.000 A 
ATOM     13  C   UNL     1       3.717   5.611  17.576  0.00  0.00    +0.000 A 
ENDBRANCH   7   8
ENDBRANCH   3   7
ENDBRANCH   1   3
BRANCH   1  14
ATOM     14  C   UNL     1       2.602   4.765  20.797  0.00  0.00    +0.000 C 
BRANCH  14  15
ATOM     15  C   UNL     1       1.559   5.858  20.605  0.00  0.00    +0.000 C 
ATOM     16  O   UNL     1       0.364   5.603  20.509  0.00  0.00    +0.000 OA
ATOM     17  N   UNL     1       2.082   7.130  20.502  0.00  0.00    +0.000 N 
ATOM     18  H   UNL     1       3.031   7.260  20.835  0.00  0.00    +0.000 HD
BRANCH  17  19
ATOM     19  C   UNL     1       1.225   8.287  20.361  0.00  0.00    +0.000 C 
BRANCH  19  20
ATOM     20  C   UNL     1       1.152   9.004  21.684  0.00  0.00    +0.000 C 
ATOM     21  C   UNL     1       0.391  10.298  21.857  0.00  0.00    +0.000 C 
ATOM     22  C   UNL     1      -0.164   9.027  22.430  0.00  0.00    +0.000 C 
ENDBRANCH  19  20
BRANCH  19  23
ATOM     23  C   UNL     1       1.756   9.164  19.256  0.00  0.00    +0.000 C 
ATOM     24  C   UNL     1       1.841   8.656  17.836  0.00  0.00    +0.000 C 
ATOM     25  C   UNL     1       0.806   9.679  18.197  0.00  0.00    +0.000 C 
ENDBRANCH  19  23
ENDBRANCH  17  19
ENDBRANCH  14  15
ENDBRANCH   1  14
TORSDOF 10
ENDMDL
MODEL 9
REMARK VINA RESULT:      -6.0      3.780      6.282
REMARK  Name = 
REMARK  12 active torsions:
REMARK  status: ('A' for Active; 'I' for Inactive)
REMARK    1  A    between atoms: C_1  and  O_2
REMARK    2  A    between atoms: O_2  and  C_3
REMARK    3  A    between atoms: C_3  and  C_4
REMARK    4  A    between atoms: C_4  and  C_5
REMARK    5  A    between atoms: C_4  and  N_12
REMARK    6  A    between atoms: C_5  and  C_6
REMARK    7  A    between atoms: N_12  and  C_13
REMARK    8  A    between atoms: N_12  and  C_14
REMARK    9  A    between atoms: C_14  and  C_15
REMARK   10  A    between atoms: N_17  and  C_18
REMARK   11  A    between atoms: C_18  and  C_19
REMARK   12  A    between atoms: C_18  and  C_22
REMARK                            x       y       z     vdW  Elec       q    Type
REMARK                         _______ _______ _______ _____ _____    ______ ____
ROOT
ATOM      1  N   UNL     1       6.643   4.638  17.770  0.00  0.00    +0.000 NA
ATOM      2  C   UNL     1       8.101   4.703  17.905  0.00  0.00    +0.000 C 
ENDROOT
BRANCH   1   3
ATOM      3  C   UNL     1       6.110   5.563  16.709  0.00  0.00    +0.000 C 
BRANCH   3   4
ATOM      4  C   UNL     1       5.357   6.795  17.303  0.00  0.00    +0.000 C 
BRANCH   4   6
ATOM      5  C   UNL     1       3.263   7.729  17.844  0.00  0.00    +0.000 C 
ATOM      6  O   UNL     1       3.934   6.631  17.237  0.00  0.00    +0.000 OA
ENDBRANCH   4   6
ENDBRANCH   3   4
BRANCH   3   7
ATOM      7  C   UNL     1       5.217   4.849  15.646  0.00  0.00    +0.000 C 
BRANCH   7   8
ATOM      8  C   UNL     1       5.881   4.545  14.324  0.00  0.00    +0.000 A 
ATOM      9  C   UNL     1       5.280   3.691  13.392  0.00  0.00    +0.000 A 
ATOM     10  C   UNL     1       5.924   3.401  12.188  0.00  0.00    +0.000 A 
ATOM     11  C   UNL     1       7.165   3.969  11.901  0.00  0.00    +0.000 A 
ATOM     12  C   UNL     1       7.758   4.842  12.809  0.00  0.00    +0.000 A 
ATOM     13  C   UNL     1       7.119   5.131  14.014  0.00  0.00    +0.000 A 
ENDBRANCH   7   8
ENDBRANCH   3   7
ENDBRANCH   1   3
BRANCH   1  14
ATOM     14  C   UNL     1       6.020   4.847  19.098  0.00  0.00    +0.000 C 
BRANCH  14  15
ATOM     15  C   UNL     1       5.032   3.744  19.457  0.00  0.00    +0.000 C 
ATOM     16  O   UNL     1       5.401   2.668  19.915  0.00  0.00    +0.000 OA
ATOM     17  N   UNL     1       3.717   4.047  19.176  0.00  0.00    +0.000 N 
ATOM     18  H   UNL     1       3.495   5.027  19.036  0.00  0.00    +0.000 HD
BRANCH  17  19
ATOM     19  C   UNL     1       2.647   3.127  19.497  0.00  0.00    +0.000 C 
BRANCH  19  20
ATOM     20  C   UNL     1       2.032   3.533  20.811  0.00  0.00    +0.000 C 
ATOM     21  C   UNL     1       0.562   3.345  21.102  0.00  0.00    +0.000 C 
ATOM     22  C   UNL     1       1.572   2.454  21.765  0.00  0.00    +0.000 C 
ENDBRANCH  19  20
BRANCH  19  23
ATOM     23  C   UNL     1       1.649   3.117  18.368  0.00  0.00    +0.000 C 
ATOM     24  C   UNL     1       1.389   4.362  17.551  0.00  0.00    +0.000 C 
ATOM     25  C   UNL     1       2.141   3.216  16.941  0.00  0.00    +0.000 C 
ENDBRANCH  19  23
ENDBRANCH  17  19
ENDBRANCH  14  15
ENDBRANCH   1  14
TORSDOF 10
ENDMDL
