MODEL 1
REMARK VINA RESULT:      -8.3      0.000      0.000
REMARK  Name = 
REMARK  3 active torsions:
REMARK  status: ('A' for Active; 'I' for Inactive)
REMARK    1  A    between atoms: C_2  and  C_3
REMARK    2  A    between atoms: C_3  and  C_4
REMARK    3  A    between atoms: N_14  and  C_15
REMARK                            x       y       z     vdW  Elec       q    Type
REMARK                         _______ _______ _______ _____ _____    ______ ____
ROOT
ATOM      1  C   UNL     1       4.963   5.307  18.120  0.00  0.00    +0.000 C 
ENDROOT
BRANCH   1   2
ATOM      2  C   UNL     1       3.523   5.462  17.605  0.00  0.00    +0.000 C 
ATOM      3  N   UNL     1       3.144   6.894  17.648  0.00  0.00    +0.000 NA
ATOM      4  C   UNL     1       2.496   7.344  18.894  0.00  0.00    +0.000 C 
ATOM      5  C   UNL     1       2.478   6.365  20.077  0.00  0.00    +0.000 C 
ATOM      6  C   UNL     1       2.048   5.008  19.592  0.00  0.00    +0.000 A 
ATOM      7  C   UNL     1       1.203   4.181  20.337  0.00  0.00    +0.000 A 
ATOM      8  C   UNL     1       0.798   2.954  19.812  0.00  0.00    +0.000 A 
ATOM      9  C   UNL     1       1.239   2.548  18.553  0.00  0.00    +0.000 A 
ATOM     10  C   UNL     1       2.105   3.359  17.818  0.00  0.00    +0.000 A 
ATOM     11  C   UNL     1       2.525   4.589  18.339  0.00  0.00    +0.000 A 
ATOM     12  H   UNL     1       2.495   7.066  16.880  0.00  0.00    +0.000 HD
ENDBRANCH   1   2
BRANCH   1  14
ATOM     13  O   UNL     1       7.021   4.409  17.308  0.00  0.00    +0.000 OA
ATOM     14  C   UNL     1       5.933   4.903  17.028  0.00  0.00    +0.000 C 
ATOM     15  N   UNL     1       5.466   5.178  15.753  0.00  0.00    +0.000 N 
ATOM     16  H   UNL     1       4.679   5.814  15.689  0.00  0.00    +0.000 HD
BRANCH  15  17
ATOM     17  C   UNL     1       6.084   4.831  14.534  0.00  0.00    +0.000 A 
ATOM     18  C   UNL     1       7.285   5.393  14.092  0.00  0.00    +0.000 A 
ATOM     19  C   UNL     1       7.845   5.006  12.869  0.00  0.00    +0.000 A 
ATOM     20  C   UNL     1       7.207   4.055  12.078  0.00  0.00    +0.000 A 
ATOM     21  C   UNL     1       6.019   3.481  12.522  0.00  0.00    +0.000 A 
ATOM     22 CL   UNL     1       5.223   2.307  11.544  0.00  0.00    +0.000 Cl
ATOM     23  C   UNL     1       5.462   3.854  13.747  0.00  0.00    +0.000 A 
ENDBRANCH  15  17
ENDBRANCH   1  14
TORSDOF 3
ENDMDL
MODEL 2
REMARK VINA RESULT:      -7.9      1.012      1.013
REMARK  Name = 
REMARK  3 active torsions:
REMARK  status: ('A' for Active; 'I' for Inactive)
REMARK    1  A    between atoms: C_2  and  C_3
REMARK    2  A    between atoms: C_3  and  C_4
REMARK    3  A    between atoms: N_14  and  C_15
REMARK                            x       y       z     vdW  Elec       q    Type
REMARK                         _______ _______ _______ _____ _____    ______ ____
ROOT
ATOM      1  C   UNL     1       4.314   5.914  17.756  0.00  0.00    +0.000 C 
ENDROOT
BRANCH   1   2
ATOM      2  C   UNL     1       2.781   6.023  17.725  0.00  0.00    +0.000 C 
ATOM      3  N   UNL     1       2.381   7.372  18.189  0.00  0.00    +0.000 NA
ATOM      4  C   UNL     1       2.125   7.497  19.636  0.00  0.00    +0.000 C 
ATOM      5  C   UNL     1       2.503   6.306  20.529  0.00  0.00    +0.000 C 
ATOM      6  C   UNL     1       1.996   5.037  19.903  0.00  0.00    +0.000 A 
ATOM      7  C   UNL     1       1.447   3.998  20.658  0.00  0.00    +0.000 A 
ATOM      8  C   UNL     1       0.947   2.865  20.016  0.00  0.00    +0.000 A 
ATOM      9  C   UNL     1       1.000   2.764  18.627  0.00  0.00    +0.000 A 
ATOM     10  C   UNL     1       1.571   3.787  17.871  0.00  0.00    +0.000 A 
ATOM     11  C   UNL     1       2.084   4.925  18.505  0.00  0.00    +0.000 A 
ATOM     12  H   UNL     1       1.523   7.627  17.699  0.00  0.00    +0.000 HD
ENDBRANCH   1   2
BRANCH   1  14
ATOM     13  O   UNL     1       5.095   7.126  15.852  0.00  0.00    +0.000 OA
ATOM     14  C   UNL     1       4.934   6.029  16.378  0.00  0.00    +0.000 C 
ATOM     15  N   UNL     1       5.247   4.801  15.816  0.00  0.00    +0.000 N 
ATOM     16  H   UNL     1       4.825   3.987  16.248  0.00  0.00    +0.000 HD
BRANCH  15  17
ATOM     17  C   UNL     1       5.923   4.577  14.599  0.00  0.00    +0.000 A 
ATOM     18  C   UNL     1       7.128   5.202  14.262  0.00  0.00    +0.000 A 
ATOM     19  C   UNL     1       7.748   4.937  13.035  0.00  0.00    +0.000 A 
ATOM     20  C   UNL     1       7.167   4.047  12.136  0.00  0.00    +0.000 A 
ATOM     21  C   UNL     1       5.976   3.411  12.475  0.00  0.00    +0.000 A 
ATOM     22 CL   UNL     1       5.252   2.313  11.363  0.00  0.00    +0.000 Cl
ATOM     23  C   UNL     1       5.359   3.662  13.702  0.00  0.00    +0.000 A 
ENDBRANCH  15  17
ENDBRANCH   1  14
TORSDOF 3
ENDMDL
MODEL 3
REMARK VINA RESULT:      -7.7      1.546      2.197
REMARK  Name = 
REMARK  3 active torsions:
REMARK  status: ('A' for Active; 'I' for Inactive)
REMARK    1  A    between atoms: C_2  and  C_3
REMARK    2  A    between atoms: C_3  and  C_4
REMARK    3  A    between atoms: N_14  and  C_15
REMARK                            x       y       z     vdW  Elec       q    Type
REMARK                         _______ _______ _______ _____ _____    ______ ____
ROOT
ATOM      1  C   UNL     1       5.185   4.425  18.449  0.00  0.00    +0.000 C 
ENDROOT
BRANCH   1   2
ATOM      2  C   UNL     1       4.510   3.060  18.660  0.00  0.00    +0.000 C 
ATOM      3  N   UNL     1       4.139   2.494  17.342  0.00  0.00    +0.000 NA
ATOM      4  C   UNL     1       2.784   2.827  16.864  0.00  0.00    +0.000 C 
ATOM      5  C   UNL     1       1.992   3.880  17.654  0.00  0.00    +0.000 C 
ATOM      6  C   UNL     1       2.091   3.575  19.123  0.00  0.00    +0.000 A 
ATOM      7  C   UNL     1       1.008   3.728  19.993  0.00  0.00    +0.000 A 
ATOM      8  C   UNL     1       1.146   3.381  21.336  0.00  0.00    +0.000 A 
ATOM      9  C   UNL     1       2.360   2.890  21.815  0.00  0.00    +0.000 A 
ATOM     10  C   UNL     1       3.451   2.761  20.956  0.00  0.00    +0.000 A 
ATOM     11  C   UNL     1       3.327   3.114  19.607  0.00  0.00    +0.000 A 
ATOM     12  H   UNL     1       4.203   1.478  17.411  0.00  0.00    +0.000 HD
ENDBRANCH   1   2
BRANCH   1  14
ATOM     13  O   UNL     1       7.353   4.337  17.452  0.00  0.00    +0.000 OA
ATOM     14  C   UNL     1       6.142   4.427  17.274  0.00  0.00    +0.000 C 
ATOM     15  N   UNL     1       5.505   4.568  16.051  0.00  0.00    +0.000 N 
ATOM     16  H   UNL     1       4.544   4.889  16.078  0.00  0.00    +0.000 HD
BRANCH  15  17
ATOM     17  C   UNL     1       6.103   4.504  14.775  0.00  0.00    +0.000 A 
ATOM     18  C   UNL     1       7.197   5.289  14.398  0.00  0.00    +0.000 A 
ATOM     19  C   UNL     1       7.742   5.180  13.114  0.00  0.00    +0.000 A 
ATOM     20  C   UNL     1       7.197   4.286  12.196  0.00  0.00    +0.000 A 
ATOM     21  C   UNL     1       6.118   3.491  12.574  0.00  0.00    +0.000 A 
ATOM     22 CL   UNL     1       5.437   2.387  11.441  0.00  0.00    +0.000 Cl
ATOM     23  C   UNL     1       5.577   3.587  13.858  0.00  0.00    +0.000 A 
ENDBRANCH  15  17
ENDBRANCH   1  14
TORSDOF 3
ENDMDL
MODEL 4
REMARK VINA RESULT:      -7.7      5.644      7.066
REMARK  Name = 
REMARK  3 active torsions:
REMARK  status: ('A' for Active; 'I' for Inactive)
REMARK    1  A    between atoms: C_2  and  C_3
REMARK    2  A    between atoms: C_3  and  C_4
REMARK    3  A    between atoms: N_14  and  C_15
REMARK                            x       y       z     vdW  Elec       q    Type
REMARK                         _______ _______ _______ _____ _____    ______ ____
ROOT
ATOM      1  C   UNL     1       7.187   7.499  17.317  0.00  0.00    +0.000 C 
ENDROOT
BRANCH   1   2
ATOM      2  C   UNL     1       7.144   5.974  17.505  0.00  0.00    +0.000 C 
ATOM      3  N   UNL     1       7.626   5.318  16.268  0.00  0.00    +0.000 NA
ATOM      4  C   UNL     1       6.586   4.988  15.276  0.00  0.00    +0.000 C 
ATOM      5  C   UNL     1       5.173   5.541  15.519  0.00  0.00    +0.000 C 
ATOM      6  C   UNL     1       4.785   5.297  16.951  0.00  0.00    +0.000 A 
ATOM      7  C   UNL     1       3.493   4.916  17.320  0.00  0.00    +0.000 A 
ATOM      8  C   UNL     1       3.205   4.655  18.660  0.00  0.00    +0.000 A 
ATOM      9  C   UNL     1       4.200   4.779  19.629  0.00  0.00    +0.000 A 
ATOM     10  C   UNL     1       5.484   5.185  19.268  0.00  0.00    +0.000 A 
ATOM     11  C   UNL     1       5.782   5.458  17.927  0.00  0.00    +0.000 A 
ATOM     12  H   UNL     1       8.087   4.448  16.536  0.00  0.00    +0.000 HD
ENDBRANCH   1   2
BRANCH   1  14
ATOM     13  O   UNL     1       8.756   7.531  19.117  0.00  0.00    +0.000 OA
ATOM     14  C   UNL     1       8.172   8.174  18.249  0.00  0.00    +0.000 C 
ATOM     15  N   UNL     1       8.293   9.536  18.023  0.00  0.00    +0.000 N 
ATOM     16  H   UNL     1       7.568   9.965  17.458  0.00  0.00    +0.000 HD
BRANCH  15  17
ATOM     17  C   UNL     1       9.196  10.420  18.649  0.00  0.00    +0.000 A 
ATOM     18  C   UNL     1       9.246  10.617  20.033  0.00  0.00    +0.000 A 
ATOM     19  C   UNL     1      10.165  11.511  20.592  0.00  0.00    +0.000 A 
ATOM     20  C   UNL     1      11.042  12.216  19.772  0.00  0.00    +0.000 A 
ATOM     21  C   UNL     1      11.007  12.010  18.396  0.00  0.00    +0.000 A 
ATOM     22 CL   UNL     1      12.087  12.883  17.377  0.00  0.00    +0.000 Cl
ATOM     23  C   UNL     1      10.100  11.110  17.833  0.00  0.00    +0.000 A 
ENDBRANCH  15  17
ENDBRANCH   1  14
TORSDOF 3
ENDMDL
MODEL 5
REMARK VINA RESULT:      -7.7      1.344      1.696
REMARK  Name = 
REMARK  3 active torsions:
REMARK  status: ('A' for Active; 'I' for Inactive)
REMARK    1  A    between atoms: C_2  and  C_3
REMARK    2  A    between atoms: C_3  and  C_4
REMARK    3  A    between atoms: N_14  and  C_15
REMARK                            x       y       z     vdW  Elec       q    Type
REMARK                         _______ _______ _______ _____ _____    ______ ____
ROOT
ATOM      1  C   UNL     1       4.919   4.266  17.985  0.00  0.00    +0.000 C 
ENDROOT
BRANCH   1   2
ATOM      2  C   UNL     1       3.495   4.658  17.559  0.00  0.00    +0.000 C 
ATOM      3  N   UNL     1       3.413   6.132  17.440  0.00  0.00    +0.000 NA
ATOM      4  C   UNL     1       2.991   6.847  18.659  0.00  0.00    +0.000 C 
ATOM      5  C   UNL     1       2.896   6.036  19.960  0.00  0.00    +0.000 C 
ATOM      6  C   UNL     1       2.161   4.752  19.691  0.00  0.00    +0.000 A 
ATOM      7  C   UNL     1       1.246   4.211  20.597  0.00  0.00    +0.000 A 
ATOM      8  C   UNL     1       0.557   3.043  20.270  0.00  0.00    +0.000 A 
ATOM      9  C   UNL     1       0.783   2.412  19.047  0.00  0.00    +0.000 A 
ATOM     10  C   UNL     1       1.716   2.935  18.151  0.00  0.00    +0.000 A 
ATOM     11  C   UNL     1       2.420   4.102  18.472  0.00  0.00    +0.000 A 
ATOM     12  H   UNL     1       2.738   6.347  16.705  0.00  0.00    +0.000 HD
ENDBRANCH   1   2
BRANCH   1  14
ATOM     13  O   UNL     1       7.113   4.368  17.048  0.00  0.00    +0.000 OA
ATOM     14  C   UNL     1       5.905   4.315  16.836  0.00  0.00    +0.000 C 
ATOM     15  N   UNL     1       5.296   4.324  15.591  0.00  0.00    +0.000 N 
ATOM     16  H   UNL     1       4.304   4.538  15.577  0.00  0.00    +0.000 HD
BRANCH  15  17
ATOM     17  C   UNL     1       5.935   4.263  14.336  0.00  0.00    +0.000 A 
ATOM     18  C   UNL     1       5.518   3.421  13.300  0.00  0.00    +0.000 A 
ATOM     19  C   UNL     1       6.199   3.407  12.077  0.00  0.00    +0.000 A 
ATOM     20  C   UNL     1       7.303   4.232  11.882  0.00  0.00    +0.000 A 
ATOM     21  C   UNL     1       7.711   5.083  12.905  0.00  0.00    +0.000 A 
ATOM     22 CL   UNL     1       9.079   6.102  12.670  0.00  0.00    +0.000 Cl
ATOM     23  C   UNL     1       7.029   5.110  14.123  0.00  0.00    +0.000 A 
ENDBRANCH  15  17
ENDBRANCH   1  14
TORSDOF 3
ENDMDL
MODEL 6
REMARK VINA RESULT:      -7.7      4.280      7.069
REMARK  Name = 
REMARK  3 active torsions:
REMARK  status: ('A' for Active; 'I' for Inactive)
REMARK    1  A    between atoms: C_2  and  C_3
REMARK    2  A    between atoms: C_3  and  C_4
REMARK    3  A    between atoms: N_14  and  C_15
REMARK                            x       y       z     vdW  Elec       q    Type
REMARK                         _______ _______ _______ _____ _____    ______ ____
ROOT
ATOM      1  C   UNL     1       3.212   6.894  18.217  0.00  0.00    +0.000 C 
ENDROOT
BRANCH   1   2
ATOM      2  C   UNL     1       3.616   5.776  19.191  0.00  0.00    +0.000 C 
ATOM      3  N   UNL     1       5.047   5.452  18.990  0.00  0.00    +0.000 NA
ATOM      4  C   UNL     1       5.327   4.382  18.015  0.00  0.00    +0.000 C 
ATOM      5  C   UNL     1       4.155   3.874  17.163  0.00  0.00    +0.000 C 
ATOM      6  C   UNL     1       2.966   3.629  18.051  0.00  0.00    +0.000 A 
ATOM      7  C   UNL     1       2.114   2.536  17.874  0.00  0.00    +0.000 A 
ATOM      8  C   UNL     1       1.056   2.334  18.760  0.00  0.00    +0.000 A 
ATOM      9  C   UNL     1       0.844   3.220  19.816  0.00  0.00    +0.000 A 
ATOM     10  C   UNL     1       1.677   4.327  19.980  0.00  0.00    +0.000 A 
ATOM     11  C   UNL     1       2.736   4.545  19.091  0.00  0.00    +0.000 A 
ATOM     12  H   UNL     1       5.429   5.160  19.891  0.00  0.00    +0.000 HD
ENDBRANCH   1   2
BRANCH   1  14
ATOM     13  O   UNL     1       1.962   7.828  20.026  0.00  0.00    +0.000 OA
ATOM     14  C   UNL     1       2.230   7.873  18.828  0.00  0.00    +0.000 C 
ATOM     15  N   UNL     1       1.685   8.751  17.905  0.00  0.00    +0.000 N 
ATOM     16  H   UNL     1       1.799   8.504  16.927  0.00  0.00    +0.000 HD
BRANCH  15  17
ATOM     17  C   UNL     1       0.827   9.837  18.174  0.00  0.00    +0.000 A 
ATOM     18  C   UNL     1       1.258  11.032  18.758  0.00  0.00    +0.000 A 
ATOM     19  C   UNL     1       0.354  12.072  19.002  0.00  0.00    +0.000 A 
ATOM     20  C   UNL     1      -0.989  11.924  18.665  0.00  0.00    +0.000 A 
ATOM     21  C   UNL     1      -1.419  10.742  18.068  0.00  0.00    +0.000 A 
ATOM     22 CL   UNL     1      -3.080  10.553  17.654  0.00  0.00    +0.000 Cl
ATOM     23  C   UNL     1      -0.519   9.706  17.812  0.00  0.00    +0.000 A 
ENDBRANCH  15  17
ENDBRANCH   1  14
TORSDOF 3
ENDMDL
MODEL 7
REMARK VINA RESULT:      -7.6      4.608      7.472
REMARK  Name = 
REMARK  3 active torsions:
REMARK  status: ('A' for Active; 'I' for Inactive)
REMARK    1  A    between atoms: C_2  and  C_3
REMARK    2  A    between atoms: C_3  and  C_4
REMARK    3  A    between atoms: N_14  and  C_15
REMARK                            x       y       z     vdW  Elec       q    Type
REMARK                         _______ _______ _______ _____ _____    ______ ____
ROOT
ATOM      1  C   UNL     1       3.316   6.699  17.763  0.00  0.00    +0.000 C 
ENDROOT
BRANCH   1   2
ATOM      2  C   UNL     1       3.582   5.784  18.969  0.00  0.00    +0.000 C 
ATOM      3  N   UNL     1       5.033   5.500  19.052  0.00  0.00    +0.000 NA
ATOM      4  C   UNL     1       5.487   4.293  18.336  0.00  0.00    +0.000 C 
ATOM      5  C   UNL     1       4.476   3.592  17.416  0.00  0.00    +0.000 C 
ATOM      6  C   UNL     1       3.166   3.445  18.139  0.00  0.00    +0.000 A 
ATOM      7  C   UNL     1       2.375   2.299  18.029  0.00  0.00    +0.000 A 
ATOM      8  C   UNL     1       1.194   2.201  18.763  0.00  0.00    +0.000 A 
ATOM      9  C   UNL     1       0.798   3.243  19.601  0.00  0.00    +0.000 A 
ATOM     10  C   UNL     1       1.571   4.400  19.693  0.00  0.00    +0.000 A 
ATOM     11  C   UNL     1       2.754   4.514  18.954  0.00  0.00    +0.000 A 
ATOM     12  H   UNL     1       5.271   5.385  20.037  0.00  0.00    +0.000 HD
ENDBRANCH   1   2
BRANCH   1  14
ATOM     13  O   UNL     1       2.352   8.839  17.319  0.00  0.00    +0.000 OA
ATOM     14  C   UNL     1       2.517   7.933  18.131  0.00  0.00    +0.000 C 
ATOM     15  N   UNL     1       2.055   7.916  19.437  0.00  0.00    +0.000 N 
ATOM     16  H   UNL     1       2.483   7.237  20.058  0.00  0.00    +0.000 HD
BRANCH  15  17
ATOM     17  C   UNL     1       1.203   8.861  20.045  0.00  0.00    +0.000 A 
ATOM     18  C   UNL     1       0.557   9.880  19.339  0.00  0.00    +0.000 A 
ATOM     19  C   UNL     1      -0.275  10.789  20.003  0.00  0.00    +0.000 A 
ATOM     20  C   UNL     1      -0.466  10.686  21.379  0.00  0.00    +0.000 A 
ATOM     21  C   UNL     1       0.163   9.663  22.082  0.00  0.00    +0.000 A 
ATOM     22 CL   UNL     1      -0.066   9.534  23.784  0.00  0.00    +0.000 Cl
ATOM     23  C   UNL     1       0.985   8.746  21.423  0.00  0.00    +0.000 A 
ENDBRANCH  15  17
ENDBRANCH   1  14
TORSDOF 3
ENDMDL
MODEL 8
REMARK VINA RESULT:      -7.5      4.465      7.236
REMARK  Name = 
REMARK  3 active torsions:
REMARK  status: ('A' for Active; 'I' for Inactive)
REMARK    1  A    between atoms: C_2  and  C_3
REMARK    2  A    between atoms: C_3  and  C_4
REMARK    3  A    between atoms: N_14  and  C_15
REMARK                            x       y       z     vdW  Elec       q    Type
REMARK                         _______ _______ _______ _____ _____    ______ ____
ROOT
ATOM      1  C   UNL     1       3.095   6.866  18.215  0.00  0.00    +0.000 C 
ENDROOT
BRANCH   1   2
ATOM      2  C   UNL     1       3.509   5.778  19.218  0.00  0.00    +0.000 C 
ATOM      3  N   UNL     1       4.946   5.471  19.035  0.00  0.00    +0.000 NA
ATOM      4  C   UNL     1       5.248   4.380  18.089  0.00  0.00    +0.000 C 
ATOM      5  C   UNL     1       4.089   3.835  17.242  0.00  0.00    +0.000 C 
ATOM      6  C   UNL     1       2.898   3.594  18.128  0.00  0.00    +0.000 A 
ATOM      7  C   UNL     1       2.063   2.485  17.973  0.00  0.00    +0.000 A 
ATOM      8  C   UNL     1       1.003   2.288  18.858  0.00  0.00    +0.000 A 
ATOM      9  C   UNL     1       0.771   3.197  19.889  0.00  0.00    +0.000 A 
ATOM     10  C   UNL     1       1.586   4.320  20.031  0.00  0.00    +0.000 A 
ATOM     11  C   UNL     1       2.648   4.532  19.144  0.00  0.00    +0.000 A 
ATOM     12  H   UNL     1       5.326   5.206  19.945  0.00  0.00    +0.000 HD
ENDBRANCH   1   2
BRANCH   1  14
ATOM     13  O   UNL     1       1.930   7.889  20.031  0.00  0.00    +0.000 OA
ATOM     14  C   UNL     1       2.205   7.923  18.835  0.00  0.00    +0.000 C 
ATOM     15  N   UNL     1       1.747   8.858  17.920  0.00  0.00    +0.000 N 
ATOM     16  H   UNL     1       1.841   8.613  16.940  0.00  0.00    +0.000 HD
BRANCH  15  17
ATOM     17  C   UNL     1       0.990  10.015  18.200  0.00  0.00    +0.000 A 
ATOM     18  C   UNL     1      -0.408  10.037  18.208  0.00  0.00    +0.000 A 
ATOM     19  C   UNL     1      -1.099  11.220  18.492  0.00  0.00    +0.000 A 
ATOM     20  C   UNL     1      -0.398  12.391  18.769  0.00  0.00    +0.000 A 
ATOM     21  C   UNL     1       0.994  12.369  18.778  0.00  0.00    +0.000 A 
ATOM     22 CL   UNL     1       1.866  13.815  19.115  0.00  0.00    +0.000 Cl
ATOM     23  C   UNL     1       1.689  11.188  18.507  0.00  0.00    +0.000 A 
ENDBRANCH  15  17
ENDBRANCH   1  14
TORSDOF 3
ENDMDL
MODEL 9
REMARK VINA RESULT:      -7.5      4.445      7.623
REMARK  Name = 
REMARK  3 active torsions:
REMARK  status: ('A' for Active; 'I' for Inactive)
REMARK    1  A    between atoms: C_2  and  C_3
REMARK    2  A    between atoms: C_3  and  C_4
REMARK    3  A    between atoms: N_14  and  C_15
REMARK                            x       y       z     vdW  Elec       q    Type
REMARK                         _______ _______ _______ _____ _____    ______ ____
ROOT
ATOM      1  C   UNL     1       2.952   6.900  17.971  0.00  0.00    +0.000 C 
ENDROOT
BRANCH   1   2
ATOM      2  C   UNL     1       3.412   5.880  19.025  0.00  0.00    +0.000 C 
ATOM      3  N   UNL     1       4.867   5.647  18.872  0.00  0.00    +0.000 NA
ATOM      4  C   UNL     1       5.243   4.537  17.976  0.00  0.00    +0.000 C 
ATOM      5  C   UNL     1       4.128   3.891  17.140  0.00  0.00    +0.000 C 
ATOM      6  C   UNL     1       2.940   3.621  18.022  0.00  0.00    +0.000 A 
ATOM      7  C   UNL     1       2.170   2.461  17.904  0.00  0.00    +0.000 A 
ATOM      8  C   UNL     1       1.111   2.242  18.784  0.00  0.00    +0.000 A 
ATOM      9  C   UNL     1       0.813   3.179  19.774  0.00  0.00    +0.000 A 
ATOM     10  C   UNL     1       1.563   4.351  19.877  0.00  0.00    +0.000 A 
ATOM     11  C   UNL     1       2.623   4.586  18.994  0.00  0.00    +0.000 A 
ATOM     12  H   UNL     1       5.248   5.443  19.797  0.00  0.00    +0.000 HD
ENDBRANCH   1   2
BRANCH   1  14
ATOM     13  O   UNL     1       2.253   9.183  17.975  0.00  0.00    +0.000 OA
ATOM     14  C   UNL     1       2.297   8.120  18.587  0.00  0.00    +0.000 C 
ATOM     15  N   UNL     1       1.815   7.894  19.866  0.00  0.00    +0.000 N 
ATOM     16  H   UNL     1       2.150   7.059  20.334  0.00  0.00    +0.000 HD
BRANCH  15  17
ATOM     17  C   UNL     1       1.070   8.792  20.659  0.00  0.00    +0.000 A 
ATOM     18  C   UNL     1       1.122   8.811  22.056  0.00  0.00    +0.000 A 
ATOM     19  C   UNL     1       0.354   9.726  22.785  0.00  0.00    +0.000 A 
ATOM     20  C   UNL     1      -0.472  10.630  22.122  0.00  0.00    +0.000 A 
ATOM     21  C   UNL     1      -0.515  10.625  20.731  0.00  0.00    +0.000 A 
ATOM     22 CL   UNL     1      -1.539  11.737  19.906  0.00  0.00    +0.000 Cl
ATOM     23  C   UNL     1       0.258   9.721  19.998  0.00  0.00    +0.000 A 
ENDBRANCH  15  17
ENDBRANCH   1  14
TORSDOF 3
ENDMDL
