MODEL 1
REMARK VINA RESULT:      -7.3      0.000      0.000
REMARK  Name = 
REMARK  9 active torsions:
REMARK  status: ('A' for Active; 'I' for Inactive)
REMARK    1  A    between atoms: C_1  and  C_2
REMARK    2  A    between atoms: C_2  and  C_3
REMARK    3  A    between atoms: C_4  and  C_5
REMARK    4  A    between atoms: C_8  and  C_9
REMARK    5  A    between atoms: C_9  and  C_10
REMARK    6  A    between atoms: C_9  and  C_11
REMARK    7  A    between atoms: C_9  and  C_12
REMARK    8  A    between atoms: C_15  and  C_16
REMARK    9  A    between atoms: N_24  and  C_25
REMARK                            x       y       z     vdW  Elec       q    Type
REMARK                         _______ _______ _______ _____ _____    ______ ____
ROOT
ATOM      1  C   UNL     1       0.067  10.636  20.203  0.00  0.00    +0.000 A 
ATOM      2  C   UNL     1       1.108  10.536  19.287  0.00  0.00    +0.000 A 
ATOM      3  N   UNL     1       1.515  11.776  18.879  0.00  0.00    +0.000 NA
ATOM      4  C   UNL     1       0.779  12.669  19.520  0.00  0.00    +0.000 A 
ATOM      5  N   UNL     1      -0.104  12.018  20.418  0.00  0.00    +0.000 N 
ENDROOT
BRANCH   4   6
ATOM      6  C   UNL     1       0.843  14.126  19.240  0.00  0.00    +0.000 A 
ATOM      7  C   UNL     1      -0.262  14.787  18.666  0.00  0.00    +0.000 A 
ATOM      8  C   UNL     1      -0.265  16.172  18.462  0.00  0.00    +0.000 A 
ATOM      9  C   UNL     1       0.874  16.912  18.749  0.00  0.00    +0.000 A 
ATOM     10 CL   UNL     1       0.877  18.611  18.484  0.00  0.00    +0.000 Cl
ATOM     11  C   UNL     1       2.009  16.281  19.247  0.00  0.00    +0.000 A 
ATOM     12  C   UNL     1       1.992  14.900  19.503  0.00  0.00    +0.000 A 
ATOM     13 CL   UNL     1       3.439  14.242  20.192  0.00  0.00    +0.000 Cl
ENDBRANCH   4   6
BRANCH   5  14
ATOM     14  C   UNL     1      -1.008  12.647  21.342  0.00  0.00    +0.000 A 
ATOM     15  C   UNL     1      -0.537  13.212  22.532  0.00  0.00    +0.000 A 
ATOM     16  C   UNL     1      -1.424  13.703  23.499  0.00  0.00    +0.000 A 
ATOM     17  C   UNL     1      -2.794  13.603  23.293  0.00  0.00    +0.000 A 
ATOM     18 CL   UNL     1      -3.880  14.118  24.523  0.00  0.00    +0.000 Cl
ATOM     19  C   UNL     1      -3.284  13.063  22.108  0.00  0.00    +0.000 A 
ATOM     20  C   UNL     1      -2.394  12.612  21.122  0.00  0.00    +0.000 A 
ENDBRANCH   5  14
BRANCH   2  21
ATOM     21  C   UNL     1       1.767   9.263  18.814  0.00  0.00    +0.000 A 
ATOM     22  N   UNL     1       2.259   9.093  17.597  0.00  0.00    +0.000 NA
ATOM     23  N   UNL     1       2.710   7.795  17.510  0.00  0.00    +0.000 NA
ATOM     24  C   UNL     1       2.460   7.233  18.674  0.00  0.00    +0.000 A 
ATOM     25  O   UNL     1       1.893   8.111  19.568  0.00  0.00    +0.000 OA
BRANCH  24  26
ATOM     26  C   UNL     1       2.643   5.793  19.083  0.00  0.00    +0.000 C 
ATOM     27  C   UNL     1       1.910   5.527  20.415  0.00  0.00    +0.000 C 
ATOM     28  C   UNL     1       2.074   4.841  18.019  0.00  0.00    +0.000 C 
ATOM     29  C   UNL     1       4.137   5.493  19.294  0.00  0.00    +0.000 C 
ENDBRANCH  24  26
ENDBRANCH   2  21
BRANCH   1  31
ATOM     30  C   UNL     1       0.027   9.305  22.355  0.00  0.00    +0.000 C 
ATOM     31  C   UNL     1      -0.596   9.532  20.981  0.00  0.00    +0.000 C 
ENDBRANCH   1  31
TORSDOF 5
ENDMDL
MODEL 2
REMARK VINA RESULT:      -7.3      0.309      1.202
REMARK  Name = 
REMARK  9 active torsions:
REMARK  status: ('A' for Active; 'I' for Inactive)
REMARK    1  A    between atoms: C_1  and  C_2
REMARK    2  A    between atoms: C_2  and  C_3
REMARK    3  A    between atoms: C_4  and  C_5
REMARK    4  A    between atoms: C_8  and  C_9
REMARK    5  A    between atoms: C_9  and  C_10
REMARK    6  A    between atoms: C_9  and  C_11
REMARK    7  A    between atoms: C_9  and  C_12
REMARK    8  A    between atoms: C_15  and  C_16
REMARK    9  A    between atoms: N_24  and  C_25
REMARK                            x       y       z     vdW  Elec       q    Type
REMARK                         _______ _______ _______ _____ _____    ______ ____
ROOT
ATOM      1  C   UNL     1      -0.013  10.479  20.217  0.00  0.00    +0.000 A 
ATOM      2  C   UNL     1       1.069  10.419  19.345  0.00  0.00    +0.000 A 
ATOM      3  N   UNL     1       1.491  11.676  19.010  0.00  0.00    +0.000 NA
ATOM      4  C   UNL     1       0.725  12.540  19.655  0.00  0.00    +0.000 A 
ATOM      5  N   UNL     1      -0.196  11.851  20.483  0.00  0.00    +0.000 N 
ENDROOT
BRANCH   4   6
ATOM      6  C   UNL     1       0.799  14.007  19.441  0.00  0.00    +0.000 A 
ATOM      7  C   UNL     1      -0.217  14.672  18.724  0.00  0.00    +0.000 A 
ATOM      8  C   UNL     1      -0.220  16.063  18.572  0.00  0.00    +0.000 A 
ATOM      9  C   UNL     1       0.842  16.811  19.061  0.00  0.00    +0.000 A 
ATOM     10 CL   UNL     1       0.848  18.518  18.861  0.00  0.00    +0.000 Cl
ATOM     11  C   UNL     1       1.899  16.181  19.708  0.00  0.00    +0.000 A 
ATOM     12  C   UNL     1       1.874  14.791  19.908  0.00  0.00    +0.000 A 
ATOM     13 CL   UNL     1       3.210  14.131  20.793  0.00  0.00    +0.000 Cl
ENDBRANCH   4   6
BRANCH   5  14
ATOM     14  C   UNL     1      -1.143  12.439  21.390  0.00  0.00    +0.000 A 
ATOM     15  C   UNL     1      -2.468  12.661  20.998  0.00  0.00    +0.000 A 
ATOM     16  C   UNL     1      -3.359  13.356  21.824  0.00  0.00    +0.000 A 
ATOM     17  C   UNL     1      -2.921  13.863  23.040  0.00  0.00    +0.000 A 
ATOM     18 CL   UNL     1      -3.991  14.798  24.010  0.00  0.00    +0.000 Cl
ATOM     19  C   UNL     1      -1.614  13.637  23.460  0.00  0.00    +0.000 A 
ATOM     20  C   UNL     1      -0.734  12.903  22.651  0.00  0.00    +0.000 A 
ENDBRANCH   5  14
BRANCH   2  21
ATOM     21  C   UNL     1       1.751   9.168  18.849  0.00  0.00    +0.000 A 
ATOM     22  N   UNL     1       2.207   9.013  17.616  0.00  0.00    +0.000 NA
ATOM     23  N   UNL     1       2.695   7.731  17.511  0.00  0.00    +0.000 NA
ATOM     24  C   UNL     1       2.502   7.161  18.682  0.00  0.00    +0.000 A 
ATOM     25  O   UNL     1       1.939   8.019  19.596  0.00  0.00    +0.000 OA
BRANCH  24  26
ATOM     26  C   UNL     1       2.745   5.727  19.083  0.00  0.00    +0.000 C 
ATOM     27  C   UNL     1       2.223   4.778  17.982  0.00  0.00    +0.000 C 
ATOM     28  C   UNL     1       4.244   5.456  19.283  0.00  0.00    +0.000 C 
ATOM     29  C   UNL     1       1.987   5.409  20.384  0.00  0.00    +0.000 C 
ENDBRANCH  24  26
ENDBRANCH   2  21
BRANCH   1  31
ATOM     30  C   UNL     1      -0.150   9.059  22.306  0.00  0.00    +0.000 C 
ATOM     31  C   UNL     1      -0.709   9.343  20.915  0.00  0.00    +0.000 C 
ENDBRANCH   1  31
TORSDOF 5
ENDMDL
MODEL 3
REMARK VINA RESULT:      -7.2      2.917      4.637
REMARK  Name = 
REMARK  9 active torsions:
REMARK  status: ('A' for Active; 'I' for Inactive)
REMARK    1  A    between atoms: C_1  and  C_2
REMARK    2  A    between atoms: C_2  and  C_3
REMARK    3  A    between atoms: C_4  and  C_5
REMARK    4  A    between atoms: C_8  and  C_9
REMARK    5  A    between atoms: C_9  and  C_10
REMARK    6  A    between atoms: C_9  and  C_11
REMARK    7  A    between atoms: C_9  and  C_12
REMARK    8  A    between atoms: C_15  and  C_16
REMARK    9  A    between atoms: N_24  and  C_25
REMARK                            x       y       z     vdW  Elec       q    Type
REMARK                         _______ _______ _______ _____ _____    ______ ____
ROOT
ATOM      1  C   UNL     1       0.676  11.635  19.187  0.00  0.00    +0.000 A 
ATOM      2  C   UNL     1       0.409  10.370  18.676  0.00  0.00    +0.000 A 
ATOM      3  N   UNL     1      -0.899  10.269  18.291  0.00  0.00    +0.000 NA
ATOM      4  C   UNL     1      -1.475  11.438  18.521  0.00  0.00    +0.000 A 
ATOM      5  N   UNL     1      -0.522  12.360  19.021  0.00  0.00    +0.000 N 
ENDROOT
BRANCH   4   6
ATOM      6  C   UNL     1      -2.930  11.674  18.349  0.00  0.00    +0.000 A 
ATOM      7  C   UNL     1      -3.720  12.068  19.448  0.00  0.00    +0.000 A 
ATOM      8  C   UNL     1      -5.078  12.375  19.305  0.00  0.00    +0.000 A 
ATOM      9  C   UNL     1      -5.695  12.209  18.073  0.00  0.00    +0.000 A 
ATOM     10 CL   UNL     1      -7.367  12.571  17.899  0.00  0.00    +0.000 Cl
ATOM     11  C   UNL     1      -4.964  11.750  16.983  0.00  0.00    +0.000 A 
ATOM     12  C   UNL     1      -3.589  11.495  17.114  0.00  0.00    +0.000 A 
ATOM     13 CL   UNL     1      -2.771  11.000  15.670  0.00  0.00    +0.000 Cl
ENDBRANCH   4   6
BRANCH   5  14
ATOM     14  C   UNL     1      -0.744  13.748  19.321  0.00  0.00    +0.000 A 
ATOM     15  C   UNL     1      -0.340  14.747  18.428  0.00  0.00    +0.000 A 
ATOM     16  C   UNL     1      -0.428  16.101  18.773  0.00  0.00    +0.000 A 
ATOM     17  C   UNL     1      -0.892  16.466  20.029  0.00  0.00    +0.000 A 
ATOM     18 CL   UNL     1      -0.909  18.124  20.484  0.00  0.00    +0.000 Cl
ATOM     19  C   UNL     1      -1.318  15.491  20.926  0.00  0.00    +0.000 A 
ATOM     20  C   UNL     1      -1.271  14.136  20.563  0.00  0.00    +0.000 A 
ENDBRANCH   5  14
BRANCH   2  21
ATOM     21  C   UNL     1       1.401   9.245  18.504  0.00  0.00    +0.000 A 
ATOM     22  N   UNL     1       2.331   9.218  17.563  0.00  0.00    +0.000 NA
ATOM     23  N   UNL     1       2.995   8.016  17.671  0.00  0.00    +0.000 NA
ATOM     24  C   UNL     1       2.428   7.364  18.664  0.00  0.00    +0.000 A 
ATOM     25  O   UNL     1       1.430   8.092  19.267  0.00  0.00    +0.000 OA
BRANCH  24  26
ATOM     26  C   UNL     1       2.686   5.954  19.133  0.00  0.00    +0.000 C 
ATOM     27  C   UNL     1       4.202   5.735  19.332  0.00  0.00    +0.000 C 
ATOM     28  C   UNL     1       1.979   5.680  20.470  0.00  0.00    +0.000 C 
ATOM     29  C   UNL     1       2.195   4.950  18.076  0.00  0.00    +0.000 C 
ENDBRANCH  24  26
ENDBRANCH   2  21
BRANCH   1  31
ATOM     30  C   UNL     1       2.754  12.898  18.487  0.00  0.00    +0.000 C 
ATOM     31  C   UNL     1       2.000  12.203  19.618  0.00  0.00    +0.000 C 
ENDBRANCH   1  31
TORSDOF 5
ENDMDL
MODEL 4
REMARK VINA RESULT:      -7.1      3.451      7.767
REMARK  Name = 
REMARK  9 active torsions:
REMARK  status: ('A' for Active; 'I' for Inactive)
REMARK    1  A    between atoms: C_1  and  C_2
REMARK    2  A    between atoms: C_2  and  C_3
REMARK    3  A    between atoms: C_4  and  C_5
REMARK    4  A    between atoms: C_8  and  C_9
REMARK    5  A    between atoms: C_9  and  C_10
REMARK    6  A    between atoms: C_9  and  C_11
REMARK    7  A    between atoms: C_9  and  C_12
REMARK    8  A    between atoms: C_15  and  C_16
REMARK    9  A    between atoms: N_24  and  C_25
REMARK                            x       y       z     vdW  Elec       q    Type
REMARK                         _______ _______ _______ _____ _____    ______ ____
ROOT
ATOM      1  C   UNL     1      -1.014  13.157  19.830  0.00  0.00    +0.000 A 
ATOM      2  C   UNL     1      -2.005  12.194  19.988  0.00  0.00    +0.000 A 
ATOM      3  N   UNL     1      -1.481  10.937  19.867  0.00  0.00    +0.000 NA
ATOM      4  C   UNL     1      -0.182  11.064  19.655  0.00  0.00    +0.000 A 
ATOM      5  N   UNL     1       0.186  12.432  19.689  0.00  0.00    +0.000 N 
ENDROOT
BRANCH   4   6
ATOM      6  C   UNL     1       0.706   9.915  19.345  0.00  0.00    +0.000 A 
ATOM      7  C   UNL     1       1.168   9.711  18.028  0.00  0.00    +0.000 A 
ATOM      8  C   UNL     1       2.069   8.687  17.716  0.00  0.00    +0.000 A 
ATOM      9  C   UNL     1       2.458   7.789  18.700  0.00  0.00    +0.000 A 
ATOM     10 CL   UNL     1       3.552   6.519  18.314  0.00  0.00    +0.000 Cl
ATOM     11  C   UNL     1       1.964   7.914  19.994  0.00  0.00    +0.000 A 
ATOM     12  C   UNL     1       1.103   8.976  20.319  0.00  0.00    +0.000 A 
ATOM     13 CL   UNL     1       0.614   9.070  21.978  0.00  0.00    +0.000 Cl
ENDBRANCH   4   6
BRANCH   5  14
ATOM     14  C   UNL     1       1.514  12.969  19.574  0.00  0.00    +0.000 A 
ATOM     15  C   UNL     1       2.239  13.334  20.714  0.00  0.00    +0.000 A 
ATOM     16  C   UNL     1       3.475  13.983  20.606  0.00  0.00    +0.000 A 
ATOM     17  C   UNL     1       3.983  14.299  19.353  0.00  0.00    +0.000 A 
ATOM     18 CL   UNL     1       5.454  15.180  19.226  0.00  0.00    +0.000 Cl
ATOM     19  C   UNL     1       3.289  13.927  18.206  0.00  0.00    +0.000 A 
ATOM     20  C   UNL     1       2.072  13.239  18.314  0.00  0.00    +0.000 A 
ENDBRANCH   5  14
BRANCH   2  21
ATOM     21  C   UNL     1      -3.460  12.447  20.300  0.00  0.00    +0.000 A 
ATOM     22  N   UNL     1      -3.900  12.890  21.467  0.00  0.00    +0.000 NA
ATOM     23  N   UNL     1      -5.274  12.930  21.404  0.00  0.00    +0.000 NA
ATOM     24  C   UNL     1      -5.606  12.498  20.206  0.00  0.00    +0.000 A 
ATOM     25  O   UNL     1      -4.509  12.205  19.432  0.00  0.00    +0.000 OA
BRANCH  24  26
ATOM     26  C   UNL     1      -6.982  12.230  19.650  0.00  0.00    +0.000 C 
ATOM     27  C   UNL     1      -7.694  11.156  20.500  0.00  0.00    +0.000 C 
ATOM     28  C   UNL     1      -7.841  13.505  19.665  0.00  0.00    +0.000 C 
ATOM     29  C   UNL     1      -6.874  11.701  18.209  0.00  0.00    +0.000 C 
ENDBRANCH  24  26
ENDBRANCH   2  21
BRANCH   1  31
ATOM     30  C   UNL     1      -0.994  15.105  21.445  0.00  0.00    +0.000 C 
ATOM     31  C   UNL     1      -1.132  14.648  19.996  0.00  0.00    +0.000 C 
ENDBRANCH   1  31
TORSDOF 5
ENDMDL
MODEL 5
REMARK VINA RESULT:      -7.0      3.243      8.010
REMARK  Name = 
REMARK  9 active torsions:
REMARK  status: ('A' for Active; 'I' for Inactive)
REMARK    1  A    between atoms: C_1  and  C_2
REMARK    2  A    between atoms: C_2  and  C_3
REMARK    3  A    between atoms: C_4  and  C_5
REMARK    4  A    between atoms: C_8  and  C_9
REMARK    5  A    between atoms: C_9  and  C_10
REMARK    6  A    between atoms: C_9  and  C_11
REMARK    7  A    between atoms: C_9  and  C_12
REMARK    8  A    between atoms: C_15  and  C_16
REMARK    9  A    between atoms: N_24  and  C_25
REMARK                            x       y       z     vdW  Elec       q    Type
REMARK                         _______ _______ _______ _____ _____    ______ ____
ROOT
ATOM      1  C   UNL     1      -0.891  13.351  21.209  0.00  0.00    +0.000 A 
ATOM      2  C   UNL     1      -1.732  12.344  21.669  0.00  0.00    +0.000 A 
ATOM      3  N   UNL     1      -1.261  11.114  21.302  0.00  0.00    +0.000 NA
ATOM      4  C   UNL     1      -0.132  11.301  20.637  0.00  0.00    +0.000 A 
ATOM      5  N   UNL     1       0.190  12.680  20.603  0.00  0.00    +0.000 N 
ENDROOT
BRANCH   4   6
ATOM      6  C   UNL     1       0.606  10.201  19.966  0.00  0.00    +0.000 A 
ATOM      7  C   UNL     1       0.740  10.189  18.563  0.00  0.00    +0.000 A 
ATOM      8  C   UNL     1       1.496   9.212  17.905  0.00  0.00    +0.000 A 
ATOM      9  C   UNL     1       2.062   8.174  18.633  0.00  0.00    +0.000 A 
ATOM     10 CL   UNL     1       2.978   6.965  17.824  0.00  0.00    +0.000 Cl
ATOM     11  C   UNL     1       1.888   8.113  20.011  0.00  0.00    +0.000 A 
ATOM     12  C   UNL     1       1.176   9.124  20.677  0.00  0.00    +0.000 A 
ATOM     13 CL   UNL     1       1.090   8.977  22.401  0.00  0.00    +0.000 Cl
ENDBRANCH   4   6
BRANCH   5  14
ATOM     14  C   UNL     1       1.372  13.273  20.038  0.00  0.00    +0.000 A 
ATOM     15  C   UNL     1       2.491  13.536  20.836  0.00  0.00    +0.000 A 
ATOM     16  C   UNL     1       3.592  14.237  20.327  0.00  0.00    +0.000 A 
ATOM     17  C   UNL     1       3.567  14.708  19.021  0.00  0.00    +0.000 A 
ATOM     18 CL   UNL     1       4.878  15.649  18.428  0.00  0.00    +0.000 Cl
ATOM     19  C   UNL     1       2.473  14.440  18.203  0.00  0.00    +0.000 A 
ATOM     20  C   UNL     1       1.389  13.701  18.701  0.00  0.00    +0.000 A 
ENDBRANCH   5  14
BRANCH   2  21
ATOM     21  C   UNL     1      -2.977  12.527  22.502  0.00  0.00    +0.000 A 
ATOM     22  N   UNL     1      -3.178  11.937  23.670  0.00  0.00    +0.000 NA
ATOM     23  N   UNL     1      -4.442  12.281  24.096  0.00  0.00    +0.000 NA
ATOM     24  C   UNL     1      -4.953  13.054  23.162  0.00  0.00    +0.000 A 
ATOM     25  O   UNL     1      -4.072  13.287  22.133  0.00  0.00    +0.000 OA
BRANCH  24  26
ATOM     26  C   UNL     1      -6.350  13.615  23.065  0.00  0.00    +0.000 C 
ATOM     27  C   UNL     1      -6.403  15.012  23.722  0.00  0.00    +0.000 C 
ATOM     28  C   UNL     1      -6.788  13.755  21.599  0.00  0.00    +0.000 C 
ATOM     29  C   UNL     1      -7.337  12.701  23.812  0.00  0.00    +0.000 C 
ENDBRANCH  24  26
ENDBRANCH   2  21
BRANCH   1  31
ATOM     30  C   UNL     1      -1.495  15.631  20.292  0.00  0.00    +0.000 C 
ATOM     31  C   UNL     1      -0.974  14.828  21.481  0.00  0.00    +0.000 C 
ENDBRANCH   1  31
TORSDOF 5
ENDMDL
MODEL 6
REMARK VINA RESULT:      -7.0      3.195      7.867
REMARK  Name = 
REMARK  9 active torsions:
REMARK  status: ('A' for Active; 'I' for Inactive)
REMARK    1  A    between atoms: C_1  and  C_2
REMARK    2  A    between atoms: C_2  and  C_3
REMARK    3  A    between atoms: C_4  and  C_5
REMARK    4  A    between atoms: C_8  and  C_9
REMARK    5  A    between atoms: C_9  and  C_10
REMARK    6  A    between atoms: C_9  and  C_11
REMARK    7  A    between atoms: C_9  and  C_12
REMARK    8  A    between atoms: C_15  and  C_16
REMARK    9  A    between atoms: N_24  and  C_25
REMARK                            x       y       z     vdW  Elec       q    Type
REMARK                         _______ _______ _______ _____ _____    ______ ____
ROOT
ATOM      1  C   UNL     1      -1.155  13.330  20.208  0.00  0.00    +0.000 A 
ATOM      2  C   UNL     1      -2.120  12.366  20.479  0.00  0.00    +0.000 A 
ATOM      3  N   UNL     1      -1.607  11.109  20.318  0.00  0.00    +0.000 NA
ATOM      4  C   UNL     1      -0.337  11.237  19.970  0.00  0.00    +0.000 A 
ATOM      5  N   UNL     1       0.026  12.607  19.950  0.00  0.00    +0.000 N 
ENDROOT
BRANCH   4   6
ATOM      6  C   UNL     1       0.517  10.087  19.581  0.00  0.00    +0.000 A 
ATOM      7  C   UNL     1       0.866   9.887  18.229  0.00  0.00    +0.000 A 
ATOM      8  C   UNL     1       1.733   8.862  17.838  0.00  0.00    +0.000 A 
ATOM      9  C   UNL     1       2.202   7.959  18.783  0.00  0.00    +0.000 A 
ATOM     10 CL   UNL     1       3.255   6.688  18.301  0.00  0.00    +0.000 Cl
ATOM     11  C   UNL     1       1.819   8.081  20.114  0.00  0.00    +0.000 A 
ATOM     12  C   UNL     1       0.993   9.143  20.515  0.00  0.00    +0.000 A 
ATOM     13 CL   UNL     1       0.646   9.233  22.209  0.00  0.00    +0.000 Cl
ENDBRANCH   4   6
BRANCH   5  14
ATOM     14  C   UNL     1       1.334  13.145  19.691  0.00  0.00    +0.000 A 
ATOM     15  C   UNL     1       2.198  13.463  20.744  0.00  0.00    +0.000 A 
ATOM     16  C   UNL     1       3.415  14.114  20.508  0.00  0.00    +0.000 A 
ATOM     17  C   UNL     1       3.763  14.480  19.215  0.00  0.00    +0.000 A 
ATOM     18 CL   UNL     1       5.213  15.363  18.939  0.00  0.00    +0.000 Cl
ATOM     19  C   UNL     1       2.928  14.156  18.150  0.00  0.00    +0.000 A 
ATOM     20  C   UNL     1       1.730  13.466  18.383  0.00  0.00    +0.000 A 
ENDBRANCH   5  14
BRANCH   2  21
ATOM     21  C   UNL     1      -3.535  12.620  20.939  0.00  0.00    +0.000 A 
ATOM     22  N   UNL     1      -4.500  13.069  20.151  0.00  0.00    +0.000 NA
ATOM     23  N   UNL     1      -5.622  13.243  20.929  0.00  0.00    +0.000 NA
ATOM     24  C   UNL     1      -5.285  12.903  22.155  0.00  0.00    +0.000 A 
ATOM     25  O   UNL     1      -3.985  12.463  22.237  0.00  0.00    +0.000 OA
BRANCH  24  26
ATOM     26  C   UNL     1      -6.098  13.015  23.420  0.00  0.00    +0.000 C 
ATOM     27  C   UNL     1      -6.391  14.499  23.728  0.00  0.00    +0.000 C 
ATOM     28  C   UNL     1      -7.438  12.276  23.282  0.00  0.00    +0.000 C 
ATOM     29  C   UNL     1      -5.309  12.430  24.605  0.00  0.00    +0.000 C 
ENDBRANCH  24  26
ENDBRANCH   2  21
BRANCH   1  31
ATOM     30  C   UNL     1      -0.979  15.296  21.791  0.00  0.00    +0.000 C 
ATOM     31  C   UNL     1      -1.261  14.822  20.368  0.00  0.00    +0.000 C 
ENDBRANCH   1  31
TORSDOF 5
ENDMDL
MODEL 7
REMARK VINA RESULT:      -6.9      3.343      8.050
REMARK  Name = 
REMARK  9 active torsions:
REMARK  status: ('A' for Active; 'I' for Inactive)
REMARK    1  A    between atoms: C_1  and  C_2
REMARK    2  A    between atoms: C_2  and  C_3
REMARK    3  A    between atoms: C_4  and  C_5
REMARK    4  A    between atoms: C_8  and  C_9
REMARK    5  A    between atoms: C_9  and  C_10
REMARK    6  A    between atoms: C_9  and  C_11
REMARK    7  A    between atoms: C_9  and  C_12
REMARK    8  A    between atoms: C_15  and  C_16
REMARK    9  A    between atoms: N_24  and  C_25
REMARK                            x       y       z     vdW  Elec       q    Type
REMARK                         _______ _______ _______ _____ _____    ______ ____
ROOT
ATOM      1  C   UNL     1      -1.341  13.476  21.323  0.00  0.00    +0.000 A 
ATOM      2  C   UNL     1      -2.161  12.432  21.740  0.00  0.00    +0.000 A 
ATOM      3  N   UNL     1      -1.635  11.226  21.369  0.00  0.00    +0.000 NA
ATOM      4  C   UNL     1      -0.493  11.462  20.745  0.00  0.00    +0.000 A 
ATOM      5  N   UNL     1      -0.218  12.852  20.742  0.00  0.00    +0.000 N 
ENDROOT
BRANCH   4   6
ATOM      6  C   UNL     1       0.304  10.400  20.082  0.00  0.00    +0.000 A 
ATOM      7  C   UNL     1       0.438  10.385  18.678  0.00  0.00    +0.000 A 
ATOM      8  C   UNL     1       1.246   9.446  18.027  0.00  0.00    +0.000 A 
ATOM      9  C   UNL     1       1.869   8.447  18.762  0.00  0.00    +0.000 A 
ATOM     10 CL   UNL     1       2.850   7.283  17.962  0.00  0.00    +0.000 Cl
ATOM     11  C   UNL     1       1.699   8.386  20.141  0.00  0.00    +0.000 A 
ATOM     12  C   UNL     1       0.932   9.361  20.800  0.00  0.00    +0.000 A 
ATOM     13 CL   UNL     1       0.855   9.223  22.525  0.00  0.00    +0.000 Cl
ENDBRANCH   4   6
BRANCH   5  14
ATOM     14  C   UNL     1       0.959  13.495  20.226  0.00  0.00    +0.000 A 
ATOM     15  C   UNL     1       1.002  13.956  18.905  0.00  0.00    +0.000 A 
ATOM     16  C   UNL     1       2.187  14.458  18.354  0.00  0.00    +0.000 A 
ATOM     17  C   UNL     1       3.350  14.473  19.113  0.00  0.00    +0.000 A 
ATOM     18 CL   UNL     1       4.825  15.001  18.404  0.00  0.00    +0.000 Cl
ATOM     19  C   UNL     1       3.326  14.039  20.435  0.00  0.00    +0.000 A 
ATOM     20  C   UNL     1       2.128  13.577  21.000  0.00  0.00    +0.000 A 
ENDBRANCH   5  14
BRANCH   2  21
ATOM     21  C   UNL     1      -3.437  12.559  22.535  0.00  0.00    +0.000 A 
ATOM     22  N   UNL     1      -3.585  12.112  23.772  0.00  0.00    +0.000 NA
ATOM     23  N   UNL     1      -4.892  12.338  24.142  0.00  0.00    +0.000 NA
ATOM     24  C   UNL     1      -5.481  12.901  23.108  0.00  0.00    +0.000 A 
ATOM     25  O   UNL     1      -4.615  13.107  22.060  0.00  0.00    +0.000 OA
BRANCH  24  26
ATOM     26  C   UNL     1      -6.937  13.251  22.929  0.00  0.00    +0.000 C 
ATOM     27  C   UNL     1      -7.103  14.220  21.739  0.00  0.00    +0.000 C 
ATOM     28  C   UNL     1      -7.776  11.994  22.649  0.00  0.00    +0.000 C 
ATOM     29  C   UNL     1      -7.468  13.953  24.191  0.00  0.00    +0.000 C 
ENDBRANCH  24  26
ENDBRANCH   2  21
BRANCH   1  31
ATOM     30  C   UNL     1      -0.899  15.350  22.964  0.00  0.00    +0.000 C 
ATOM     31  C   UNL     1      -1.485  14.944  21.615  0.00  0.00    +0.000 C 
ENDBRANCH   1  31
TORSDOF 5
ENDMDL
MODEL 8
REMARK VINA RESULT:      -6.9      3.301      8.083
REMARK  Name = 
REMARK  9 active torsions:
REMARK  status: ('A' for Active; 'I' for Inactive)
REMARK    1  A    between atoms: C_1  and  C_2
REMARK    2  A    between atoms: C_2  and  C_3
REMARK    3  A    between atoms: C_4  and  C_5
REMARK    4  A    between atoms: C_8  and  C_9
REMARK    5  A    between atoms: C_9  and  C_10
REMARK    6  A    between atoms: C_9  and  C_11
REMARK    7  A    between atoms: C_9  and  C_12
REMARK    8  A    between atoms: C_15  and  C_16
REMARK    9  A    between atoms: N_24  and  C_25
REMARK                            x       y       z     vdW  Elec       q    Type
REMARK                         _______ _______ _______ _____ _____    ______ ____
ROOT
ATOM      1  C   UNL     1      -1.139  13.410  21.222  0.00  0.00    +0.000 A 
ATOM      2  C   UNL     1      -1.960  12.385  21.680  0.00  0.00    +0.000 A 
ATOM      3  N   UNL     1      -1.456  11.165  21.324  0.00  0.00    +0.000 NA
ATOM      4  C   UNL     1      -0.327  11.376  20.668  0.00  0.00    +0.000 A 
ATOM      5  N   UNL     1      -0.037  12.762  20.628  0.00  0.00    +0.000 N 
ENDROOT
BRANCH   4   6
ATOM      6  C   UNL     1       0.443  10.290  20.009  0.00  0.00    +0.000 A 
ATOM      7  C   UNL     1       0.550  10.248  18.604  0.00  0.00    +0.000 A 
ATOM      8  C   UNL     1       1.333   9.287  17.955  0.00  0.00    +0.000 A 
ATOM      9  C   UNL     1       1.956   8.292  18.696  0.00  0.00    +0.000 A 
ATOM     10 CL   UNL     1       2.905   7.100  17.899  0.00  0.00    +0.000 Cl
ATOM     11  C   UNL     1       1.811   8.258  20.079  0.00  0.00    +0.000 A 
ATOM     12  C   UNL     1       1.071   9.256  20.734  0.00  0.00    +0.000 A 
ATOM     13 CL   UNL     1       1.025   9.150  22.462  0.00  0.00    +0.000 Cl
ENDBRANCH   4   6
BRANCH   5  14
ATOM     14  C   UNL     1       1.134  13.380  20.071  0.00  0.00    +0.000 A 
ATOM     15  C   UNL     1       1.212  13.663  18.702  0.00  0.00    +0.000 A 
ATOM     16  C   UNL     1       2.398  14.137  18.129  0.00  0.00    +0.000 A 
ATOM     17  C   UNL     1       3.528  14.304  18.918  0.00  0.00    +0.000 A 
ATOM     18 CL   UNL     1       5.009  14.795  18.195  0.00  0.00    +0.000 Cl
ATOM     19  C   UNL     1       3.468  14.049  20.285  0.00  0.00    +0.000 A 
ATOM     20  C   UNL     1       2.267  13.615  20.866  0.00  0.00    +0.000 A 
ENDBRANCH   5  14
BRANCH   2  21
ATOM     21  C   UNL     1      -3.216  12.543  22.503  0.00  0.00    +0.000 A 
ATOM     22  N   UNL     1      -3.380  12.023  23.709  0.00  0.00    +0.000 NA
ATOM     23  N   UNL     1      -4.664  12.312  24.113  0.00  0.00    +0.000 NA
ATOM     24  C   UNL     1      -5.224  12.983  23.129  0.00  0.00    +0.000 A 
ATOM     25  O   UNL     1      -4.358  13.201  22.084  0.00  0.00    +0.000 OA
BRANCH  24  26
ATOM     26  C   UNL     1      -6.655  13.441  22.998  0.00  0.00    +0.000 C 
ATOM     27  C   UNL     1      -7.610  12.341  23.507  0.00  0.00    +0.000 C 
ATOM     28  C   UNL     1      -6.903  14.715  23.821  0.00  0.00    +0.000 C 
ATOM     29  C   UNL     1      -6.986  13.712  21.520  0.00  0.00    +0.000 C 
ENDBRANCH  24  26
ENDBRANCH   2  21
BRANCH   1  31
ATOM     30  C   UNL     1      -1.618  15.692  20.240  0.00  0.00    +0.000 C 
ATOM     31  C   UNL     1      -1.260  14.886  21.485  0.00  0.00    +0.000 C 
ENDBRANCH   1  31
TORSDOF 5
ENDMDL
MODEL 9
REMARK VINA RESULT:      -6.8      1.948      4.383
REMARK  Name = 
REMARK  9 active torsions:
REMARK  status: ('A' for Active; 'I' for Inactive)
REMARK    1  A    between atoms: C_1  and  C_2
REMARK    2  A    between atoms: C_2  and  C_3
REMARK    3  A    between atoms: C_4  and  C_5
REMARK    4  A    between atoms: C_8  and  C_9
REMARK    5  A    between atoms: C_9  and  C_10
REMARK    6  A    between atoms: C_9  and  C_11
REMARK    7  A    between atoms: C_9  and  C_12
REMARK    8  A    between atoms: C_15  and  C_16
REMARK    9  A    between atoms: N_24  and  C_25
REMARK                            x       y       z     vdW  Elec       q    Type
REMARK                         _______ _______ _______ _____ _____    ______ ____
ROOT
ATOM      1  C   UNL     1       1.085  12.014  19.523  0.00  0.00    +0.000 A 
ATOM      2  C   UNL     1       0.608  10.717  19.366  0.00  0.00    +0.000 A 
ATOM      3  N   UNL     1      -0.728  10.655  19.650  0.00  0.00    +0.000 NA
ATOM      4  C   UNL     1      -1.126  11.876  19.966  0.00  0.00    +0.000 A 
ATOM      5  N   UNL     1      -0.049  12.788  19.840  0.00  0.00    +0.000 N 
ENDROOT
BRANCH   4   6
ATOM      6  C   UNL     1      -2.492  12.181  20.461  0.00  0.00    +0.000 A 
ATOM      7  C   UNL     1      -3.560  12.329  19.552  0.00  0.00    +0.000 A 
ATOM      8  C   UNL     1      -4.873  12.538  19.988  0.00  0.00    +0.000 A 
ATOM      9  C   UNL     1      -5.132  12.690  21.344  0.00  0.00    +0.000 A 
ATOM     10 CL   UNL     1      -6.743  12.962  21.881  0.00  0.00    +0.000 Cl
ATOM     11  C   UNL     1      -4.092  12.624  22.264  0.00  0.00    +0.000 A 
ATOM     12  C   UNL     1      -2.783  12.360  21.830  0.00  0.00    +0.000 A 
ATOM     13 CL   UNL     1      -1.586  12.227  23.075  0.00  0.00    +0.000 Cl
ENDBRANCH   4   6
BRANCH   5  14
ATOM     14  C   UNL     1      -0.102  14.212  20.024  0.00  0.00    +0.000 A 
ATOM     15  C   UNL     1       0.064  14.776  21.294  0.00  0.00    +0.000 A 
ATOM     16  C   UNL     1      -0.122  16.148  21.505  0.00  0.00    +0.000 A 
ATOM     17  C   UNL     1      -0.508  16.963  20.449  0.00  0.00    +0.000 A 
ATOM     18 CL   UNL     1      -0.828  18.629  20.731  0.00  0.00    +0.000 Cl
ATOM     19  C   UNL     1      -0.659  16.428  19.174  0.00  0.00    +0.000 A 
ATOM     20  C   UNL     1      -0.430  15.061  18.955  0.00  0.00    +0.000 A 
ENDBRANCH   5  14
BRANCH   2  21
ATOM     21  C   UNL     1       1.402   9.521  18.900  0.00  0.00    +0.000 A 
ATOM     22  N   UNL     1       1.982   9.434  17.714  0.00  0.00    +0.000 NA
ATOM     23  N   UNL     1       2.547   8.182  17.619  0.00  0.00    +0.000 NA
ATOM     24  C   UNL     1       2.273   7.562  18.748  0.00  0.00    +0.000 A 
ATOM     25  O   UNL     1       1.579   8.357  19.628  0.00  0.00    +0.000 OA
BRANCH  24  26
ATOM     26  C   UNL     1       2.553   6.129  19.126  0.00  0.00    +0.000 C 
ATOM     27  C   UNL     1       4.075   5.907  19.258  0.00  0.00    +0.000 C 
ATOM     28  C   UNL     1       1.896   5.775  20.469  0.00  0.00    +0.000 C 
ATOM     29  C   UNL     1       2.027   5.184  18.032  0.00  0.00    +0.000 C 
ENDBRANCH  24  26
ENDBRANCH   2  21
BRANCH   1  31
ATOM     30  C   UNL     1       2.566  13.145  17.812  0.00  0.00    +0.000 C 
ATOM     31  C   UNL     1       2.458  12.544  19.210  0.00  0.00    +0.000 C 
ENDBRANCH   1  31
TORSDOF 5
ENDMDL
