MODEL 1
REMARK VINA RESULT:      -6.2      0.000      0.000
REMARK  Name = 
REMARK  11 active torsions:
REMARK  status: ('A' for Active; 'I' for Inactive)
REMARK    1  A    between atoms: C_1  and  S_2
REMARK    2  A    between atoms: S_2  and  C_4
REMARK    3  A    between atoms: C_4  and  C_5
REMARK    4  A    between atoms: C_5  and  C_6
REMARK    5  A    between atoms: C_6  and  C_7
REMARK    6  A    between atoms: C_7  and  N_8
REMARK    7  A    between atoms: N_8  and  C_9
REMARK    8  A    between atoms: C_9  and  S_11
REMARK    9  A    between atoms: S_11  and  C_12
REMARK   10  A    between atoms: C_12  and  C_13
REMARK   11  A    between atoms: C_13  and  C_14
REMARK                            x       y       z     vdW  Elec       q    Type
REMARK                         _______ _______ _______ _____ _____    ______ ____
ROOT
ATOM      1  C   UNL     1       6.820   6.106  16.995  0.00  0.00    +0.000 C 
ATOM      2  S   UNL     1       7.523   4.721  17.593  0.00  0.00    +0.000 S 
ENDROOT
BRANCH   1   3
ATOM      3  N   UNL     1       7.328   7.379  17.041  0.00  0.00    +0.000 N 
ATOM      4  H   UNL     1       7.401   7.827  16.136  0.00  0.00    +0.000 HD
BRANCH   3   5
ATOM      5  C   UNL     1       8.102   7.975  18.124  0.00  0.00    +0.000 C 
BRANCH   5   6
ATOM      6  C   UNL     1       8.354   9.471  17.903  0.00  0.00    +0.000 C 
BRANCH   6   7
ATOM      7  C   UNL     1       9.122  10.125  19.059  0.00  0.00    +0.000 C 
BRANCH   7   8
ATOM      8  C   UNL     1      10.091  11.223  18.625  0.00  0.00    +0.000 C 
BRANCH   8  10
ATOM      9  C   UNL     1       9.071  13.479  19.793  0.00  0.00    +0.000 C 
ATOM     10  S   UNL     1       9.297  12.790  18.138  0.00  0.00    +0.000 S 
ATOM     11  O   UNL     1      10.387  13.656  17.413  0.00  0.00    +0.000 OA
ENDBRANCH   8  10
ENDBRANCH   7   8
ENDBRANCH   6   7
ENDBRANCH   5   6
ENDBRANCH   3   5
ENDBRANCH   1   3
BRANCH   1  12
ATOM     12  S   UNL     1       5.340   6.163  16.057  0.00  0.00    +0.000 S 
BRANCH  12  13
ATOM     13  C   UNL     1       4.277   4.996  16.957  0.00  0.00    +0.000 C 
BRANCH  13  14
ATOM     14  C   UNL     1       3.263   5.740  17.822  0.00  0.00    +0.000 C 
BRANCH  14  15
ATOM     15  C   UNL     1       2.371   4.784  18.572  0.00  0.00    +0.000 A 
ATOM     16  C   UNL     1       2.012   5.049  19.901  0.00  0.00    +0.000 A 
ATOM     17  C   UNL     1       1.189   4.167  20.596  0.00  0.00    +0.000 A 
ATOM     18  C   UNL     1       0.722   3.008  19.975  0.00  0.00    +0.000 A 
ATOM     19  C   UNL     1       1.083   2.729  18.660  0.00  0.00    +0.000 A 
ATOM     20  C   UNL     1       1.910   3.613  17.961  0.00  0.00    +0.000 A 
ENDBRANCH  14  15
ENDBRANCH  13  14
ENDBRANCH  12  13
ENDBRANCH   1  12
TORSDOF 10
ENDMDL
MODEL 2
REMARK VINA RESULT:      -6.2      1.147      1.238
REMARK  Name = 
REMARK  11 active torsions:
REMARK  status: ('A' for Active; 'I' for Inactive)
REMARK    1  A    between atoms: C_1  and  S_2
REMARK    2  A    between atoms: S_2  and  C_4
REMARK    3  A    between atoms: C_4  and  C_5
REMARK    4  A    between atoms: C_5  and  C_6
REMARK    5  A    between atoms: C_6  and  C_7
REMARK    6  A    between atoms: C_7  and  N_8
REMARK    7  A    between atoms: N_8  and  C_9
REMARK    8  A    between atoms: C_9  and  S_11
REMARK    9  A    between atoms: S_11  and  C_12
REMARK   10  A    between atoms: C_12  and  C_13
REMARK   11  A    between atoms: C_13  and  C_14
REMARK                            x       y       z     vdW  Elec       q    Type
REMARK                         _______ _______ _______ _____ _____    ______ ____
ROOT
ATOM      1  C   UNL     1       6.798   5.980  16.685  0.00  0.00    +0.000 C 
ATOM      2  S   UNL     1       7.203   4.369  16.578  0.00  0.00    +0.000 S 
ENDROOT
BRANCH   1   3
ATOM      3  N   UNL     1       7.656   7.044  16.797  0.00  0.00    +0.000 N 
ATOM      4  H   UNL     1       8.623   6.816  16.605  0.00  0.00    +0.000 HD
BRANCH   3   5
ATOM      5  C   UNL     1       7.412   8.294  17.507  0.00  0.00    +0.000 C 
BRANCH   5   6
ATOM      6  C   UNL     1       8.533   8.626  18.500  0.00  0.00    +0.000 C 
BRANCH   6   7
ATOM      7  C   UNL     1       8.877  10.121  18.535  0.00  0.00    +0.000 C 
BRANCH   7   8
ATOM      8  C   UNL     1       9.526  10.583  19.837  0.00  0.00    +0.000 C 
BRANCH   8  10
ATOM      9  C   UNL     1      11.965  11.573  19.085  0.00  0.00    +0.000 C 
ATOM     10  S   UNL     1      10.393  12.183  19.731  0.00  0.00    +0.000 S 
ATOM     11  O   UNL     1       9.703  13.009  18.588  0.00  0.00    +0.000 OA
ENDBRANCH   8  10
ENDBRANCH   7   8
ENDBRANCH   6   7
ENDBRANCH   5   6
ENDBRANCH   3   5
ENDBRANCH   1   3
BRANCH   1  12
ATOM     12  S   UNL     1       5.175   6.625  16.530  0.00  0.00    +0.000 S 
BRANCH  12  13
ATOM     13  C   UNL     1       4.409   6.101  18.092  0.00  0.00    +0.000 C 
BRANCH  13  14
ATOM     14  C   UNL     1       2.894   6.282  18.044  0.00  0.00    +0.000 C 
BRANCH  14  15
ATOM     15  C   UNL     1       2.179   5.121  18.685  0.00  0.00    +0.000 A 
ATOM     16  C   UNL     1       1.927   5.120  20.064  0.00  0.00    +0.000 A 
ATOM     17  C   UNL     1       1.268   4.049  20.658  0.00  0.00    +0.000 A 
ATOM     18  C   UNL     1       0.858   2.962  19.884  0.00  0.00    +0.000 A 
ATOM     19  C   UNL     1       1.114   2.946  18.515  0.00  0.00    +0.000 A 
ATOM     20  C   UNL     1       1.777   4.022  17.917  0.00  0.00    +0.000 A 
ENDBRANCH  14  15
ENDBRANCH  13  14
ENDBRANCH  12  13
ENDBRANCH   1  12
TORSDOF 10
ENDMDL
MODEL 3
REMARK VINA RESULT:      -6.0      1.638      1.976
REMARK  Name = 
REMARK  11 active torsions:
REMARK  status: ('A' for Active; 'I' for Inactive)
REMARK    1  A    between atoms: C_1  and  S_2
REMARK    2  A    between atoms: S_2  and  C_4
REMARK    3  A    between atoms: C_4  and  C_5
REMARK    4  A    between atoms: C_5  and  C_6
REMARK    5  A    between atoms: C_6  and  C_7
REMARK    6  A    between atoms: C_7  and  N_8
REMARK    7  A    between atoms: N_8  and  C_9
REMARK    8  A    between atoms: C_9  and  S_11
REMARK    9  A    between atoms: S_11  and  C_12
REMARK   10  A    between atoms: C_12  and  C_13
REMARK   11  A    between atoms: C_13  and  C_14
REMARK                            x       y       z     vdW  Elec       q    Type
REMARK                         _______ _______ _______ _____ _____    ______ ____
ROOT
ATOM      1  C   UNL     1       6.578   6.324  16.947  0.00  0.00    +0.000 C 
ATOM      2  S   UNL     1       5.308   6.094  15.898  0.00  0.00    +0.000 S 
ENDROOT
BRANCH   1   3
ATOM      3  N   UNL     1       7.459   7.375  16.965  0.00  0.00    +0.000 N 
ATOM      4  H   UNL     1       7.894   7.563  16.071  0.00  0.00    +0.000 HD
BRANCH   3   5
ATOM      5  C   UNL     1       8.102   7.959  18.136  0.00  0.00    +0.000 C 
BRANCH   5   6
ATOM      6  C   UNL     1       8.393   9.454  17.954  0.00  0.00    +0.000 C 
BRANCH   6   7
ATOM      7  C   UNL     1       9.167  10.060  19.132  0.00  0.00    +0.000 C 
BRANCH   7   8
ATOM      8  C   UNL     1       9.485  11.545  18.973  0.00  0.00    +0.000 C 
BRANCH   8  10
ATOM      9  C   UNL     1      10.645  13.680  17.713  0.00  0.00    +0.000 C 
ATOM     10  S   UNL     1      10.923  11.907  17.913  0.00  0.00    +0.000 S 
ATOM     11  O   UNL     1      12.208  11.728  18.798  0.00  0.00    +0.000 OA
ENDBRANCH   8  10
ENDBRANCH   7   8
ENDBRANCH   6   7
ENDBRANCH   5   6
ENDBRANCH   3   5
ENDBRANCH   1   3
BRANCH   1  12
ATOM     12  S   UNL     1       6.939   5.310  18.333  0.00  0.00    +0.000 S 
BRANCH  12  13
ATOM     13  C   UNL     1       5.303   5.123  19.100  0.00  0.00    +0.000 C 
BRANCH  13  14
ATOM     14  C   UNL     1       4.747   3.722  18.862  0.00  0.00    +0.000 C 
BRANCH  14  15
ATOM     15  C   UNL     1       3.460   3.503  19.615  0.00  0.00    +0.000 A 
ATOM     16  C   UNL     1       3.435   2.670  20.743  0.00  0.00    +0.000 A 
ATOM     17  C   UNL     1       2.248   2.466  21.439  0.00  0.00    +0.000 A 
ATOM     18  C   UNL     1       1.071   3.084  21.014  0.00  0.00    +0.000 A 
ATOM     19  C   UNL     1       1.082   3.903  19.888  0.00  0.00    +0.000 A 
ATOM     20  C   UNL     1       2.273   4.109  19.187  0.00  0.00    +0.000 A 
ENDBRANCH  14  15
ENDBRANCH  13  14
ENDBRANCH  12  13
ENDBRANCH   1  12
TORSDOF 10
ENDMDL
MODEL 4
REMARK VINA RESULT:      -6.0      0.965      1.524
REMARK  Name = 
REMARK  11 active torsions:
REMARK  status: ('A' for Active; 'I' for Inactive)
REMARK    1  A    between atoms: C_1  and  S_2
REMARK    2  A    between atoms: S_2  and  C_4
REMARK    3  A    between atoms: C_4  and  C_5
REMARK    4  A    between atoms: C_5  and  C_6
REMARK    5  A    between atoms: C_6  and  C_7
REMARK    6  A    between atoms: C_7  and  N_8
REMARK    7  A    between atoms: N_8  and  C_9
REMARK    8  A    between atoms: C_9  and  S_11
REMARK    9  A    between atoms: S_11  and  C_12
REMARK   10  A    between atoms: C_12  and  C_13
REMARK   11  A    between atoms: C_13  and  C_14
REMARK                            x       y       z     vdW  Elec       q    Type
REMARK                         _______ _______ _______ _____ _____    ______ ____
ROOT
ATOM      1  C   UNL     1       6.863   6.371  17.341  0.00  0.00    +0.000 C 
ATOM      2  S   UNL     1       7.230   4.810  17.786  0.00  0.00    +0.000 S 
ENDROOT
BRANCH   1   3
ATOM      3  N   UNL     1       7.744   7.359  16.985  0.00  0.00    +0.000 N 
ATOM      4  H   UNL     1       8.557   7.026  16.482  0.00  0.00    +0.000 HD
BRANCH   3   5
ATOM      5  C   UNL     1       7.839   8.696  17.560  0.00  0.00    +0.000 C 
BRANCH   5   6
ATOM      6  C   UNL     1       8.755   8.735  18.790  0.00  0.00    +0.000 C 
BRANCH   6   7
ATOM      7  C   UNL     1       9.106  10.163  19.228  0.00  0.00    +0.000 C 
BRANCH   7   8
ATOM      8  C   UNL     1       9.723  11.021  18.125  0.00  0.00    +0.000 C 
BRANCH   8  10
ATOM      9  C   UNL     1      12.063  11.757  19.339  0.00  0.00    +0.000 C 
ATOM     10  S   UNL     1      10.557  12.532  18.712  0.00  0.00    +0.000 S 
ATOM     11  O   UNL     1      10.950  13.367  17.442  0.00  0.00    +0.000 OA
ENDBRANCH   8  10
ENDBRANCH   7   8
ENDBRANCH   6   7
ENDBRANCH   5   6
ENDBRANCH   3   5
ENDBRANCH   1   3
BRANCH   1  12
ATOM     12  S   UNL     1       5.242   7.000  17.110  0.00  0.00    +0.000 S 
BRANCH  12  13
ATOM     13  C   UNL     1       4.215   5.559  17.519  0.00  0.00    +0.000 C 
BRANCH  13  14
ATOM     14  C   UNL     1       2.833   5.994  18.000  0.00  0.00    +0.000 C 
BRANCH  14  15
ATOM     15  C   UNL     1       2.135   4.886  18.746  0.00  0.00    +0.000 A 
ATOM     16  C   UNL     1       1.637   3.773  18.054  0.00  0.00    +0.000 A 
ATOM     17  C   UNL     1       0.991   2.750  18.742  0.00  0.00    +0.000 A 
ATOM     18  C   UNL     1       0.827   2.829  20.126  0.00  0.00    +0.000 A 
ATOM     19  C   UNL     1       1.307   3.936  20.821  0.00  0.00    +0.000 A 
ATOM     20  C   UNL     1       1.956   4.965  20.132  0.00  0.00    +0.000 A 
ENDBRANCH  14  15
ENDBRANCH  13  14
ENDBRANCH  12  13
ENDBRANCH   1  12
TORSDOF 10
ENDMDL
MODEL 5
REMARK VINA RESULT:      -5.9      1.480      1.826
REMARK  Name = 
REMARK  11 active torsions:
REMARK  status: ('A' for Active; 'I' for Inactive)
REMARK    1  A    between atoms: C_1  and  S_2
REMARK    2  A    between atoms: S_2  and  C_4
REMARK    3  A    between atoms: C_4  and  C_5
REMARK    4  A    between atoms: C_5  and  C_6
REMARK    5  A    between atoms: C_6  and  C_7
REMARK    6  A    between atoms: C_7  and  N_8
REMARK    7  A    between atoms: N_8  and  C_9
REMARK    8  A    between atoms: C_9  and  S_11
REMARK    9  A    between atoms: S_11  and  C_12
REMARK   10  A    between atoms: C_12  and  C_13
REMARK   11  A    between atoms: C_13  and  C_14
REMARK                            x       y       z     vdW  Elec       q    Type
REMARK                         _______ _______ _______ _____ _____    ______ ____
ROOT
ATOM      1  C   UNL     1       6.716   5.928  16.245  0.00  0.00    +0.000 C 
ATOM      2  S   UNL     1       6.782   4.764  15.057  0.00  0.00    +0.000 S 
ENDROOT
BRANCH   1   3
ATOM      3  N   UNL     1       7.734   6.748  16.658  0.00  0.00    +0.000 N 
ATOM      4  H   UNL     1       8.603   6.611  16.158  0.00  0.00    +0.000 HD
BRANCH   3   5
ATOM      5  C   UNL     1       7.820   7.468  17.923  0.00  0.00    +0.000 C 
BRANCH   5   6
ATOM      6  C   UNL     1       7.830   8.990  17.726  0.00  0.00    +0.000 C 
BRANCH   6   7
ATOM      7  C   UNL     1       8.924   9.690  18.542  0.00  0.00    +0.000 C 
BRANCH   7   8
ATOM      8  C   UNL     1       9.094  11.172  18.216  0.00  0.00    +0.000 C 
BRANCH   8  10
ATOM      9  C   UNL     1       9.481  11.557  20.899  0.00  0.00    +0.000 C 
ATOM     10  S   UNL     1      10.218  12.074  19.333  0.00  0.00    +0.000 S 
ATOM     11  O   UNL     1      11.626  11.389  19.227  0.00  0.00    +0.000 OA
ENDBRANCH   8  10
ENDBRANCH   7   8
ENDBRANCH   6   7
ENDBRANCH   5   6
ENDBRANCH   3   5
ENDBRANCH   1   3
BRANCH   1  12
ATOM     12  S   UNL     1       5.265   6.415  17.102  0.00  0.00    +0.000 S 
BRANCH  12  13
ATOM     13  C   UNL     1       4.246   4.914  17.003  0.00  0.00    +0.000 C 
BRANCH  13  14
ATOM     14  C   UNL     1       4.561   3.965  18.156  0.00  0.00    +0.000 C 
BRANCH  14  15
ATOM     15  C   UNL     1       3.369   3.779  19.059  0.00  0.00    +0.000 A 
ATOM     16  C   UNL     1       2.732   2.533  19.140  0.00  0.00    +0.000 A 
ATOM     17  C   UNL     1       1.630   2.359  19.972  0.00  0.00    +0.000 A 
ATOM     18  C   UNL     1       1.147   3.428  20.727  0.00  0.00    +0.000 A 
ATOM     19  C   UNL     1       1.764   4.674  20.645  0.00  0.00    +0.000 A 
ATOM     20  C   UNL     1       2.870   4.850  19.809  0.00  0.00    +0.000 A 
ENDBRANCH  14  15
ENDBRANCH  13  14
ENDBRANCH  12  13
ENDBRANCH   1  12
TORSDOF 10
ENDMDL
MODEL 6
REMARK VINA RESULT:      -5.9      1.558      1.865
REMARK  Name = 
REMARK  11 active torsions:
REMARK  status: ('A' for Active; 'I' for Inactive)
REMARK    1  A    between atoms: C_1  and  S_2
REMARK    2  A    between atoms: S_2  and  C_4
REMARK    3  A    between atoms: C_4  and  C_5
REMARK    4  A    between atoms: C_5  and  C_6
REMARK    5  A    between atoms: C_6  and  C_7
REMARK    6  A    between atoms: C_7  and  N_8
REMARK    7  A    between atoms: N_8  and  C_9
REMARK    8  A    between atoms: C_9  and  S_11
REMARK    9  A    between atoms: S_11  and  C_12
REMARK   10  A    between atoms: C_12  and  C_13
REMARK   11  A    between atoms: C_13  and  C_14
REMARK                            x       y       z     vdW  Elec       q    Type
REMARK                         _______ _______ _______ _____ _____    ______ ____
ROOT
ATOM      1  C   UNL     1       7.296   5.750  17.018  0.00  0.00    +0.000 C 
ATOM      2  S   UNL     1       7.467   4.988  18.488  0.00  0.00    +0.000 S 
ENDROOT
BRANCH   1   3
ATOM      3  N   UNL     1       7.638   7.041  16.710  0.00  0.00    +0.000 N 
ATOM      4  H   UNL     1       8.380   7.120  16.026  0.00  0.00    +0.000 HD
BRANCH   3   5
ATOM      5  C   UNL     1       7.353   8.234  17.498  0.00  0.00    +0.000 C 
BRANCH   5   6
ATOM      6  C   UNL     1       8.543   8.652  18.372  0.00  0.00    +0.000 C 
BRANCH   6   7
ATOM      7  C   UNL     1       8.806  10.163  18.340  0.00  0.00    +0.000 C 
BRANCH   7   8
ATOM      8  C   UNL     1       9.502  10.702  19.588  0.00  0.00    +0.000 C 
BRANCH   8  10
ATOM      9  C   UNL     1      10.119  12.582  17.697  0.00  0.00    +0.000 C 
ATOM     10  S   UNL     1       9.984  12.457  19.494  0.00  0.00    +0.000 S 
ATOM     11  O   UNL     1       8.739  13.305  19.932  0.00  0.00    +0.000 OA
ENDBRANCH   8  10
ENDBRANCH   7   8
ENDBRANCH   6   7
ENDBRANCH   5   6
ENDBRANCH   3   5
ENDBRANCH   1   3
BRANCH   1  12
ATOM     12  S   UNL     1       6.767   4.976  15.535  0.00  0.00    +0.000 S 
BRANCH  12  13
ATOM     13  C   UNL     1       5.446   3.881  16.132  0.00  0.00    +0.000 C 
BRANCH  13  14
ATOM     14  C   UNL     1       4.263   4.691  16.656  0.00  0.00    +0.000 C 
BRANCH  14  15
ATOM     15  C   UNL     1       3.303   3.827  17.434  0.00  0.00    +0.000 A 
ATOM     16  C   UNL     1       3.705   2.566  17.896  0.00  0.00    +0.000 A 
ATOM     17  C   UNL     1       2.821   1.766  18.614  0.00  0.00    +0.000 A 
ATOM     18  C   UNL     1       1.524   2.212  18.872  0.00  0.00    +0.000 A 
ATOM     19  C   UNL     1       1.110   3.458  18.407  0.00  0.00    +0.000 A 
ATOM     20  C   UNL     1       1.997   4.262  17.685  0.00  0.00    +0.000 A 
ENDBRANCH  14  15
ENDBRANCH  13  14
ENDBRANCH  12  13
ENDBRANCH   1  12
TORSDOF 10
ENDMDL
MODEL 7
REMARK VINA RESULT:      -5.9      1.207      1.360
REMARK  Name = 
REMARK  11 active torsions:
REMARK  status: ('A' for Active; 'I' for Inactive)
REMARK    1  A    between atoms: C_1  and  S_2
REMARK    2  A    between atoms: S_2  and  C_4
REMARK    3  A    between atoms: C_4  and  C_5
REMARK    4  A    between atoms: C_5  and  C_6
REMARK    5  A    between atoms: C_6  and  C_7
REMARK    6  A    between atoms: C_7  and  N_8
REMARK    7  A    between atoms: N_8  and  C_9
REMARK    8  A    between atoms: C_9  and  S_11
REMARK    9  A    between atoms: S_11  and  C_12
REMARK   10  A    between atoms: C_12  and  C_13
REMARK   11  A    between atoms: C_13  and  C_14
REMARK                            x       y       z     vdW  Elec       q    Type
REMARK                         _______ _______ _______ _____ _____    ______ ____
ROOT
ATOM      1  C   UNL     1       6.996   6.290  17.313  0.00  0.00    +0.000 C 
ATOM      2  S   UNL     1       7.498   4.734  17.620  0.00  0.00    +0.000 S 
ENDROOT
BRANCH   1   3
ATOM      3  N   UNL     1       7.773   7.419  17.274  0.00  0.00    +0.000 N 
ATOM      4  H   UNL     1       8.761   7.235  17.157  0.00  0.00    +0.000 HD
BRANCH   3   5
ATOM      5  C   UNL     1       7.411   8.748  17.753  0.00  0.00    +0.000 C 
BRANCH   5   6
ATOM      6  C   UNL     1       8.616   9.697  17.796  0.00  0.00    +0.000 C 
BRANCH   6   7
ATOM      7  C   UNL     1       9.149   9.922  19.218  0.00  0.00    +0.000 C 
BRANCH   7   8
ATOM      8  C   UNL     1       9.464  11.380  19.543  0.00  0.00    +0.000 C 
BRANCH   8  10
ATOM      9  C   UNL     1      11.311  12.226  17.710  0.00  0.00    +0.000 C 
ATOM     10  S   UNL     1      11.233  11.813  19.466  0.00  0.00    +0.000 S 
ATOM     11  O   UNL     1      11.420  13.147  20.273  0.00  0.00    +0.000 OA
ENDBRANCH   8  10
ENDBRANCH   7   8
ENDBRANCH   6   7
ENDBRANCH   5   6
ENDBRANCH   3   5
ENDBRANCH   1   3
BRANCH   1  12
ATOM     12  S   UNL     1       5.371   6.751  16.839  0.00  0.00    +0.000 S 
BRANCH  12  13
ATOM     13  C   UNL     1       4.359   5.914  18.093  0.00  0.00    +0.000 C 
BRANCH  13  14
ATOM     14  C   UNL     1       3.399   4.920  17.444  0.00  0.00    +0.000 C 
BRANCH  14  15
ATOM     15  C   UNL     1       2.464   4.312  18.458  0.00  0.00    +0.000 A 
ATOM     16  C   UNL     1       2.304   4.909  19.716  0.00  0.00    +0.000 A 
ATOM     17  C   UNL     1       1.441   4.349  20.654  0.00  0.00    +0.000 A 
ATOM     18  C   UNL     1       0.736   3.183  20.350  0.00  0.00    +0.000 A 
ATOM     19  C   UNL     1       0.897   2.576  19.108  0.00  0.00    +0.000 A 
ATOM     20  C   UNL     1       1.763   3.137  18.165  0.00  0.00    +0.000 A 
ENDBRANCH  14  15
ENDBRANCH  13  14
ENDBRANCH  12  13
ENDBRANCH   1  12
TORSDOF 10
ENDMDL
MODEL 8
REMARK VINA RESULT:      -5.8      1.313      1.351
REMARK  Name = 
REMARK  11 active torsions:
REMARK  status: ('A' for Active; 'I' for Inactive)
REMARK    1  A    between atoms: C_1  and  S_2
REMARK    2  A    between atoms: S_2  and  C_4
REMARK    3  A    between atoms: C_4  and  C_5
REMARK    4  A    between atoms: C_5  and  C_6
REMARK    5  A    between atoms: C_6  and  C_7
REMARK    6  A    between atoms: C_7  and  N_8
REMARK    7  A    between atoms: N_8  and  C_9
REMARK    8  A    between atoms: C_9  and  S_11
REMARK    9  A    between atoms: S_11  and  C_12
REMARK   10  A    between atoms: C_12  and  C_13
REMARK   11  A    between atoms: C_13  and  C_14
REMARK                            x       y       z     vdW  Elec       q    Type
REMARK                         _______ _______ _______ _____ _____    ______ ____
ROOT
ATOM      1  C   UNL     1       7.132   6.839  17.754  0.00  0.00    +0.000 C 
ATOM      2  S   UNL     1       7.665   5.829  18.965  0.00  0.00    +0.000 S 
ENDROOT
BRANCH   1   3
ATOM      3  N   UNL     1       7.805   7.899  17.203  0.00  0.00    +0.000 N 
ATOM      4  H   UNL     1       8.585   7.632  16.616  0.00  0.00    +0.000 HD
BRANCH   3   5
ATOM      5  C   UNL     1       7.778   9.284  17.657  0.00  0.00    +0.000 C 
BRANCH   5   6
ATOM      6  C   UNL     1       8.813   9.556  18.756  0.00  0.00    +0.000 C 
BRANCH   6   7
ATOM      7  C   UNL     1       9.584  10.865  18.540  0.00  0.00    +0.000 C 
BRANCH   7   8
ATOM      8  C   UNL     1      10.527  11.231  19.683  0.00  0.00    +0.000 C 
BRANCH   8  10
ATOM      9  C   UNL     1      11.591  13.752  19.609  0.00  0.00    +0.000 C 
ATOM     10  S   UNL     1      10.235  12.874  20.417  0.00  0.00    +0.000 S 
ATOM     11  O   UNL     1       8.893  13.420  19.811  0.00  0.00    +0.000 OA
ENDBRANCH   8  10
ENDBRANCH   7   8
ENDBRANCH   6   7
ENDBRANCH   5   6
ENDBRANCH   3   5
ENDBRANCH   1   3
BRANCH   1  12
ATOM     12  S   UNL     1       5.641   6.635  16.854  0.00  0.00    +0.000 S 
BRANCH  12  13
ATOM     13  C   UNL     1       4.789   5.354  17.819  0.00  0.00    +0.000 C 
BRANCH  13  14
ATOM     14  C   UNL     1       3.654   5.957  18.643  0.00  0.00    +0.000 C 
BRANCH  14  15
ATOM     15  C   UNL     1       2.619   4.920  18.999  0.00  0.00    +0.000 A 
ATOM     16  C   UNL     1       2.041   4.911  20.276  0.00  0.00    +0.000 A 
ATOM     17  C   UNL     1       1.085   3.954  20.608  0.00  0.00    +0.000 A 
ATOM     18  C   UNL     1       0.703   2.992  19.672  0.00  0.00    +0.000 A 
ATOM     19  C   UNL     1       1.280   2.985  18.404  0.00  0.00    +0.000 A 
ATOM     20  C   UNL     1       2.240   3.945  18.070  0.00  0.00    +0.000 A 
ENDBRANCH  14  15
ENDBRANCH  13  14
ENDBRANCH  12  13
ENDBRANCH   1  12
TORSDOF 10
ENDMDL
MODEL 9
REMARK VINA RESULT:      -5.8      1.540      1.803
REMARK  Name = 
REMARK  11 active torsions:
REMARK  status: ('A' for Active; 'I' for Inactive)
REMARK    1  A    between atoms: C_1  and  S_2
REMARK    2  A    between atoms: S_2  and  C_4
REMARK    3  A    between atoms: C_4  and  C_5
REMARK    4  A    between atoms: C_5  and  C_6
REMARK    5  A    between atoms: C_6  and  C_7
REMARK    6  A    between atoms: C_7  and  N_8
REMARK    7  A    between atoms: N_8  and  C_9
REMARK    8  A    between atoms: C_9  and  S_11
REMARK    9  A    between atoms: S_11  and  C_12
REMARK   10  A    between atoms: C_12  and  C_13
REMARK   11  A    between atoms: C_13  and  C_14
REMARK                            x       y       z     vdW  Elec       q    Type
REMARK                         _______ _______ _______ _____ _____    ______ ____
ROOT
ATOM      1  C   UNL     1       7.117   5.984  17.852  0.00  0.00    +0.000 C 
ATOM      2  S   UNL     1       7.664   5.593  19.374  0.00  0.00    +0.000 S 
ENDROOT
BRANCH   1   3
ATOM      3  N   UNL     1       7.426   7.103  17.122  0.00  0.00    +0.000 N 
ATOM      4  H   UNL     1       7.973   6.915  16.291  0.00  0.00    +0.000 HD
BRANCH   3   5
ATOM      5  C   UNL     1       7.405   8.485  17.587  0.00  0.00    +0.000 C 
BRANCH   5   6
ATOM      6  C   UNL     1       8.669   8.852  18.375  0.00  0.00    +0.000 C 
BRANCH   6   7
ATOM      7  C   UNL     1       8.906  10.366  18.451  0.00  0.00    +0.000 C 
BRANCH   7   8
ATOM      8  C   UNL     1       9.499  10.840  19.776  0.00  0.00    +0.000 C 
BRANCH   8  10
ATOM      9  C   UNL     1      11.161  11.808  17.828  0.00  0.00    +0.000 C 
ATOM     10  S   UNL     1      11.099  11.702  19.630  0.00  0.00    +0.000 S 
ATOM     11  O   UNL     1      10.894  13.157  20.181  0.00  0.00    +0.000 OA
ENDBRANCH   8  10
ENDBRANCH   7   8
ENDBRANCH   6   7
ENDBRANCH   5   6
ENDBRANCH   3   5
ENDBRANCH   1   3
BRANCH   1  12
ATOM     12  S   UNL     1       6.137   4.944  16.834  0.00  0.00    +0.000 S 
BRANCH  12  13
ATOM     13  C   UNL     1       4.468   5.241  17.486  0.00  0.00    +0.000 C 
BRANCH  13  14
ATOM     14  C   UNL     1       3.618   3.975  17.402  0.00  0.00    +0.000 C 
BRANCH  14  15
ATOM     15  C   UNL     1       2.908   3.700  18.703  0.00  0.00    +0.000 A 
ATOM     16  C   UNL     1       1.602   4.166  18.906  0.00  0.00    +0.000 A 
ATOM     17  C   UNL     1       0.945   3.913  20.107  0.00  0.00    +0.000 A 
ATOM     18  C   UNL     1       1.586   3.200  21.120  0.00  0.00    +0.000 A 
ATOM     19  C   UNL     1       2.888   2.743  20.933  0.00  0.00    +0.000 A 
ATOM     20  C   UNL     1       3.550   2.997  19.728  0.00  0.00    +0.000 A 
ENDBRANCH  14  15
ENDBRANCH  13  14
ENDBRANCH  12  13
ENDBRANCH   1  12
TORSDOF 10
ENDMDL
