MODEL 1
REMARK VINA RESULT:      -7.7      0.000      0.000
REMARK  Name = 
REMARK  4 active torsions:
REMARK  status: ('A' for Active; 'I' for Inactive)
REMARK    1  A    between atoms: C_2  and  C_3
REMARK    2  A    between atoms: N_15  and  C_16
REMARK    3  A    between atoms: C_16  and  C_17
REMARK    4  A    between atoms: C_17  and  C_18
REMARK                            x       y       z     vdW  Elec       q    Type
REMARK                         _______ _______ _______ _____ _____    ______ ____
ROOT
ATOM      1  C   UNL     1       5.718   4.999  15.780  0.00  0.00    +0.000 A 
ATOM      2  C   UNL     1       5.596   6.359  16.055  0.00  0.00    +0.000 A 
ATOM      3  C   UNL     1       4.638   6.820  16.963  0.00  0.00    +0.000 A 
ATOM      4  C   UNL     1       3.794   5.880  17.578  0.00  0.00    +0.000 A 
ATOM      5  C   UNL     1       3.910   4.511  17.320  0.00  0.00    +0.000 A 
ATOM      6  C   UNL     1       4.890   4.062  16.407  0.00  0.00    +0.000 A 
ATOM      7  C   UNL     1       2.947   3.833  18.128  0.00  0.00    +0.000 A 
ATOM      8  C   UNL     1       2.626   2.469  18.315  0.00  0.00    +0.000 A 
ATOM      9  C   UNL     1       1.623   2.110  19.219  0.00  0.00    +0.000 A 
ATOM     10  C   UNL     1       0.934   3.086  19.927  0.00  0.00    +0.000 A 
ATOM     11  C   UNL     1       1.227   4.442  19.754  0.00  0.00    +0.000 A 
ATOM     12  C   UNL     1       2.243   4.800  18.850  0.00  0.00    +0.000 A 
ATOM     13  N   UNL     1       2.759   6.033  18.489  0.00  0.00    +0.000 N 
ENDROOT
BRANCH   1  15
ATOM     14  O   UNL     1       7.623   5.258  14.398  0.00  0.00    +0.000 OA
ATOM     15  C   UNL     1       6.739   4.525  14.825  0.00  0.00    +0.000 C 
ENDBRANCH   1  15
BRANCH  13  16
ATOM     16  C   UNL     1       2.335   7.306  19.056  0.00  0.00    +0.000 C 
BRANCH  16  17
ATOM     17  C   UNL     1       1.899   8.371  18.046  0.00  0.00    +0.000 C 
BRANCH  17  18
ATOM     18  C   UNL     1       1.490   9.712  18.642  0.00  0.00    +0.000 C 
ATOM     19 CL   UNL     1      -0.233  10.055  18.381  0.00  0.00    +0.000 Cl
ENDBRANCH  17  18
ENDBRANCH  16  17
ENDBRANCH  13  16
TORSDOF 4
ENDMDL
MODEL 2
REMARK VINA RESULT:      -7.5      2.148      4.268
REMARK  Name = 
REMARK  4 active torsions:
REMARK  status: ('A' for Active; 'I' for Inactive)
REMARK    1  A    between atoms: C_2  and  C_3
REMARK    2  A    between atoms: N_15  and  C_16
REMARK    3  A    between atoms: C_16  and  C_17
REMARK    4  A    between atoms: C_17  and  C_18
REMARK                            x       y       z     vdW  Elec       q    Type
REMARK                         _______ _______ _______ _____ _____    ______ ____
ROOT
ATOM      1  C   UNL     1       5.338   5.266  16.378  0.00  0.00    +0.000 A 
ATOM      2  C   UNL     1       5.258   4.178  17.245  0.00  0.00    +0.000 A 
ATOM      3  C   UNL     1       4.444   4.231  18.382  0.00  0.00    +0.000 A 
ATOM      4  C   UNL     1       3.724   5.410  18.633  0.00  0.00    +0.000 A 
ATOM      5  C   UNL     1       3.787   6.507  17.769  0.00  0.00    +0.000 A 
ATOM      6  C   UNL     1       4.607   6.433  16.621  0.00  0.00    +0.000 A 
ATOM      7  C   UNL     1       2.915   7.516  18.281  0.00  0.00    +0.000 A 
ATOM      8  C   UNL     1       2.548   8.803  17.825  0.00  0.00    +0.000 A 
ATOM      9  C   UNL     1       1.626   9.560  18.553  0.00  0.00    +0.000 A 
ATOM     10  C   UNL     1       1.076   9.057  19.725  0.00  0.00    +0.000 A 
ATOM     11  C   UNL     1       1.428   7.791  20.201  0.00  0.00    +0.000 A 
ATOM     12  C   UNL     1       2.351   7.028  19.461  0.00  0.00    +0.000 A 
ATOM     13  N   UNL     1       2.867   5.760  19.666  0.00  0.00    +0.000 N 
ENDROOT
BRANCH   1  15
ATOM     14  O   UNL     1       7.384   5.487  15.208  0.00  0.00    +0.000 OA
ATOM     15  C   UNL     1       6.194   5.195  15.178  0.00  0.00    +0.000 C 
ENDBRANCH   1  15
BRANCH  13  16
ATOM     16  C   UNL     1       2.492   4.881  20.766  0.00  0.00    +0.000 C 
BRANCH  16  17
ATOM     17  C   UNL     1       1.232   4.038  20.541  0.00  0.00    +0.000 C 
BRANCH  17  18
ATOM     18  C   UNL     1       1.472   2.553  20.303  0.00  0.00    +0.000 C 
ATOM     19 CL   UNL     1       1.425   2.142  18.575  0.00  0.00    +0.000 Cl
ENDBRANCH  17  18
ENDBRANCH  16  17
ENDBRANCH  13  16
TORSDOF 4
ENDMDL
MODEL 3
REMARK VINA RESULT:      -7.3      0.885      1.062
REMARK  Name = 
REMARK  4 active torsions:
REMARK  status: ('A' for Active; 'I' for Inactive)
REMARK    1  A    between atoms: C_2  and  C_3
REMARK    2  A    between atoms: N_15  and  C_16
REMARK    3  A    between atoms: C_16  and  C_17
REMARK    4  A    between atoms: C_17  and  C_18
REMARK                            x       y       z     vdW  Elec       q    Type
REMARK                         _______ _______ _______ _____ _____    ______ ____
ROOT
ATOM      1  C   UNL     1       5.767   5.022  15.793  0.00  0.00    +0.000 A 
ATOM      2  C   UNL     1       5.574   6.374  16.068  0.00  0.00    +0.000 A 
ATOM      3  C   UNL     1       4.563   6.786  16.942  0.00  0.00    +0.000 A 
ATOM      4  C   UNL     1       3.740   5.806  17.521  0.00  0.00    +0.000 A 
ATOM      5  C   UNL     1       3.927   4.445  17.262  0.00  0.00    +0.000 A 
ATOM      6  C   UNL     1       4.959   4.046  16.384  0.00  0.00    +0.000 A 
ATOM      7  C   UNL     1       2.965   3.720  18.030  0.00  0.00    +0.000 A 
ATOM      8  C   UNL     1       2.700   2.342  18.200  0.00  0.00    +0.000 A 
ATOM      9  C   UNL     1       1.680   1.933  19.064  0.00  0.00    +0.000 A 
ATOM     10  C   UNL     1       0.923   2.874  19.751  0.00  0.00    +0.000 A 
ATOM     11  C   UNL     1       1.161   4.242  19.595  0.00  0.00    +0.000 A 
ATOM     12  C   UNL     1       2.193   4.650  18.730  0.00  0.00    +0.000 A 
ATOM     13  N   UNL     1       2.667   5.907  18.393  0.00  0.00    +0.000 N 
ENDROOT
BRANCH   1  15
ATOM     14  O   UNL     1       7.677   5.386  14.442  0.00  0.00    +0.000 OA
ATOM     15  C   UNL     1       6.843   4.599  14.875  0.00  0.00    +0.000 C 
ENDBRANCH   1  15
BRANCH  13  16
ATOM     16  C   UNL     1       2.165   7.157  18.950  0.00  0.00    +0.000 C 
BRANCH  16  17
ATOM     17  C   UNL     1       2.174   7.253  20.479  0.00  0.00    +0.000 C 
BRANCH  17  18
ATOM     18  C   UNL     1       1.068   8.107  21.087  0.00  0.00    +0.000 C 
ATOM     19 CL   UNL     1       0.907   9.670  20.261  0.00  0.00    +0.000 Cl
ENDBRANCH  17  18
ENDBRANCH  16  17
ENDBRANCH  13  16
TORSDOF 4
ENDMDL
MODEL 4
REMARK VINA RESULT:      -7.3      2.585      4.773
REMARK  Name = 
REMARK  4 active torsions:
REMARK  status: ('A' for Active; 'I' for Inactive)
REMARK    1  A    between atoms: C_2  and  C_3
REMARK    2  A    between atoms: N_15  and  C_16
REMARK    3  A    between atoms: C_16  and  C_17
REMARK    4  A    between atoms: C_17  and  C_18
REMARK                            x       y       z     vdW  Elec       q    Type
REMARK                         _______ _______ _______ _____ _____    ______ ____
ROOT
ATOM      1  C   UNL     1       1.963   3.719  20.392  0.00  0.00    +0.000 A 
ATOM      2  C   UNL     1       1.538   5.006  20.713  0.00  0.00    +0.000 A 
ATOM      3  C   UNL     1       1.974   6.107  19.970  0.00  0.00    +0.000 A 
ATOM      4  C   UNL     1       2.860   5.885  18.903  0.00  0.00    +0.000 A 
ATOM      5  C   UNL     1       3.289   4.599  18.562  0.00  0.00    +0.000 A 
ATOM      6  C   UNL     1       2.832   3.497  19.318  0.00  0.00    +0.000 A 
ATOM      7  C   UNL     1       4.139   4.712  17.420  0.00  0.00    +0.000 A 
ATOM      8  C   UNL     1       4.825   3.766  16.624  0.00  0.00    +0.000 A 
ATOM      9  C   UNL     1       5.576   4.197  15.527  0.00  0.00    +0.000 A 
ATOM     10  C   UNL     1       5.657   5.549  15.219  0.00  0.00    +0.000 A 
ATOM     11  C   UNL     1       4.994   6.504  15.995  0.00  0.00    +0.000 A 
ATOM     12  C   UNL     1       4.232   6.067  17.094  0.00  0.00    +0.000 A 
ATOM     13  N   UNL     1       3.466   6.761  18.015  0.00  0.00    +0.000 N 
ENDROOT
BRANCH   1  15
ATOM     14  O   UNL     1       1.592   2.521  22.400  0.00  0.00    +0.000 OA
ATOM     15  C   UNL     1       1.490   2.564  21.179  0.00  0.00    +0.000 C 
ENDBRANCH   1  15
BRANCH  13  16
ATOM     16  C   UNL     1       3.253   8.202  17.996  0.00  0.00    +0.000 C 
BRANCH  16  17
ATOM     17  C   UNL     1       1.835   8.659  17.641  0.00  0.00    +0.000 C 
BRANCH  17  18
ATOM     18  C   UNL     1       1.301   9.831  18.455  0.00  0.00    +0.000 C 
ATOM     19 CL   UNL     1      -0.432  10.097  18.175  0.00  0.00    +0.000 Cl
ENDBRANCH  17  18
ENDBRANCH  16  17
ENDBRANCH  13  16
TORSDOF 4
ENDMDL
MODEL 5
REMARK VINA RESULT:      -7.2      3.028      5.664
REMARK  Name = 
REMARK  4 active torsions:
REMARK  status: ('A' for Active; 'I' for Inactive)
REMARK    1  A    between atoms: C_2  and  C_3
REMARK    2  A    between atoms: N_15  and  C_16
REMARK    3  A    between atoms: C_16  and  C_17
REMARK    4  A    between atoms: C_17  and  C_18
REMARK                            x       y       z     vdW  Elec       q    Type
REMARK                         _______ _______ _______ _____ _____    ______ ____
ROOT
ATOM      1  C   UNL     1       2.088   8.213  18.892  0.00  0.00    +0.000 A 
ATOM      2  C   UNL     1       1.866   7.339  19.954  0.00  0.00    +0.000 A 
ATOM      3  C   UNL     1       2.476   6.081  19.982  0.00  0.00    +0.000 A 
ATOM      4  C   UNL     1       3.303   5.716  18.908  0.00  0.00    +0.000 A 
ATOM      5  C   UNL     1       3.544   6.585  17.839  0.00  0.00    +0.000 A 
ATOM      6  C   UNL     1       2.927   7.855  17.832  0.00  0.00    +0.000 A 
ATOM      7  C   UNL     1       4.451   5.936  16.946  0.00  0.00    +0.000 A 
ATOM      8  C   UNL     1       5.069   6.329  15.737  0.00  0.00    +0.000 A 
ATOM      9  C   UNL     1       5.953   5.458  15.095  0.00  0.00    +0.000 A 
ATOM     10  C   UNL     1       6.221   4.207  15.635  0.00  0.00    +0.000 A 
ATOM     11  C   UNL     1       5.617   3.792  16.825  0.00  0.00    +0.000 A 
ATOM     12  C   UNL     1       4.734   4.674  17.473  0.00  0.00    +0.000 A 
ATOM     13  N   UNL     1       4.015   4.554  18.651  0.00  0.00    +0.000 N 
ENDROOT
BRANCH   1  15
ATOM     14  O   UNL     1       0.545   9.822  18.096  0.00  0.00    +0.000 OA
ATOM     15  C   UNL     1       1.445   9.541  18.879  0.00  0.00    +0.000 C 
ENDBRANCH   1  15
BRANCH  13  16
ATOM     16  C   UNL     1       4.071   3.402  19.540  0.00  0.00    +0.000 C 
BRANCH  16  17
ATOM     17  C   UNL     1       3.088   2.271  19.225  0.00  0.00    +0.000 C 
BRANCH  17  18
ATOM     18  C   UNL     1       1.721   2.387  19.890  0.00  0.00    +0.000 C 
ATOM     19 CL   UNL     1       1.853   2.857  21.598  0.00  0.00    +0.000 Cl
ENDBRANCH  17  18
ENDBRANCH  16  17
ENDBRANCH  13  16
TORSDOF 4
ENDMDL
MODEL 6
REMARK VINA RESULT:      -7.0      3.877      5.890
REMARK  Name = 
REMARK  4 active torsions:
REMARK  status: ('A' for Active; 'I' for Inactive)
REMARK    1  A    between atoms: C_2  and  C_3
REMARK    2  A    between atoms: N_15  and  C_16
REMARK    3  A    between atoms: C_16  and  C_17
REMARK    4  A    between atoms: C_17  and  C_18
REMARK                            x       y       z     vdW  Elec       q    Type
REMARK                         _______ _______ _______ _____ _____    ______ ____
ROOT
ATOM      1  C   UNL     1       2.789   3.323  18.483  0.00  0.00    +0.000 A 
ATOM      2  C   UNL     1       3.618   3.676  19.545  0.00  0.00    +0.000 A 
ATOM      3  C   UNL     1       4.921   4.127  19.312  0.00  0.00    +0.000 A 
ATOM      4  C   UNL     1       5.376   4.200  17.985  0.00  0.00    +0.000 A 
ATOM      5  C   UNL     1       4.553   3.859  16.908  0.00  0.00    +0.000 A 
ATOM      6  C   UNL     1       3.236   3.414  17.161  0.00  0.00    +0.000 A 
ATOM      7  C   UNL     1       5.293   4.083  15.707  0.00  0.00    +0.000 A 
ATOM      8  C   UNL     1       4.977   3.951  14.335  0.00  0.00    +0.000 A 
ATOM      9  C   UNL     1       5.932   4.281  13.369  0.00  0.00    +0.000 A 
ATOM     10  C   UNL     1       7.189   4.732  13.750  0.00  0.00    +0.000 A 
ATOM     11  C   UNL     1       7.528   4.864  15.100  0.00  0.00    +0.000 A 
ATOM     12  C   UNL     1       6.562   4.538  16.070  0.00  0.00    +0.000 A 
ATOM     13  N   UNL     1       6.598   4.584  17.453  0.00  0.00    +0.000 N 
ENDROOT
BRANCH   1  15
ATOM     14  O   UNL     1       0.719   3.332  19.633  0.00  0.00    +0.000 OA
ATOM     15  C   UNL     1       1.413   2.856  18.741  0.00  0.00    +0.000 C 
ENDBRANCH   1  15
BRANCH  13  16
ATOM     16  C   UNL     1       7.731   5.057  18.236  0.00  0.00    +0.000 C 
BRANCH  16  17
ATOM     17  C   UNL     1       7.658   6.517  18.695  0.00  0.00    +0.000 C 
BRANCH  17  18
ATOM     18  C   UNL     1       7.660   7.555  17.580  0.00  0.00    +0.000 C 
ATOM     19 CL   UNL     1       8.354   9.100  18.113  0.00  0.00    +0.000 Cl
ENDBRANCH  17  18
ENDBRANCH  16  17
ENDBRANCH  13  16
TORSDOF 4
ENDMDL
MODEL 7
REMARK VINA RESULT:      -7.0      1.943      4.012
REMARK  Name = 
REMARK  4 active torsions:
REMARK  status: ('A' for Active; 'I' for Inactive)
REMARK    1  A    between atoms: C_2  and  C_3
REMARK    2  A    between atoms: N_15  and  C_16
REMARK    3  A    between atoms: C_16  and  C_17
REMARK    4  A    between atoms: C_17  and  C_18
REMARK                            x       y       z     vdW  Elec       q    Type
REMARK                         _______ _______ _______ _____ _____    ______ ____
ROOT
ATOM      1  C   UNL     1       6.055   4.929  15.174  0.00  0.00    +0.000 A 
ATOM      2  C   UNL     1       6.088   3.700  15.829  0.00  0.00    +0.000 A 
ATOM      3  C   UNL     1       5.369   3.504  17.013  0.00  0.00    +0.000 A 
ATOM      4  C   UNL     1       4.627   4.579  17.529  0.00  0.00    +0.000 A 
ATOM      5  C   UNL     1       4.576   5.815  16.879  0.00  0.00    +0.000 A 
ATOM      6  C   UNL     1       5.301   5.993  15.680  0.00  0.00    +0.000 A 
ATOM      7  C   UNL     1       3.711   6.668  17.630  0.00  0.00    +0.000 A 
ATOM      8  C   UNL     1       3.258   7.994  17.447  0.00  0.00    +0.000 A 
ATOM      9  C   UNL     1       2.371   8.558  18.368  0.00  0.00    +0.000 A 
ATOM     10  C   UNL     1       1.938   7.823  19.465  0.00  0.00    +0.000 A 
ATOM     11  C   UNL     1       2.377   6.513  19.672  0.00  0.00    +0.000 A 
ATOM     12  C   UNL     1       3.264   5.946  18.739  0.00  0.00    +0.000 A 
ATOM     13  N   UNL     1       3.845   4.690  18.669  0.00  0.00    +0.000 N 
ENDROOT
BRANCH   1  15
ATOM     14  O   UNL     1       7.948   5.580  13.910  0.00  0.00    +0.000 OA
ATOM     15  C   UNL     1       6.812   5.121  13.921  0.00  0.00    +0.000 C 
ENDBRANCH   1  15
BRANCH  13  16
ATOM     16  C   UNL     1       3.594   3.609  19.613  0.00  0.00    +0.000 C 
BRANCH  16  17
ATOM     17  C   UNL     1       2.804   2.418  19.063  0.00  0.00    +0.000 C 
BRANCH  17  18
ATOM     18  C   UNL     1       1.368   2.299  19.558  0.00  0.00    +0.000 C 
ATOM     19 CL   UNL     1       0.963   3.574  20.728  0.00  0.00    +0.000 Cl
ENDBRANCH  17  18
ENDBRANCH  16  17
ENDBRANCH  13  16
TORSDOF 4
ENDMDL
MODEL 8
REMARK VINA RESULT:      -6.9      3.078      5.655
REMARK  Name = 
REMARK  4 active torsions:
REMARK  status: ('A' for Active; 'I' for Inactive)
REMARK    1  A    between atoms: C_2  and  C_3
REMARK    2  A    between atoms: N_15  and  C_16
REMARK    3  A    between atoms: C_16  and  C_17
REMARK    4  A    between atoms: C_17  and  C_18
REMARK                            x       y       z     vdW  Elec       q    Type
REMARK                         _______ _______ _______ _____ _____    ______ ____
ROOT
ATOM      1  C   UNL     1       1.544   9.654  18.931  0.00  0.00    +0.000 A 
ATOM      2  C   UNL     1       1.060   9.094  20.112  0.00  0.00    +0.000 A 
ATOM      3  C   UNL     1       1.409   7.790  20.478  0.00  0.00    +0.000 A 
ATOM      4  C   UNL     1       2.244   7.056  19.620  0.00  0.00    +0.000 A 
ATOM      5  C   UNL     1       2.745   7.607  18.436  0.00  0.00    +0.000 A 
ATOM      6  C   UNL     1       2.390   8.928  18.087  0.00  0.00    +0.000 A 
ATOM      7  C   UNL     1       3.587   6.629  17.823  0.00  0.00    +0.000 A 
ATOM      8  C   UNL     1       4.377   6.627  16.651  0.00  0.00    +0.000 A 
ATOM      9  C   UNL     1       5.130   5.496  16.323  0.00  0.00    +0.000 A 
ATOM     10  C   UNL     1       5.099   4.373  17.140  0.00  0.00    +0.000 A 
ATOM     11  C   UNL     1       4.320   4.347  18.300  0.00  0.00    +0.000 A 
ATOM     12  C   UNL     1       3.570   5.489  18.631  0.00  0.00    +0.000 A 
ATOM     13  N   UNL     1       2.737   5.763  19.703  0.00  0.00    +0.000 N 
ENDROOT
BRANCH   1  15
ATOM     14  O   UNL     1       2.014  11.916  18.413  0.00  0.00    +0.000 OA
ATOM     15  C   UNL     1       1.175  11.034  18.561  0.00  0.00    +0.000 C 
ENDBRANCH   1  15
BRANCH  13  16
ATOM     16  C   UNL     1       2.487   4.850  20.810  0.00  0.00    +0.000 C 
BRANCH  16  17
ATOM     17  C   UNL     1       1.236   3.976  20.681  0.00  0.00    +0.000 C 
BRANCH  17  18
ATOM     18  C   UNL     1       1.486   2.532  20.263  0.00  0.00    +0.000 C 
ATOM     19 CL   UNL     1       1.213   2.288  18.525  0.00  0.00    +0.000 Cl
ENDBRANCH  17  18
ENDBRANCH  16  17
ENDBRANCH  13  16
TORSDOF 4
ENDMDL
MODEL 9
REMARK VINA RESULT:      -6.9      3.414      5.104
REMARK  Name = 
REMARK  4 active torsions:
REMARK  status: ('A' for Active; 'I' for Inactive)
REMARK    1  A    between atoms: C_2  and  C_3
REMARK    2  A    between atoms: N_15  and  C_16
REMARK    3  A    between atoms: C_16  and  C_17
REMARK    4  A    between atoms: C_17  and  C_18
REMARK                            x       y       z     vdW  Elec       q    Type
REMARK                         _______ _______ _______ _____ _____    ______ ____
ROOT
ATOM      1  C   UNL     1       2.221   8.355  18.280  0.00  0.00    +0.000 A 
ATOM      2  C   UNL     1       3.295   8.215  17.403  0.00  0.00    +0.000 A 
ATOM      3  C   UNL     1       4.076   7.055  17.413  0.00  0.00    +0.000 A 
ATOM      4  C   UNL     1       3.760   6.045  18.336  0.00  0.00    +0.000 A 
ATOM      5  C   UNL     1       2.681   6.166  19.216  0.00  0.00    +0.000 A 
ATOM      6  C   UNL     1       1.897   7.341  19.187  0.00  0.00    +0.000 A 
ATOM      7  C   UNL     1       2.606   4.963  19.982  0.00  0.00    +0.000 A 
ATOM      8  C   UNL     1       1.718   4.504  20.983  0.00  0.00    +0.000 A 
ATOM      9  C   UNL     1       1.897   3.235  21.539  0.00  0.00    +0.000 A 
ATOM     10  C   UNL     1       2.945   2.426  21.119  0.00  0.00    +0.000 A 
ATOM     11  C   UNL     1       3.840   2.859  20.137  0.00  0.00    +0.000 A 
ATOM     12  C   UNL     1       3.653   4.135  19.573  0.00  0.00    +0.000 A 
ATOM     13  N   UNL     1       4.351   4.816  18.590  0.00  0.00    +0.000 N 
ENDROOT
BRANCH   1  15
ATOM     14  O   UNL     1       0.581   9.836  19.130  0.00  0.00    +0.000 OA
ATOM     15  C   UNL     1       1.400   9.581  18.254  0.00  0.00    +0.000 C 
ENDBRANCH   1  15
BRANCH  13  16
ATOM     16  C   UNL     1       5.490   4.276  17.859  0.00  0.00    +0.000 C 
BRANCH  16  17
ATOM     17  C   UNL     1       5.202   3.810  16.429  0.00  0.00    +0.000 C 
BRANCH  17  18
ATOM     18  C   UNL     1       6.304   4.088  15.415  0.00  0.00    +0.000 C 
ATOM     19 CL   UNL     1       5.704   4.008  13.745  0.00  0.00    +0.000 Cl
ENDBRANCH  17  18
ENDBRANCH  16  17
ENDBRANCH  13  16
TORSDOF 4
ENDMDL
