MODEL 1
REMARK VINA RESULT:      -6.6      0.000      0.000
REMARK  Name = 
REMARK  8 active torsions:
REMARK  status: ('A' for Active; 'I' for Inactive)
REMARK    1  A    between atoms: C_1  and  C_2
REMARK    2  A    between atoms: C_2  and  N_3
REMARK    3  A    between atoms: N_3  and  C_4
REMARK    4  A    between atoms: C_4  and  C_5
REMARK    5  A    between atoms: C_6  and  C_8
REMARK    6  A    between atoms: N_11  and  C_12
REMARK    7  A    between atoms: C_12  and  O_13
REMARK    8  A    between atoms: O_13  and  C_14
REMARK                            x       y       z     vdW  Elec       q    Type
REMARK                         _______ _______ _______ _____ _____    ______ ____
ROOT
ATOM      1  C   UNL     1       6.469   5.046  14.973  0.00  0.00    +0.000 A 
ATOM      2  C   UNL     1       6.548   4.125  16.055  0.00  0.00    +0.000 A 
ATOM      3  C   UNL     1       5.792   4.667  17.069  0.00  0.00    +0.000 A 
ATOM      4  N   UNL     1       5.278   5.827  16.571  0.00  0.00    +0.000 N 
ATOM      5  N   UNL     1       5.661   6.073  15.304  0.00  0.00    +0.000 NA
ENDROOT
BRANCH   1   7
ATOM      6  N   UNL     1       6.567   4.081  12.661  0.00  0.00    +0.000 N 
ATOM      7  C   UNL     1       7.145   4.905  13.657  0.00  0.00    +0.000 C 
ATOM      8  O   UNL     1       8.188   5.534  13.438  0.00  0.00    +0.000 OA
BRANCH   6  10
ATOM      9  C   UNL     1       7.442   2.334  11.116  0.00  0.00    +0.000 C 
ATOM     10  C   UNL     1       7.366   3.813  11.465  0.00  0.00    +0.000 C 
ENDBRANCH   6  10
BRANCH   6  11
ATOM     11  C   UNL     1       5.260   3.441  12.852  0.00  0.00    +0.000 C 
ATOM     12  C   UNL     1       4.306   3.350  11.674  0.00  0.00    +0.000 C 
ENDBRANCH   6  11
ENDBRANCH   1   7
BRANCH   4  13
ATOM     13  C   UNL     1       4.553   6.861  17.309  0.00  0.00    +0.000 C 
BRANCH  13  14
ATOM     14  O   UNL     1       3.156   6.580  17.264  0.00  0.00    +0.000 OA
BRANCH  14  15
ATOM     15  C   UNL     1       2.594   6.112  18.428  0.00  0.00    +0.000 A 
ATOM     16  C   UNL     1       2.380   6.905  19.563  0.00  0.00    +0.000 A 
ATOM     17  C   UNL     1       1.783   6.369  20.707  0.00  0.00    +0.000 A 
ATOM     18  C   UNL     1       1.382   5.035  20.725  0.00  0.00    +0.000 A 
ATOM     19  C   UNL     1       1.575   4.232  19.598  0.00  0.00    +0.000 A 
ATOM     20 CL   UNL     1       1.046   2.588  19.703  0.00  0.00    +0.000 Cl
ATOM     21  C   UNL     1       2.176   4.764  18.446  0.00  0.00    +0.000 A 
ATOM     22 CL   UNL     1       2.436   3.773  17.043  0.00  0.00    +0.000 Cl
ENDBRANCH  14  15
ENDBRANCH  13  14
ENDBRANCH   4  13
TORSDOF 6
ENDMDL
MODEL 2
REMARK VINA RESULT:      -6.6      1.537      1.732
REMARK  Name = 
REMARK  8 active torsions:
REMARK  status: ('A' for Active; 'I' for Inactive)
REMARK    1  A    between atoms: C_1  and  C_2
REMARK    2  A    between atoms: C_2  and  N_3
REMARK    3  A    between atoms: N_3  and  C_4
REMARK    4  A    between atoms: C_4  and  C_5
REMARK    5  A    between atoms: C_6  and  C_8
REMARK    6  A    between atoms: N_11  and  C_12
REMARK    7  A    between atoms: C_12  and  O_13
REMARK    8  A    between atoms: O_13  and  C_14
REMARK                            x       y       z     vdW  Elec       q    Type
REMARK                         _______ _______ _______ _____ _____    ______ ____
ROOT
ATOM      1  C   UNL     1       6.569   5.177  14.962  0.00  0.00    +0.000 A 
ATOM      2  C   UNL     1       5.334   5.860  15.142  0.00  0.00    +0.000 A 
ATOM      3  C   UNL     1       5.096   5.862  16.497  0.00  0.00    +0.000 A 
ATOM      4  N   UNL     1       6.168   5.239  17.064  0.00  0.00    +0.000 N 
ATOM      5  N   UNL     1       7.077   4.827  16.161  0.00  0.00    +0.000 NA
ENDROOT
BRANCH   1   7
ATOM      6  N   UNL     1       6.611   4.039  12.729  0.00  0.00    +0.000 N 
ATOM      7  C   UNL     1       7.233   4.903  13.661  0.00  0.00    +0.000 C 
ATOM      8  O   UNL     1       8.308   5.458  13.398  0.00  0.00    +0.000 OA
BRANCH   6  10
ATOM      9  C   UNL     1       7.379   2.139  11.312  0.00  0.00    +0.000 C 
ATOM     10  C   UNL     1       7.392   3.641  11.557  0.00  0.00    +0.000 C 
ENDBRANCH   6  10
BRANCH   6  11
ATOM     11  C   UNL     1       5.272   3.485  12.964  0.00  0.00    +0.000 C 
ATOM     12  C   UNL     1       4.300   3.389  11.801  0.00  0.00    +0.000 C 
ENDBRANCH   6  11
ENDBRANCH   1   7
BRANCH   4  13
ATOM     13  C   UNL     1       6.315   4.829  18.460  0.00  0.00    +0.000 C 
BRANCH  13  14
ATOM     14  O   UNL     1       5.465   3.713  18.715  0.00  0.00    +0.000 OA
BRANCH  14  15
ATOM     15  C   UNL     1       4.189   4.005  19.135  0.00  0.00    +0.000 A 
ATOM     16  C   UNL     1       3.845   5.177  19.822  0.00  0.00    +0.000 A 
ATOM     17  C   UNL     1       2.522   5.419  20.202  0.00  0.00    +0.000 A 
ATOM     18  C   UNL     1       1.526   4.497  19.889  0.00  0.00    +0.000 A 
ATOM     19  C   UNL     1       1.848   3.329  19.193  0.00  0.00    +0.000 A 
ATOM     20 CL   UNL     1       0.551   2.239  18.841  0.00  0.00    +0.000 Cl
ATOM     21  C   UNL     1       3.176   3.079  18.810  0.00  0.00    +0.000 A 
ATOM     22 CL   UNL     1       3.592   1.623  17.958  0.00  0.00    +0.000 Cl
ENDBRANCH  14  15
ENDBRANCH  13  14
ENDBRANCH   4  13
TORSDOF 6
ENDMDL
MODEL 3
REMARK VINA RESULT:      -6.3      1.483      2.119
REMARK  Name = 
REMARK  8 active torsions:
REMARK  status: ('A' for Active; 'I' for Inactive)
REMARK    1  A    between atoms: C_1  and  C_2
REMARK    2  A    between atoms: C_2  and  N_3
REMARK    3  A    between atoms: N_3  and  C_4
REMARK    4  A    between atoms: C_4  and  C_5
REMARK    5  A    between atoms: C_6  and  C_8
REMARK    6  A    between atoms: N_11  and  C_12
REMARK    7  A    between atoms: C_12  and  O_13
REMARK    8  A    between atoms: O_13  and  C_14
REMARK                            x       y       z     vdW  Elec       q    Type
REMARK                         _______ _______ _______ _____ _____    ______ ____
ROOT
ATOM      1  C   UNL     1       6.527   5.049  15.662  0.00  0.00    +0.000 A 
ATOM      2  C   UNL     1       6.927   4.285  16.794  0.00  0.00    +0.000 A 
ATOM      3  C   UNL     1       6.047   4.610  17.800  0.00  0.00    +0.000 A 
ATOM      4  N   UNL     1       5.164   5.493  17.252  0.00  0.00    +0.000 N 
ATOM      5  N   UNL     1       5.424   5.765  15.959  0.00  0.00    +0.000 NA
ENDROOT
BRANCH   1   7
ATOM      6  N   UNL     1       6.601   4.348  13.256  0.00  0.00    +0.000 N 
ATOM      7  C   UNL     1       7.191   5.053  14.333  0.00  0.00    +0.000 C 
ATOM      8  O   UNL     1       8.237   5.696  14.177  0.00  0.00    +0.000 OA
BRANCH   6  10
ATOM      9  C   UNL     1       7.475   5.503  11.229  0.00  0.00    +0.000 C 
ATOM     10  C   UNL     1       7.389   4.212  12.030  0.00  0.00    +0.000 C 
ENDBRANCH   6  10
BRANCH   6  11
ATOM     11  C   UNL     1       5.292   3.699  13.384  0.00  0.00    +0.000 C 
ATOM     12  C   UNL     1       4.543   3.295  12.125  0.00  0.00    +0.000 C 
ENDBRANCH   6  11
ENDBRANCH   1   7
BRANCH   4  13
ATOM     13  C   UNL     1       4.144   6.272  17.953  0.00  0.00    +0.000 C 
BRANCH  13  14
ATOM     14  O   UNL     1       2.853   5.779  17.602  0.00  0.00    +0.000 OA
BRANCH  14  15
ATOM     15  C   UNL     1       2.547   4.513  18.042  0.00  0.00    +0.000 A 
ATOM     16  C   UNL     1       2.680   3.361  17.256  0.00  0.00    +0.000 A 
ATOM     17  C   UNL     1       2.370   2.102  17.774  0.00  0.00    +0.000 A 
ATOM     18  C   UNL     1       1.933   1.978  19.091  0.00  0.00    +0.000 A 
ATOM     19  C   UNL     1       1.805   3.114  19.895  0.00  0.00    +0.000 A 
ATOM     20 CL   UNL     1       1.259   2.871  21.519  0.00  0.00    +0.000 Cl
ATOM     21  C   UNL     1       2.114   4.383  19.379  0.00  0.00    +0.000 A 
ATOM     22 CL   UNL     1       1.945   5.804  20.363  0.00  0.00    +0.000 Cl
ENDBRANCH  14  15
ENDBRANCH  13  14
ENDBRANCH   4  13
TORSDOF 6
ENDMDL
MODEL 4
REMARK VINA RESULT:      -6.3      6.067      8.083
REMARK  Name = 
REMARK  8 active torsions:
REMARK  status: ('A' for Active; 'I' for Inactive)
REMARK    1  A    between atoms: C_1  and  C_2
REMARK    2  A    between atoms: C_2  and  N_3
REMARK    3  A    between atoms: N_3  and  C_4
REMARK    4  A    between atoms: C_4  and  C_5
REMARK    5  A    between atoms: C_6  and  C_8
REMARK    6  A    between atoms: N_11  and  C_12
REMARK    7  A    between atoms: C_12  and  O_13
REMARK    8  A    between atoms: O_13  and  C_14
REMARK                            x       y       z     vdW  Elec       q    Type
REMARK                         _______ _______ _______ _____ _____    ______ ____
ROOT
ATOM      1  C   UNL     1       6.417   6.164  17.582  0.00  0.00    +0.000 A 
ATOM      2  C   UNL     1       7.409   5.740  18.511  0.00  0.00    +0.000 A 
ATOM      3  C   UNL     1       8.214   6.834  18.731  0.00  0.00    +0.000 A 
ATOM      4  N   UNL     1       7.681   7.844  17.986  0.00  0.00    +0.000 N 
ATOM      5  N   UNL     1       6.589   7.470  17.294  0.00  0.00    +0.000 NA
ENDROOT
BRANCH   1   7
ATOM      6  N   UNL     1       4.166   5.081  17.792  0.00  0.00    +0.000 N 
ATOM      7  C   UNL     1       5.330   5.321  17.022  0.00  0.00    +0.000 C 
ATOM      8  O   UNL     1       5.443   4.863  15.877  0.00  0.00    +0.000 OA
BRANCH   6  10
ATOM      9  C   UNL     1       3.530   2.672  17.755  0.00  0.00    +0.000 C 
ATOM     10  C   UNL     1       3.219   4.086  17.286  0.00  0.00    +0.000 C 
ENDBRANCH   6  10
BRANCH   6  11
ATOM     11  C   UNL     1       3.953   5.729  19.091  0.00  0.00    +0.000 C 
ATOM     12  C   UNL     1       2.682   5.427  19.866  0.00  0.00    +0.000 C 
ENDBRANCH   6  11
ENDBRANCH   1   7
BRANCH   4  13
ATOM     13  C   UNL     1       8.267   9.160  17.735  0.00  0.00    +0.000 C 
BRANCH  13  14
ATOM     14  O   UNL     1       8.821   9.668  18.947  0.00  0.00    +0.000 OA
BRANCH  14  15
ATOM     15  C   UNL     1       9.516  10.850  18.848  0.00  0.00    +0.000 A 
ATOM     16  C   UNL     1      10.123  11.300  17.668  0.00  0.00    +0.000 A 
ATOM     17  C   UNL     1      10.798  12.523  17.633  0.00  0.00    +0.000 A 
ATOM     18  C   UNL     1      10.862  13.317  18.776  0.00  0.00    +0.000 A 
ATOM     19  C   UNL     1      10.250  12.891  19.958  0.00  0.00    +0.000 A 
ATOM     20 CL   UNL     1      10.375  13.938  21.330  0.00  0.00    +0.000 Cl
ATOM     21  C   UNL     1       9.573  11.662  20.001  0.00  0.00    +0.000 A 
ATOM     22 CL   UNL     1       8.822  11.114  21.468  0.00  0.00    +0.000 Cl
ENDBRANCH  14  15
ENDBRANCH  13  14
ENDBRANCH   4  13
TORSDOF 6
ENDMDL
MODEL 5
REMARK VINA RESULT:      -6.3      5.144      6.996
REMARK  Name = 
REMARK  8 active torsions:
REMARK  status: ('A' for Active; 'I' for Inactive)
REMARK    1  A    between atoms: C_1  and  C_2
REMARK    2  A    between atoms: C_2  and  N_3
REMARK    3  A    between atoms: N_3  and  C_4
REMARK    4  A    between atoms: C_4  and  C_5
REMARK    5  A    between atoms: C_6  and  C_8
REMARK    6  A    between atoms: N_11  and  C_12
REMARK    7  A    between atoms: C_12  and  O_13
REMARK    8  A    between atoms: O_13  and  C_14
REMARK                            x       y       z     vdW  Elec       q    Type
REMARK                         _______ _______ _______ _____ _____    ______ ____
ROOT
ATOM      1  C   UNL     1       2.846   6.648  19.192  0.00  0.00    +0.000 A 
ATOM      2  C   UNL     1       2.223   6.993  20.424  0.00  0.00    +0.000 A 
ATOM      3  C   UNL     1       1.569   8.182  20.198  0.00  0.00    +0.000 A 
ATOM      4  N   UNL     1       1.783   8.482  18.885  0.00  0.00    +0.000 N 
ATOM      5  N   UNL     1       2.540   7.565  18.252  0.00  0.00    +0.000 NA
ENDROOT
BRANCH   1   7
ATOM      6  N   UNL     1       3.073   4.184  18.791  0.00  0.00    +0.000 N 
ATOM      7  C   UNL     1       3.688   5.449  18.946  0.00  0.00    +0.000 C 
ATOM      8  O   UNL     1       4.916   5.577  18.850  0.00  0.00    +0.000 OA
BRANCH   6  10
ATOM      9  C   UNL     1       3.239   1.753  18.272  0.00  0.00    +0.000 C 
ATOM     10  C   UNL     1       3.948   3.011  18.754  0.00  0.00    +0.000 C 
ENDBRANCH   6  10
BRANCH   6  11
ATOM     11  C   UNL     1       1.613   4.035  18.759  0.00  0.00    +0.000 C 
ATOM     12  C   UNL     1       0.882   3.666  20.038  0.00  0.00    +0.000 C 
ENDBRANCH   6  11
ENDBRANCH   1   7
BRANCH   4  13
ATOM     13  C   UNL     1       1.451   9.728  18.198  0.00  0.00    +0.000 C 
BRANCH  13  14
ATOM     14  O   UNL     1       0.098   9.673  17.752  0.00  0.00    +0.000 OA
BRANCH  14  15
ATOM     15  C   UNL     1      -0.787  10.509  18.392  0.00  0.00    +0.000 A 
ATOM     16  C   UNL     1      -0.475  11.232  19.550  0.00  0.00    +0.000 A 
ATOM     17  C   UNL     1      -1.417  12.080  20.138  0.00  0.00    +0.000 A 
ATOM     18  C   UNL     1      -2.679  12.224  19.566  0.00  0.00    +0.000 A 
ATOM     19  C   UNL     1      -3.004  11.521  18.402  0.00  0.00    +0.000 A 
ATOM     20 CL   UNL     1      -4.591  11.759  17.755  0.00  0.00    +0.000 Cl
ATOM     21  C   UNL     1      -2.062  10.666  17.808  0.00  0.00    +0.000 A 
ATOM     22 CL   UNL     1      -2.458   9.774  16.371  0.00  0.00    +0.000 Cl
ENDBRANCH  14  15
ENDBRANCH  13  14
ENDBRANCH   4  13
TORSDOF 6
ENDMDL
MODEL 6
REMARK VINA RESULT:      -6.3      6.668      8.349
REMARK  Name = 
REMARK  8 active torsions:
REMARK  status: ('A' for Active; 'I' for Inactive)
REMARK    1  A    between atoms: C_1  and  C_2
REMARK    2  A    between atoms: C_2  and  N_3
REMARK    3  A    between atoms: N_3  and  C_4
REMARK    4  A    between atoms: C_4  and  C_5
REMARK    5  A    between atoms: C_6  and  C_8
REMARK    6  A    between atoms: N_11  and  C_12
REMARK    7  A    between atoms: C_12  and  O_13
REMARK    8  A    between atoms: O_13  and  C_14
REMARK                            x       y       z     vdW  Elec       q    Type
REMARK                         _______ _______ _______ _____ _____    ______ ____
ROOT
ATOM      1  C   UNL     1       7.331   6.779  17.448  0.00  0.00    +0.000 A 
ATOM      2  C   UNL     1       7.984   6.417  18.659  0.00  0.00    +0.000 A 
ATOM      3  C   UNL     1       8.562   7.570  19.138  0.00  0.00    +0.000 A 
ATOM      4  N   UNL     1       8.222   8.551  18.256  0.00  0.00    +0.000 N 
ATOM      5  N   UNL     1       7.468   8.103  17.233  0.00  0.00    +0.000 NA
ENDROOT
BRANCH   1   7
ATOM      6  N   UNL     1       5.275   5.449  16.912  0.00  0.00    +0.000 N 
ATOM      7  C   UNL     1       6.581   5.861  16.553  0.00  0.00    +0.000 C 
ATOM      8  O   UNL     1       7.097   5.491  15.490  0.00  0.00    +0.000 OA
BRANCH   6  10
ATOM      9  C   UNL     1       4.154   3.225  16.943  0.00  0.00    +0.000 C 
ATOM     10  C   UNL     1       4.659   4.393  16.108  0.00  0.00    +0.000 C 
ENDBRANCH   6  10
BRANCH   6  11
ATOM     11  C   UNL     1       4.594   5.988  18.095  0.00  0.00    +0.000 C 
ATOM     12  C   UNL     1       3.253   6.680  17.922  0.00  0.00    +0.000 C 
ENDBRANCH   6  11
ENDBRANCH   1   7
BRANCH   4  13
ATOM     13  C   UNL     1       8.733   9.921  18.216  0.00  0.00    +0.000 C 
BRANCH  13  14
ATOM     14  O   UNL     1       9.569  10.143  19.349  0.00  0.00    +0.000 OA
BRANCH  14  15
ATOM     15  C   UNL     1      10.288  11.315  19.352  0.00  0.00    +0.000 A 
ATOM     16  C   UNL     1      11.253  11.638  18.389  0.00  0.00    +0.000 A 
ATOM     17  C   UNL     1      11.933  12.857  18.441  0.00  0.00    +0.000 A 
ATOM     18  C   UNL     1      11.647  13.774  19.450  0.00  0.00    +0.000 A 
ATOM     19  C   UNL     1      10.678  13.475  20.411  0.00  0.00    +0.000 A 
ATOM     20 CL   UNL     1      10.381  14.669  21.628  0.00  0.00    +0.000 Cl
ATOM     21  C   UNL     1       9.992  12.251  20.366  0.00  0.00    +0.000 A 
ATOM     22 CL   UNL     1       8.797  11.860  21.564  0.00  0.00    +0.000 Cl
ENDBRANCH  14  15
ENDBRANCH  13  14
ENDBRANCH   4  13
TORSDOF 6
ENDMDL
MODEL 7
REMARK VINA RESULT:      -6.2      4.108      5.693
REMARK  Name = 
REMARK  8 active torsions:
REMARK  status: ('A' for Active; 'I' for Inactive)
REMARK    1  A    between atoms: C_1  and  C_2
REMARK    2  A    between atoms: C_2  and  N_3
REMARK    3  A    between atoms: N_3  and  C_4
REMARK    4  A    between atoms: C_4  and  C_5
REMARK    5  A    between atoms: C_6  and  C_8
REMARK    6  A    between atoms: N_11  and  C_12
REMARK    7  A    between atoms: C_12  and  O_13
REMARK    8  A    between atoms: O_13  and  C_14
REMARK                            x       y       z     vdW  Elec       q    Type
REMARK                         _______ _______ _______ _____ _____    ______ ____
ROOT
ATOM      1  C   UNL     1       3.901   5.556  18.081  0.00  0.00    +0.000 A 
ATOM      2  C   UNL     1       3.455   5.229  19.392  0.00  0.00    +0.000 A 
ATOM      3  C   UNL     1       2.608   6.245  19.769  0.00  0.00    +0.000 A 
ATOM      4  N   UNL     1       2.549   7.094  18.704  0.00  0.00    +0.000 N 
ATOM      5  N   UNL     1       3.310   6.695  17.667  0.00  0.00    +0.000 NA
ENDROOT
BRANCH   1   7
ATOM      6  N   UNL     1       6.227   5.105  17.261  0.00  0.00    +0.000 N 
ATOM      7  C   UNL     1       4.853   4.763  17.261  0.00  0.00    +0.000 C 
ATOM      8  O   UNL     1       4.437   3.796  16.610  0.00  0.00    +0.000 OA
BRANCH   6  10
ATOM      9  C   UNL     1       6.910   4.955  14.870  0.00  0.00    +0.000 C 
ATOM     10  C   UNL     1       7.087   4.431  16.288  0.00  0.00    +0.000 C 
ENDBRANCH   6  10
BRANCH   6  11
ATOM     11  C   UNL     1       6.760   6.158  18.134  0.00  0.00    +0.000 C 
ATOM     12  C   UNL     1       7.433   7.365  17.505  0.00  0.00    +0.000 C 
ENDBRANCH   6  11
ENDBRANCH   1   7
BRANCH   4  13
ATOM     13  C   UNL     1       1.927   8.417  18.662  0.00  0.00    +0.000 C 
BRANCH  13  14
ATOM     14  O   UNL     1       1.505   8.781  19.974  0.00  0.00    +0.000 OA
BRANCH  14  15
ATOM     15  C   UNL     1       0.610   9.822  20.057  0.00  0.00    +0.000 A 
ATOM     16  C   UNL     1       0.145  10.539  18.948  0.00  0.00    +0.000 A 
ATOM     17  C   UNL     1      -0.780  11.574  19.103  0.00  0.00    +0.000 A 
ATOM     18  C   UNL     1      -1.261  11.896  20.370  0.00  0.00    +0.000 A 
ATOM     19  C   UNL     1      -0.818  11.183  21.488  0.00  0.00    +0.000 A 
ATOM     20 CL   UNL     1      -1.466  11.645  23.024  0.00  0.00    +0.000 Cl
ATOM     21  C   UNL     1       0.114  10.143  21.338  0.00  0.00    +0.000 A 
ATOM     22 CL   UNL     1       0.684   9.259  22.721  0.00  0.00    +0.000 Cl
ENDBRANCH  14  15
ENDBRANCH  13  14
ENDBRANCH   4  13
TORSDOF 6
ENDMDL
MODEL 8
REMARK VINA RESULT:      -6.2      5.142      8.207
REMARK  Name = 
REMARK  8 active torsions:
REMARK  status: ('A' for Active; 'I' for Inactive)
REMARK    1  A    between atoms: C_1  and  C_2
REMARK    2  A    between atoms: C_2  and  N_3
REMARK    3  A    between atoms: N_3  and  C_4
REMARK    4  A    between atoms: C_4  and  C_5
REMARK    5  A    between atoms: C_6  and  C_8
REMARK    6  A    between atoms: N_11  and  C_12
REMARK    7  A    between atoms: C_12  and  O_13
REMARK    8  A    between atoms: O_13  and  C_14
REMARK                            x       y       z     vdW  Elec       q    Type
REMARK                         _______ _______ _______ _____ _____    ______ ____
ROOT
ATOM      1  C   UNL     1       0.604   9.724  19.474  0.00  0.00    +0.000 A 
ATOM      2  C   UNL     1       0.559   9.236  20.811  0.00  0.00    +0.000 A 
ATOM      3  C   UNL     1       1.437   8.178  20.858  0.00  0.00    +0.000 A 
ATOM      4  N   UNL     1       1.983   8.092  19.612  0.00  0.00    +0.000 N 
ATOM      5  N   UNL     1       1.507   9.021  18.761  0.00  0.00    +0.000 NA
ENDROOT
BRANCH   1   7
ATOM      6  N   UNL     1       0.413  12.124  18.777  0.00  0.00    +0.000 N 
ATOM      7  C   UNL     1      -0.192  10.854  18.931  0.00  0.00    +0.000 C 
ATOM      8  O   UNL     1      -1.367  10.662  18.591  0.00  0.00    +0.000 OA
BRANCH   6  10
ATOM      9  C   UNL     1      -0.867  14.079  19.640  0.00  0.00    +0.000 C 
ATOM     10  C   UNL     1      -0.460  13.247  18.432  0.00  0.00    +0.000 C 
ENDBRANCH   6  10
BRANCH   6  11
ATOM     11  C   UNL     1       1.841  12.335  19.040  0.00  0.00    +0.000 C 
ATOM     12  C   UNL     1       2.585  13.402  18.256  0.00  0.00    +0.000 C 
ENDBRANCH   6  11
ENDBRANCH   1   7
BRANCH   4  13
ATOM     13  C   UNL     1       2.839   7.025  19.094  0.00  0.00    +0.000 C 
BRANCH  13  14
ATOM     14  O   UNL     1       2.027   6.030  18.475  0.00  0.00    +0.000 OA
BRANCH  14  15
ATOM     15  C   UNL     1       1.990   4.804  19.097  0.00  0.00    +0.000 A 
ATOM     16  C   UNL     1       1.205   4.526  20.223  0.00  0.00    +0.000 A 
ATOM     17  C   UNL     1       1.199   3.251  20.794  0.00  0.00    +0.000 A 
ATOM     18  C   UNL     1       1.970   2.234  20.236  0.00  0.00    +0.000 A 
ATOM     19  C   UNL     1       2.750   2.488  19.104  0.00  0.00    +0.000 A 
ATOM     20 CL   UNL     1       3.675   1.170  18.473  0.00  0.00    +0.000 Cl
ATOM     21  C   UNL     1       2.762   3.769  18.527  0.00  0.00    +0.000 A 
ATOM     22 CL   UNL     1       3.738   4.103  17.130  0.00  0.00    +0.000 Cl
ENDBRANCH  14  15
ENDBRANCH  13  14
ENDBRANCH   4  13
TORSDOF 6
ENDMDL
MODEL 9
REMARK VINA RESULT:      -6.2      5.385      7.213
REMARK  Name = 
REMARK  8 active torsions:
REMARK  status: ('A' for Active; 'I' for Inactive)
REMARK    1  A    between atoms: C_1  and  C_2
REMARK    2  A    between atoms: C_2  and  N_3
REMARK    3  A    between atoms: N_3  and  C_4
REMARK    4  A    between atoms: C_4  and  C_5
REMARK    5  A    between atoms: C_6  and  C_8
REMARK    6  A    between atoms: N_11  and  C_12
REMARK    7  A    between atoms: C_12  and  O_13
REMARK    8  A    between atoms: O_13  and  C_14
REMARK                            x       y       z     vdW  Elec       q    Type
REMARK                         _______ _______ _______ _____ _____    ______ ____
ROOT
ATOM      1  C   UNL     1       2.774   6.600  19.260  0.00  0.00    +0.000 A 
ATOM      2  C   UNL     1       2.147   7.037  20.460  0.00  0.00    +0.000 A 
ATOM      3  C   UNL     1       1.548   8.239  20.159  0.00  0.00    +0.000 A 
ATOM      4  N   UNL     1       1.795   8.456  18.836  0.00  0.00    +0.000 N 
ATOM      5  N   UNL     1       2.521   7.476  18.266  0.00  0.00    +0.000 NA
ENDROOT
BRANCH   1   7
ATOM      6  N   UNL     1       2.906   4.104  19.066  0.00  0.00    +0.000 N 
ATOM      7  C   UNL     1       3.568   5.355  19.094  0.00  0.00    +0.000 C 
ATOM      8  O   UNL     1       4.796   5.431  18.953  0.00  0.00    +0.000 OA
BRANCH   6  10
ATOM      9  C   UNL     1       3.476   1.954  17.945  0.00  0.00    +0.000 C 
ATOM     10  C   UNL     1       3.741   2.902  19.105  0.00  0.00    +0.000 C 
ENDBRANCH   6  10
BRANCH   6  11
ATOM     11  C   UNL     1       1.442   4.004  19.088  0.00  0.00    +0.000 C 
ATOM     12  C   UNL     1       0.775   3.216  20.201  0.00  0.00    +0.000 C 
ENDBRANCH   6  11
ENDBRANCH   1   7
BRANCH   4  13
ATOM     13  C   UNL     1       1.526   9.676  18.075  0.00  0.00    +0.000 C 
BRANCH  13  14
ATOM     14  O   UNL     1       0.734  10.559  18.867  0.00  0.00    +0.000 OA
BRANCH  14  15
ATOM     15  C   UNL     1      -0.591  10.664  18.517  0.00  0.00    +0.000 A 
ATOM     16  C   UNL     1      -1.179   9.948  17.466  0.00  0.00    +0.000 A 
ATOM     17  C   UNL     1      -2.538  10.089  17.178  0.00  0.00    +0.000 A 
ATOM     18  C   UNL     1      -3.330  10.940  17.945  0.00  0.00    +0.000 A 
ATOM     19  C   UNL     1      -2.764  11.653  19.006  0.00  0.00    +0.000 A 
ATOM     20 CL   UNL     1      -3.817  12.686  19.910  0.00  0.00    +0.000 Cl
ATOM     21  C   UNL     1      -1.398  11.518  19.299  0.00  0.00    +0.000 A 
ATOM     22 CL   UNL     1      -0.679  12.411  20.605  0.00  0.00    +0.000 Cl
ENDBRANCH  14  15
ENDBRANCH  13  14
ENDBRANCH   4  13
TORSDOF 6
ENDMDL
