MODEL 1
REMARK VINA RESULT:      -7.6      0.000      0.000
REMARK  Name = 
REMARK  10 active torsions:
REMARK  status: ('A' for Active; 'I' for Inactive)
REMARK    1  A    between atoms: C_1  and  C_2
REMARK    2  A    between atoms: C_5  and  O_6
REMARK    3  A    between atoms: O_6  and  C_7
REMARK    4  A    between atoms: C_7  and  C_8
REMARK    5  A    between atoms: C_10  and  C_11
REMARK    6  A    between atoms: N_16  and  C_17
REMARK    7  A    between atoms: C_17  and  C_18
REMARK    8  A    between atoms: N_20  and  C_21
REMARK    9  A    between atoms: C_21  and  C_22
REMARK   10  A    between atoms: C_21  and  C_23
REMARK                            x       y       z     vdW  Elec       q    Type
REMARK                         _______ _______ _______ _____ _____    ______ ____
ROOT
ATOM      1  C   UNL     1       2.176   8.246  18.356  0.00  0.00    +0.000 C 
ATOM      2  O   UNL     1       2.405   8.915  17.348  0.00  0.00    +0.000 OA
ATOM      3  N   UNL     1       1.467   8.771  19.443  0.00  0.00    +0.000 N 
ATOM      4  C   UNL     1       0.830  10.084  19.341  0.00  0.00    +0.000 C 
ATOM      5  C   UNL     1      -0.555  10.087  20.033  0.00  0.00    +0.000 C 
ATOM      6  N   UNL     1      -0.601   9.516  21.409  0.00  0.00    +0.000 NA
ATOM      7  C   UNL     1       0.072   8.195  21.393  0.00  0.00    +0.000 C 
ATOM      8  C   UNL     1       1.492   8.232  20.806  0.00  0.00    +0.000 C 
ENDROOT
BRANCH   1  11
ATOM      9  C   UNL     1       3.836   5.023  18.772  0.00  0.00    +0.000 A 
ATOM     10  C   UNL     1       3.915   6.392  18.848  0.00  0.00    +0.000 A 
ATOM     11  C   UNL     1       2.636   6.851  18.437  0.00  0.00    +0.000 A 
ATOM     12  N   UNL     1       1.880   5.806  18.048  0.00  0.00    +0.000 NA
ATOM     13  O   UNL     1       2.606   4.671  18.324  0.00  0.00    +0.000 OA
BRANCH   9  14
ATOM     14  C   UNL     1       4.772   3.914  19.041  0.00  0.00    +0.000 C 
BRANCH  14  15
ATOM     15  O   UNL     1       6.055   4.361  18.614  0.00  0.00    +0.000 OA
BRANCH  15  20
ATOM     16  C   UNL     1       7.316   5.006  13.186  0.00  0.00    +0.000 C 
ATOM     17  C   UNL     1       6.927   4.775  14.614  0.00  0.00    +0.000 A 
ATOM     18  C   UNL     1       5.964   3.830  14.953  0.00  0.00    +0.000 A 
ATOM     19  C   UNL     1       5.632   3.646  16.297  0.00  0.00    +0.000 A 
ATOM     20  C   UNL     1       6.268   4.410  17.269  0.00  0.00    +0.000 A 
ATOM     21  C   UNL     1       7.219   5.327  16.838  0.00  0.00    +0.000 A 
ATOM     22  N   UNL     1       7.561   5.527  15.542  0.00  0.00    +0.000 NA
ENDBRANCH  15  20
ENDBRANCH  14  15
ENDBRANCH   9  14
ENDBRANCH   1  11
BRANCH   6  23
ATOM     23  C   UNL     1       0.042  10.415  22.399  0.00  0.00    +0.000 C 
BRANCH  23  24
ATOM     24  C   UNL     1      -0.756  11.707  22.582  0.00  0.00    +0.000 C 
ATOM     25  O   UNL     1      -0.229  12.814  22.458  0.00  0.00    +0.000 OA
ATOM     26  N   UNL     1      -2.087  11.528  22.884  0.00  0.00    +0.000 N 
ATOM     27  H   UNL     1      -2.417  10.578  23.024  0.00  0.00    +0.000 HD
BRANCH  26  28
ATOM     28  C   UNL     1      -2.992  12.652  23.055  0.00  0.00    +0.000 C 
ATOM     29  C   UNL     1      -3.845  12.855  21.807  0.00  0.00    +0.000 C 
ATOM     30  C   UNL     1      -3.870  12.461  24.287  0.00  0.00    +0.000 C 
ENDBRANCH  26  28
ENDBRANCH  23  24
ENDBRANCH   6  23
TORSDOF 7
ENDMDL
MODEL 2
REMARK VINA RESULT:      -7.2      1.067      1.304
REMARK  Name = 
REMARK  10 active torsions:
REMARK  status: ('A' for Active; 'I' for Inactive)
REMARK    1  A    between atoms: C_1  and  C_2
REMARK    2  A    between atoms: C_5  and  O_6
REMARK    3  A    between atoms: O_6  and  C_7
REMARK    4  A    between atoms: C_7  and  C_8
REMARK    5  A    between atoms: C_10  and  C_11
REMARK    6  A    between atoms: N_16  and  C_17
REMARK    7  A    between atoms: C_17  and  C_18
REMARK    8  A    between atoms: N_20  and  C_21
REMARK    9  A    between atoms: C_21  and  C_22
REMARK   10  A    between atoms: C_21  and  C_23
REMARK                            x       y       z     vdW  Elec       q    Type
REMARK                         _______ _______ _______ _____ _____    ______ ____
ROOT
ATOM      1  C   UNL     1       2.157   8.260  18.276  0.00  0.00    +0.000 C 
ATOM      2  O   UNL     1       2.386   8.888  17.243  0.00  0.00    +0.000 OA
ATOM      3  N   UNL     1       1.430   8.819  19.333  0.00  0.00    +0.000 N 
ATOM      4  C   UNL     1       0.776  10.118  19.170  0.00  0.00    +0.000 C 
ATOM      5  C   UNL     1      -0.617  10.130  19.848  0.00  0.00    +0.000 C 
ATOM      6  N   UNL     1      -0.669   9.617  21.246  0.00  0.00    +0.000 NA
ATOM      7  C   UNL     1       0.023   8.306  21.293  0.00  0.00    +0.000 C 
ATOM      8  C   UNL     1       1.448   8.339  20.718  0.00  0.00    +0.000 C 
ENDROOT
BRANCH   1  11
ATOM      9  C   UNL     1       3.862   5.081  18.832  0.00  0.00    +0.000 A 
ATOM     10  C   UNL     1       3.924   6.453  18.841  0.00  0.00    +0.000 A 
ATOM     11  C   UNL     1       2.635   6.875  18.420  0.00  0.00    +0.000 A 
ATOM     12  N   UNL     1       1.889   5.804  18.090  0.00  0.00    +0.000 NA
ATOM     13  O   UNL     1       2.632   4.693  18.414  0.00  0.00    +0.000 OA
BRANCH   9  14
ATOM     14  C   UNL     1       4.814   3.999  19.146  0.00  0.00    +0.000 C 
BRANCH  14  15
ATOM     15  O   UNL     1       6.087   4.440  18.687  0.00  0.00    +0.000 OA
BRANCH  15  20
ATOM     16  C   UNL     1       7.242   4.992  13.225  0.00  0.00    +0.000 C 
ATOM     17  C   UNL     1       6.882   4.786  14.664  0.00  0.00    +0.000 A 
ATOM     18  C   UNL     1       5.932   3.841  15.039  0.00  0.00    +0.000 A 
ATOM     19  C   UNL     1       5.627   3.680  16.392  0.00  0.00    +0.000 A 
ATOM     20  C   UNL     1       6.275   4.466  17.337  0.00  0.00    +0.000 A 
ATOM     21  C   UNL     1       7.211   5.381  16.871  0.00  0.00    +0.000 A 
ATOM     22  N   UNL     1       7.527   5.559  15.566  0.00  0.00    +0.000 NA
ENDBRANCH  15  20
ENDBRANCH  14  15
ENDBRANCH   9  14
ENDBRANCH   1  11
BRANCH   6  23
ATOM     23  C   UNL     1      -0.049  10.566  22.203  0.00  0.00    +0.000 C 
BRANCH  23  24
ATOM     24  C   UNL     1      -1.054  11.614  22.683  0.00  0.00    +0.000 C 
ATOM     25  O   UNL     1      -2.045  11.302  23.347  0.00  0.00    +0.000 OA
ATOM     26  N   UNL     1      -0.756  12.909  22.322  0.00  0.00    +0.000 N 
ATOM     27  H   UNL     1       0.051  13.061  21.726  0.00  0.00    +0.000 HD
BRANCH  26  28
ATOM     28  C   UNL     1      -1.590  14.028  22.729  0.00  0.00    +0.000 C 
ATOM     29  C   UNL     1      -1.047  14.675  23.999  0.00  0.00    +0.000 C 
ATOM     30  C   UNL     1      -1.709  15.053  21.606  0.00  0.00    +0.000 C 
ENDBRANCH  26  28
ENDBRANCH  23  24
ENDBRANCH   6  23
TORSDOF 7
ENDMDL
MODEL 3
REMARK VINA RESULT:      -7.0      1.192      1.281
REMARK  Name = 
REMARK  10 active torsions:
REMARK  status: ('A' for Active; 'I' for Inactive)
REMARK    1  A    between atoms: C_1  and  C_2
REMARK    2  A    between atoms: C_5  and  O_6
REMARK    3  A    between atoms: O_6  and  C_7
REMARK    4  A    between atoms: C_7  and  C_8
REMARK    5  A    between atoms: C_10  and  C_11
REMARK    6  A    between atoms: N_16  and  C_17
REMARK    7  A    between atoms: C_17  and  C_18
REMARK    8  A    between atoms: N_20  and  C_21
REMARK    9  A    between atoms: C_21  and  C_22
REMARK   10  A    between atoms: C_21  and  C_23
REMARK                            x       y       z     vdW  Elec       q    Type
REMARK                         _______ _______ _______ _____ _____    ______ ____
ROOT
ATOM      1  C   UNL     1       1.684   9.095  18.505  0.00  0.00    +0.000 C 
ATOM      2  O   UNL     1       1.852   9.515  17.360  0.00  0.00    +0.000 OA
ATOM      3  N   UNL     1       1.036   9.859  19.482  0.00  0.00    +0.000 N 
ATOM      4  C   UNL     1       0.388  11.120  19.119  0.00  0.00    +0.000 C 
ATOM      5  C   UNL     1      -0.957  11.292  19.870  0.00  0.00    +0.000 C 
ATOM      6  N   UNL     1      -0.922  11.050  21.340  0.00  0.00    +0.000 NA
ATOM      7  C   UNL     1      -0.243   9.754  21.588  0.00  0.00    +0.000 C 
ATOM      8  C   UNL     1       1.140   9.645  20.929  0.00  0.00    +0.000 C 
ENDROOT
BRANCH   1  11
ATOM      9  C   UNL     1       2.993   5.704  18.834  0.00  0.00    +0.000 A 
ATOM     10  C   UNL     1       2.681   6.758  18.009  0.00  0.00    +0.000 A 
ATOM     11  C   UNL     1       2.155   7.751  18.876  0.00  0.00    +0.000 A 
ATOM     12  N   UNL     1       2.074   7.266  20.130  0.00  0.00    +0.000 NA
ATOM     13  O   UNL     1       2.660   6.022  20.109  0.00  0.00    +0.000 OA
BRANCH   9  14
ATOM     14  C   UNL     1       3.565   4.360  18.627  0.00  0.00    +0.000 C 
BRANCH  14  15
ATOM     15  O   UNL     1       4.974   4.537  18.524  0.00  0.00    +0.000 OA
BRANCH  15  20
ATOM     16  C   UNL     1       7.587   4.975  13.579  0.00  0.00    +0.000 C 
ATOM     17  C   UNL     1       6.827   4.822  14.861  0.00  0.00    +0.000 A 
ATOM     18  C   UNL     1       5.560   4.248  14.882  0.00  0.00    +0.000 A 
ATOM     19  C   UNL     1       4.887   4.124  16.099  0.00  0.00    +0.000 A 
ATOM     20  C   UNL     1       5.495   4.575  17.265  0.00  0.00    +0.000 A 
ATOM     21  C   UNL     1       6.763   5.131  17.149  0.00  0.00    +0.000 A 
ATOM     22  N   UNL     1       7.439   5.265  15.982  0.00  0.00    +0.000 NA
ENDBRANCH  15  20
ENDBRANCH  14  15
ENDBRANCH   9  14
ENDBRANCH   1  11
BRANCH   6  23
ATOM     23  C   UNL     1      -0.228  12.146  22.061  0.00  0.00    +0.000 C 
BRANCH  23  24
ATOM     24  C   UNL     1      -1.208  12.982  22.885  0.00  0.00    +0.000 C 
ATOM     25  O   UNL     1      -0.839  13.975  23.515  0.00  0.00    +0.000 OA
ATOM     26  N   UNL     1      -2.512  12.541  22.855  0.00  0.00    +0.000 N 
ATOM     27  H   UNL     1      -2.710  11.680  22.356  0.00  0.00    +0.000 HD
BRANCH  26  28
ATOM     28  C   UNL     1      -3.574  13.244  23.556  0.00  0.00    +0.000 C 
ATOM     29  C   UNL     1      -4.579  13.829  22.569  0.00  0.00    +0.000 C 
ATOM     30  C   UNL     1      -4.268  12.324  24.555  0.00  0.00    +0.000 C 
ENDBRANCH  26  28
ENDBRANCH  23  24
ENDBRANCH   6  23
TORSDOF 7
ENDMDL
MODEL 4
REMARK VINA RESULT:      -6.7      1.146      1.241
REMARK  Name = 
REMARK  10 active torsions:
REMARK  status: ('A' for Active; 'I' for Inactive)
REMARK    1  A    between atoms: C_1  and  C_2
REMARK    2  A    between atoms: C_5  and  O_6
REMARK    3  A    between atoms: O_6  and  C_7
REMARK    4  A    between atoms: C_7  and  C_8
REMARK    5  A    between atoms: C_10  and  C_11
REMARK    6  A    between atoms: N_16  and  C_17
REMARK    7  A    between atoms: C_17  and  C_18
REMARK    8  A    between atoms: N_20  and  C_21
REMARK    9  A    between atoms: C_21  and  C_22
REMARK   10  A    between atoms: C_21  and  C_23
REMARK                            x       y       z     vdW  Elec       q    Type
REMARK                         _______ _______ _______ _____ _____    ______ ____
ROOT
ATOM      1  C   UNL     1       2.139   8.453  18.157  0.00  0.00    +0.000 C 
ATOM      2  O   UNL     1       2.212   9.136  17.136  0.00  0.00    +0.000 OA
ATOM      3  N   UNL     1       1.455   8.897  19.294  0.00  0.00    +0.000 N 
ATOM      4  C   UNL     1       0.661  10.125  19.242  0.00  0.00    +0.000 C 
ATOM      5  C   UNL     1      -0.661   9.968  20.034  0.00  0.00    +0.000 C 
ATOM      6  N   UNL     1      -0.538   9.406  21.409  0.00  0.00    +0.000 NA
ATOM      7  C   UNL     1       0.285   8.173  21.341  0.00  0.00    +0.000 C 
ATOM      8  C   UNL     1       1.643   8.375  20.651  0.00  0.00    +0.000 C 
ENDROOT
BRANCH   1  11
ATOM      9  C   UNL     1       4.223   5.458  18.255  0.00  0.00    +0.000 A 
ATOM     10  C   UNL     1       4.154   6.827  18.163  0.00  0.00    +0.000 A 
ATOM     11  C   UNL     1       2.766   7.122  18.201  0.00  0.00    +0.000 A 
ATOM     12  N   UNL     1       2.057   5.977  18.217  0.00  0.00    +0.000 NA
ATOM     13  O   UNL     1       2.967   4.952  18.320  0.00  0.00    +0.000 OA
BRANCH   9  14
ATOM     14  C   UNL     1       5.323   4.475  18.273  0.00  0.00    +0.000 C 
BRANCH  14  15
ATOM     15  O   UNL     1       5.128   3.636  17.140  0.00  0.00    +0.000 OA
BRANCH  15  20
ATOM     16  C   UNL     1       8.086   5.476  12.742  0.00  0.00    +0.000 C 
ATOM     17  C   UNL     1       7.247   4.947  13.864  0.00  0.00    +0.000 A 
ATOM     18  C   UNL     1       6.119   4.172  13.615  0.00  0.00    +0.000 A 
ATOM     19  C   UNL     1       5.365   3.698  14.690  0.00  0.00    +0.000 A 
ATOM     20  C   UNL     1       5.755   4.009  15.988  0.00  0.00    +0.000 A 
ATOM     21  C   UNL     1       6.896   4.785  16.141  0.00  0.00    +0.000 A 
ATOM     22  N   UNL     1       7.647   5.259  15.118  0.00  0.00    +0.000 NA
ENDBRANCH  15  20
ENDBRANCH  14  15
ENDBRANCH   9  14
ENDBRANCH   1  11
BRANCH   6  23
ATOM     23  C   UNL     1       0.065  10.382  22.350  0.00  0.00    +0.000 C 
BRANCH  23  24
ATOM     24  C   UNL     1      -0.885  11.546  22.634  0.00  0.00    +0.000 C 
ATOM     25  O   UNL     1      -1.964  11.374  23.205  0.00  0.00    +0.000 OA
ATOM     26  N   UNL     1      -0.436  12.777  22.211  0.00  0.00    +0.000 N 
ATOM     27  H   UNL     1       0.440  12.810  21.697  0.00  0.00    +0.000 HD
BRANCH  26  28
ATOM     28  C   UNL     1      -1.202  13.991  22.436  0.00  0.00    +0.000 C 
ATOM     29  C   UNL     1      -2.558  13.912  21.742  0.00  0.00    +0.000 C 
ATOM     30  C   UNL     1      -1.370  14.259  23.927  0.00  0.00    +0.000 C 
ENDBRANCH  26  28
ENDBRANCH  23  24
ENDBRANCH   6  23
TORSDOF 7
ENDMDL
MODEL 5
REMARK VINA RESULT:      -6.7      2.559     10.165
REMARK  Name = 
REMARK  10 active torsions:
REMARK  status: ('A' for Active; 'I' for Inactive)
REMARK    1  A    between atoms: C_1  and  C_2
REMARK    2  A    between atoms: C_5  and  O_6
REMARK    3  A    between atoms: O_6  and  C_7
REMARK    4  A    between atoms: C_7  and  C_8
REMARK    5  A    between atoms: C_10  and  C_11
REMARK    6  A    between atoms: N_16  and  C_17
REMARK    7  A    between atoms: C_17  and  C_18
REMARK    8  A    between atoms: N_20  and  C_21
REMARK    9  A    between atoms: C_21  and  C_22
REMARK   10  A    between atoms: C_21  and  C_23
REMARK                            x       y       z     vdW  Elec       q    Type
REMARK                         _______ _______ _______ _____ _____    ______ ____
ROOT
ATOM      1  C   UNL     1       2.157   5.702  20.294  0.00  0.00    +0.000 C 
ATOM      2  O   UNL     1       1.678   4.905  21.101  0.00  0.00    +0.000 OA
ATOM      3  N   UNL     1       3.075   5.298  19.318  0.00  0.00    +0.000 N 
ATOM      4  C   UNL     1       3.365   3.877  19.123  0.00  0.00    +0.000 C 
ATOM      5  C   UNL     1       3.506   3.538  17.618  0.00  0.00    +0.000 C 
ATOM      6  N   UNL     1       4.396   4.434  16.826  0.00  0.00    +0.000 NA
ATOM      7  C   UNL     1       4.015   5.841  17.104  0.00  0.00    +0.000 C 
ATOM      8  C   UNL     1       3.991   6.190  18.600  0.00  0.00    +0.000 C 
ENDROOT
BRANCH   1  11
ATOM      9  C   UNL     1       1.258   9.200  19.772  0.00  0.00    +0.000 A 
ATOM     10  C   UNL     1       1.714   8.021  19.233  0.00  0.00    +0.000 A 
ATOM     11  C   UNL     1       1.757   7.117  20.327  0.00  0.00    +0.000 A 
ATOM     12  N   UNL     1       1.435   7.762  21.465  0.00  0.00    +0.000 NA
ATOM     13  O   UNL     1       1.060   9.034  21.104  0.00  0.00    +0.000 OA
BRANCH   9  14
ATOM     14  C   UNL     1       0.976  10.545  19.235  0.00  0.00    +0.000 C 
BRANCH  14  15
ATOM     15  O   UNL     1       0.208  10.349  18.052  0.00  0.00    +0.000 OA
BRANCH  15  20
ATOM     16  C   UNL     1      -5.102  12.007  18.783  0.00  0.00    +0.000 C 
ATOM     17  C   UNL     1      -3.710  11.512  18.532  0.00  0.00    +0.000 A 
ATOM     18  C   UNL     1      -3.463  10.500  17.609  0.00  0.00    +0.000 A 
ATOM     19  C   UNL     1      -2.150  10.070  17.405  0.00  0.00    +0.000 A 
ATOM     20  C   UNL     1      -1.118  10.658  18.126  0.00  0.00    +0.000 A 
ATOM     21  C   UNL     1      -1.459  11.663  19.022  0.00  0.00    +0.000 A 
ATOM     22  N   UNL     1      -2.722  12.101  19.242  0.00  0.00    +0.000 NA
ENDBRANCH  15  20
ENDBRANCH  14  15
ENDBRANCH   9  14
ENDBRANCH   1  11
BRANCH   6  23
ATOM     23  C   UNL     1       5.827   4.210  17.146  0.00  0.00    +0.000 C 
BRANCH  23  24
ATOM     24  C   UNL     1       6.693   4.235  15.886  0.00  0.00    +0.000 C 
ATOM     25  O   UNL     1       7.890   4.525  15.930  0.00  0.00    +0.000 OA
ATOM     26  N   UNL     1       6.033   3.904  14.724  0.00  0.00    +0.000 N 
ATOM     27  H   UNL     1       5.033   3.736  14.778  0.00  0.00    +0.000 HD
BRANCH  26  28
ATOM     28  C   UNL     1       6.719   3.844  13.444  0.00  0.00    +0.000 C 
ATOM     29  C   UNL     1       5.798   3.293  12.360  0.00  0.00    +0.000 C 
ATOM     30  C   UNL     1       7.259   5.215  13.052  0.00  0.00    +0.000 C 
ENDBRANCH  26  28
ENDBRANCH  23  24
ENDBRANCH   6  23
TORSDOF 7
ENDMDL
MODEL 6
REMARK VINA RESULT:      -6.5      0.857      1.112
REMARK  Name = 
REMARK  10 active torsions:
REMARK  status: ('A' for Active; 'I' for Inactive)
REMARK    1  A    between atoms: C_1  and  C_2
REMARK    2  A    between atoms: C_5  and  O_6
REMARK    3  A    between atoms: O_6  and  C_7
REMARK    4  A    between atoms: C_7  and  C_8
REMARK    5  A    between atoms: C_10  and  C_11
REMARK    6  A    between atoms: N_16  and  C_17
REMARK    7  A    between atoms: C_17  and  C_18
REMARK    8  A    between atoms: N_20  and  C_21
REMARK    9  A    between atoms: C_21  and  C_22
REMARK   10  A    between atoms: C_21  and  C_23
REMARK                            x       y       z     vdW  Elec       q    Type
REMARK                         _______ _______ _______ _____ _____    ______ ____
ROOT
ATOM      1  C   UNL     1       1.941   8.686  18.419  0.00  0.00    +0.000 C 
ATOM      2  O   UNL     1       2.189   9.308  17.386  0.00  0.00    +0.000 OA
ATOM      3  N   UNL     1       1.248   9.273  19.483  0.00  0.00    +0.000 N 
ATOM      4  C   UNL     1       0.650  10.600  19.329  0.00  0.00    +0.000 C 
ATOM      5  C   UNL     1      -0.736  10.670  20.019  0.00  0.00    +0.000 C 
ATOM      6  N   UNL     1      -0.799  10.155  21.416  0.00  0.00    +0.000 NA
ATOM      7  C   UNL     1      -0.164   8.814  21.453  0.00  0.00    +0.000 C 
ATOM      8  C   UNL     1       1.256   8.787  20.867  0.00  0.00    +0.000 C 
ENDROOT
BRANCH   1  11
ATOM      9  C   UNL     1       3.466   5.430  19.046  0.00  0.00    +0.000 A 
ATOM     10  C   UNL     1       3.557   6.797  19.144  0.00  0.00    +0.000 A 
ATOM     11  C   UNL     1       2.360   7.282  18.554  0.00  0.00    +0.000 A 
ATOM     12  N   UNL     1       1.651   6.254  18.050  0.00  0.00    +0.000 NA
ATOM     13  O   UNL     1       2.308   5.104  18.420  0.00  0.00    +0.000 OA
BRANCH   9  14
ATOM     14  C   UNL     1       4.333   4.303  19.440  0.00  0.00    +0.000 C 
BRANCH  14  15
ATOM     15  O   UNL     1       4.457   3.473  18.290  0.00  0.00    +0.000 OA
BRANCH  15  20
ATOM     16  C   UNL     1       7.441   5.150  13.845  0.00  0.00    +0.000 C 
ATOM     17  C   UNL     1       6.707   4.723  15.079  0.00  0.00    +0.000 A 
ATOM     18  C   UNL     1       7.301   4.808  16.334  0.00  0.00    +0.000 A 
ATOM     19  C   UNL     1       6.580   4.400  17.458  0.00  0.00    +0.000 A 
ATOM     20  C   UNL     1       5.287   3.917  17.303  0.00  0.00    +0.000 A 
ATOM     21  C   UNL     1       4.774   3.872  16.013  0.00  0.00    +0.000 A 
ATOM     22  N   UNL     1       5.449   4.260  14.904  0.00  0.00    +0.000 NA
ENDBRANCH  15  20
ENDBRANCH  14  15
ENDBRANCH   9  14
ENDBRANCH   1  11
BRANCH   6  23
ATOM     23  C   UNL     1      -0.130  11.072  22.371  0.00  0.00    +0.000 C 
BRANCH  23  24
ATOM     24  C   UNL     1      -1.084  12.162  22.862  0.00  0.00    +0.000 C 
ATOM     25  O   UNL     1      -0.669  13.252  23.260  0.00  0.00    +0.000 OA
ATOM     26  N   UNL     1      -2.419  11.827  22.815  0.00  0.00    +0.000 N 
ATOM     27  H   UNL     1      -2.661  10.884  22.527  0.00  0.00    +0.000 HD
BRANCH  26  28
ATOM     28  C   UNL     1      -3.458  12.762  23.212  0.00  0.00    +0.000 C 
ATOM     29  C   UNL     1      -4.463  12.967  22.083  0.00  0.00    +0.000 C 
ATOM     30  C   UNL     1      -4.157  12.291  24.482  0.00  0.00    +0.000 C 
ENDBRANCH  26  28
ENDBRANCH  23  24
ENDBRANCH   6  23
TORSDOF 7
ENDMDL
MODEL 7
REMARK VINA RESULT:      -6.5      1.920      3.112
REMARK  Name = 
REMARK  10 active torsions:
REMARK  status: ('A' for Active; 'I' for Inactive)
REMARK    1  A    between atoms: C_1  and  C_2
REMARK    2  A    between atoms: C_5  and  O_6
REMARK    3  A    between atoms: O_6  and  C_7
REMARK    4  A    between atoms: C_7  and  C_8
REMARK    5  A    between atoms: C_10  and  C_11
REMARK    6  A    between atoms: N_16  and  C_17
REMARK    7  A    between atoms: C_17  and  C_18
REMARK    8  A    between atoms: N_20  and  C_21
REMARK    9  A    between atoms: C_21  and  C_22
REMARK   10  A    between atoms: C_21  and  C_23
REMARK                            x       y       z     vdW  Elec       q    Type
REMARK                         _______ _______ _______ _____ _____    ______ ____
ROOT
ATOM      1  C   UNL     1       0.842  10.011  20.897  0.00  0.00    +0.000 C 
ATOM      2  O   UNL     1       1.391  10.152  21.990  0.00  0.00    +0.000 OA
ATOM      3  N   UNL     1      -0.306  10.732  20.550  0.00  0.00    +0.000 N 
ATOM      4  C   UNL     1      -0.792  11.803  21.421  0.00  0.00    +0.000 C 
ATOM      5  C   UNL     1      -1.295  13.010  20.590  0.00  0.00    +0.000 C 
ATOM      6  N   UNL     1      -2.227  12.693  19.471  0.00  0.00    +0.000 NA
ATOM      7  C   UNL     1      -1.636  11.598  18.663  0.00  0.00    +0.000 C 
ATOM      8  C   UNL     1      -1.247  10.362  19.489  0.00  0.00    +0.000 C 
ENDROOT
BRANCH   1  11
ATOM      9  C   UNL     1       2.214   7.286  18.894  0.00  0.00    +0.000 A 
ATOM     10  C   UNL     1       1.781   7.726  20.121  0.00  0.00    +0.000 A 
ATOM     11  C   UNL     1       1.400   9.077  19.906  0.00  0.00    +0.000 A 
ATOM     12  N   UNL     1       1.687   9.436  18.640  0.00  0.00    +0.000 NA
ATOM     13  O   UNL     1       2.126   8.302  17.999  0.00  0.00    +0.000 OA
BRANCH   9  14
ATOM     14  C   UNL     1       2.747   6.010  18.379  0.00  0.00    +0.000 C 
BRANCH  14  15
ATOM     15  O   UNL     1       4.155   6.186  18.256  0.00  0.00    +0.000 OA
BRANCH  15  20
ATOM     16  C   UNL     1       6.610   4.296  13.579  0.00  0.00    +0.000 C 
ATOM     17  C   UNL     1       5.957   4.725  14.857  0.00  0.00    +0.000 A 
ATOM     18  C   UNL     1       5.662   3.805  15.858  0.00  0.00    +0.000 A 
ATOM     19  C   UNL     1       5.053   4.248  17.034  0.00  0.00    +0.000 A 
ATOM     20  C   UNL     1       4.753   5.597  17.182  0.00  0.00    +0.000 A 
ATOM     21  C   UNL     1       5.087   6.443  16.132  0.00  0.00    +0.000 A 
ATOM     22  N   UNL     1       5.677   6.042  14.980  0.00  0.00    +0.000 NA
ENDBRANCH  15  20
ENDBRANCH  14  15
ENDBRANCH   9  14
ENDBRANCH   1  11
BRANCH   6  23
ATOM     23  C   UNL     1      -3.571  12.305  19.967  0.00  0.00    +0.000 C 
BRANCH  23  24
ATOM     24  C   UNL     1      -4.028  13.212  21.110  0.00  0.00    +0.000 C 
ATOM     25  O   UNL     1      -4.264  14.409  20.931  0.00  0.00    +0.000 OA
ATOM     26  N   UNL     1      -4.157  12.586  22.330  0.00  0.00    +0.000 N 
ATOM     27  H   UNL     1      -3.885  11.610  22.392  0.00  0.00    +0.000 HD
BRANCH  26  28
ATOM     28  C   UNL     1      -4.617  13.296  23.511  0.00  0.00    +0.000 C 
ATOM     29  C   UNL     1      -5.383  12.362  24.442  0.00  0.00    +0.000 C 
ATOM     30  C   UNL     1      -3.449  13.951  24.240  0.00  0.00    +0.000 C 
ENDBRANCH  26  28
ENDBRANCH  23  24
ENDBRANCH   6  23
TORSDOF 7
ENDMDL
MODEL 8
REMARK VINA RESULT:      -6.5      3.471      5.322
REMARK  Name = 
REMARK  10 active torsions:
REMARK  status: ('A' for Active; 'I' for Inactive)
REMARK    1  A    between atoms: C_1  and  C_2
REMARK    2  A    between atoms: C_5  and  O_6
REMARK    3  A    between atoms: O_6  and  C_7
REMARK    4  A    between atoms: C_7  and  C_8
REMARK    5  A    between atoms: C_10  and  C_11
REMARK    6  A    between atoms: N_16  and  C_17
REMARK    7  A    between atoms: C_17  and  C_18
REMARK    8  A    between atoms: N_20  and  C_21
REMARK    9  A    between atoms: C_21  and  C_22
REMARK   10  A    between atoms: C_21  and  C_23
REMARK                            x       y       z     vdW  Elec       q    Type
REMARK                         _______ _______ _______ _____ _____    ______ ____
ROOT
ATOM      1  C   UNL     1       0.389  10.288  19.695  0.00  0.00    +0.000 C 
ATOM      2  O   UNL     1       0.705  10.596  20.845  0.00  0.00    +0.000 OA
ATOM      3  N   UNL     1      -0.880  10.575  19.179  0.00  0.00    +0.000 N 
ATOM      4  C   UNL     1      -1.815  11.403  19.942  0.00  0.00    +0.000 C 
ATOM      5  C   UNL     1      -2.585  12.375  19.012  0.00  0.00    +0.000 C 
ATOM      6  N   UNL     1      -3.193  11.771  17.794  0.00  0.00    +0.000 NA
ATOM      7  C   UNL     1      -2.162  10.956  17.107  0.00  0.00    +0.000 C 
ATOM      8  C   UNL     1      -1.487   9.918  18.018  0.00  0.00    +0.000 C 
ENDROOT
BRANCH   1  11
ATOM      9  C   UNL     1       2.773   8.166  17.927  0.00  0.00    +0.000 A 
ATOM     10  C   UNL     1       1.980   8.357  19.032  0.00  0.00    +0.000 A 
ATOM     11  C   UNL     1       1.359   9.615  18.817  0.00  0.00    +0.000 A 
ATOM     12  N   UNL     1       1.839  10.175  17.691  0.00  0.00    +0.000 NA
ATOM     13  O   UNL     1       2.663   9.241  17.107  0.00  0.00    +0.000 OA
BRANCH   9  14
ATOM     14  C   UNL     1       3.689   7.099  17.480  0.00  0.00    +0.000 C 
BRANCH  14  15
ATOM     15  O   UNL     1       3.954   6.295  18.624  0.00  0.00    +0.000 OA
BRANCH  15  20
ATOM     16  C   UNL     1       0.489   1.891  18.892  0.00  0.00    +0.000 C 
ATOM     17  C   UNL     1       1.414   3.069  18.902  0.00  0.00    +0.000 A 
ATOM     18  C   UNL     1       1.816   3.657  20.096  0.00  0.00    +0.000 A 
ATOM     19  C   UNL     1       2.681   4.753  20.060  0.00  0.00    +0.000 A 
ATOM     20  C   UNL     1       3.122   5.235  18.833  0.00  0.00    +0.000 A 
ATOM     21  C   UNL     1       2.670   4.583  17.693  0.00  0.00    +0.000 A 
ATOM     22  N   UNL     1       1.832   3.519  17.697  0.00  0.00    +0.000 NA
ENDBRANCH  15  20
ENDBRANCH  14  15
ENDBRANCH   9  14
ENDBRANCH   1  11
BRANCH   6  23
ATOM     23  C   UNL     1      -4.377  10.939  18.125  0.00  0.00    +0.000 C 
BRANCH  23  24
ATOM     24  C   UNL     1      -5.609  11.803  18.400  0.00  0.00    +0.000 C 
ATOM     25  O   UNL     1      -6.413  11.516  19.289  0.00  0.00    +0.000 OA
ATOM     26  N   UNL     1      -5.733  12.909  17.590  0.00  0.00    +0.000 N 
ATOM     27  H   UNL     1      -5.051  13.031  16.847  0.00  0.00    +0.000 HD
BRANCH  26  28
ATOM     28  C   UNL     1      -6.827  13.853  17.744  0.00  0.00    +0.000 C 
ATOM     29  C   UNL     1      -6.514  14.872  18.835  0.00  0.00    +0.000 C 
ATOM     30  C   UNL     1      -7.135  14.549  16.423  0.00  0.00    +0.000 C 
ENDBRANCH  26  28
ENDBRANCH  23  24
ENDBRANCH   6  23
TORSDOF 7
ENDMDL
MODEL 9
REMARK VINA RESULT:      -6.5      2.836      3.651
REMARK  Name = 
REMARK  10 active torsions:
REMARK  status: ('A' for Active; 'I' for Inactive)
REMARK    1  A    between atoms: C_1  and  C_2
REMARK    2  A    between atoms: C_5  and  O_6
REMARK    3  A    between atoms: O_6  and  C_7
REMARK    4  A    between atoms: C_7  and  C_8
REMARK    5  A    between atoms: C_10  and  C_11
REMARK    6  A    between atoms: N_16  and  C_17
REMARK    7  A    between atoms: C_17  and  C_18
REMARK    8  A    between atoms: N_20  and  C_21
REMARK    9  A    between atoms: C_21  and  C_22
REMARK   10  A    between atoms: C_21  and  C_23
REMARK                            x       y       z     vdW  Elec       q    Type
REMARK                         _______ _______ _______ _____ _____    ______ ____
ROOT
ATOM      1  C   UNL     1       1.175   9.369  21.580  0.00  0.00    +0.000 C 
ATOM      2  O   UNL     1       1.728   9.718  22.623  0.00  0.00    +0.000 OA
ATOM      3  N   UNL     1       0.244  10.189  20.931  0.00  0.00    +0.000 N 
ATOM      4  C   UNL     1       0.028  11.562  21.389  0.00  0.00    +0.000 C 
ATOM      5  C   UNL     1      -0.151  12.527  20.190  0.00  0.00    +0.000 C 
ATOM      6  N   UNL     1      -1.119  12.097  19.142  0.00  0.00    +0.000 NA
ATOM      7  C   UNL     1      -0.809  10.698  18.760  0.00  0.00    +0.000 C 
ATOM      8  C   UNL     1      -0.747   9.731  19.952  0.00  0.00    +0.000 C 
ENDROOT
BRANCH   1  11
ATOM      9  C   UNL     1       2.337   6.462  19.706  0.00  0.00    +0.000 A 
ATOM     10  C   UNL     1       2.352   7.826  19.867  0.00  0.00    +0.000 A 
ATOM     11  C   UNL     1       1.495   8.068  20.973  0.00  0.00    +0.000 A 
ATOM     12  N   UNL     1       0.932   6.913  21.375  0.00  0.00    +0.000 NA
ATOM     13  O   UNL     1       1.511   5.912  20.631  0.00  0.00    +0.000 OA
BRANCH   9  14
ATOM     14  C   UNL     1       2.981   5.522  18.769  0.00  0.00    +0.000 C 
BRANCH  14  15
ATOM     15  O   UNL     1       3.855   6.300  17.959  0.00  0.00    +0.000 OA
BRANCH  15  20
ATOM     16  C   UNL     1       6.663   4.132  13.613  0.00  0.00    +0.000 C 
ATOM     17  C   UNL     1       5.900   4.636  14.799  0.00  0.00    +0.000 A 
ATOM     18  C   UNL     1       5.328   3.755  15.712  0.00  0.00    +0.000 A 
ATOM     19  C   UNL     1       4.625   4.267  16.805  0.00  0.00    +0.000 A 
ATOM     20  C   UNL     1       4.510   5.644  16.960  0.00  0.00    +0.000 A 
ATOM     21  C   UNL     1       5.117   6.445  16.001  0.00  0.00    +0.000 A 
ATOM     22  N   UNL     1       5.804   5.978  14.931  0.00  0.00    +0.000 NA
ENDBRANCH  15  20
ENDBRANCH  14  15
ENDBRANCH   9  14
ENDBRANCH   1  11
BRANCH   6  23
ATOM     23  C   UNL     1      -2.523  12.208  19.611  0.00  0.00    +0.000 C 
BRANCH  23  24
ATOM     24  C   UNL     1      -3.513  11.845  18.504  0.00  0.00    +0.000 C 
ATOM     25  O   UNL     1      -3.145  11.669  17.341  0.00  0.00    +0.000 OA
ATOM     26  N   UNL     1      -4.823  11.728  18.913  0.00  0.00    +0.000 N 
ATOM     27  H   UNL     1      -5.038  11.949  19.880  0.00  0.00    +0.000 HD
BRANCH  26  28
ATOM     28  C   UNL     1      -5.883  11.353  17.992  0.00  0.00    +0.000 C 
ATOM     29  C   UNL     1      -6.879  10.414  18.664  0.00  0.00    +0.000 C 
ATOM     30  C   UNL     1      -6.588  12.589  17.443  0.00  0.00    +0.000 C 
ENDBRANCH  26  28
ENDBRANCH  23  24
ENDBRANCH   6  23
TORSDOF 7
ENDMDL
