MODEL 1
REMARK VINA RESULT:      -7.0      0.000      0.000
REMARK  Name = 
REMARK  4 active torsions:
REMARK  status: ('A' for Active; 'I' for Inactive)
REMARK    1  A    between atoms: C_1  and  S_2
REMARK    2  A    between atoms: S_2  and  C_3
REMARK    3  A    between atoms: C_11  and  C_12
REMARK    4  A    between atoms: N_20  and  C_21
REMARK                            x       y       z     vdW  Elec       q    Type
REMARK                         _______ _______ _______ _____ _____    ______ ____
ROOT
ATOM      1  C   UNL     1       4.493   5.311  17.151  0.00  0.00    +0.000 A 
ATOM      2  C   UNL     1       3.580   5.126  18.154  0.00  0.00    +0.000 A 
ATOM      3  C   UNL     1       3.442   3.734  18.291  0.00  0.00    +0.000 A 
ATOM      4  N   UNL     1       2.600   3.088  19.214  0.00  0.00    +0.000 NA
ATOM      5  C   UNL     1       1.920   3.877  20.010  0.00  0.00    +0.000 A 
ATOM      6  N   UNL     1       1.072   3.345  20.954  0.00  0.00    +0.000 N 
ATOM      7  N   UNL     1       2.004   5.288  19.928  0.00  0.00    +0.000 N 
ATOM      8  N   UNL     1       1.295   6.122  20.711  0.00  0.00    +0.000 NA
ATOM      9  C   UNL     1       1.689   7.318  20.235  0.00  0.00    +0.000 A 
ATOM     10  N   UNL     1       2.604   7.263  19.188  0.00  0.00    +0.000 NA
ATOM     11  C   UNL     1       2.779   5.970  19.037  0.00  0.00    +0.000 A 
ATOM     12  N   UNL     1       4.202   3.054  17.446  0.00  0.00    +0.000 NA
ATOM     13  N   UNL     1       4.835   4.029  16.747  0.00  0.00    +0.000 N 
ATOM     14  C   UNL     1       5.774   3.631  15.723  0.00  0.00    +0.000 C 
ATOM     15  H   UNL     1       0.763   2.401  20.759  0.00  0.00    +0.000 HD
ATOM     16  H   UNL     1       0.358   3.979  21.310  0.00  0.00    +0.000 HD
ENDROOT
BRANCH   9  17
ATOM     17  C   UNL     1       1.156   8.584  20.827  0.00  0.00    +0.000 A 
ATOM     18  C   UNL     1       0.671   8.766  22.108  0.00  0.00    +0.000 A 
ATOM     19  C   UNL     1       0.273  10.125  22.205  0.00  0.00    +0.000 A 
ATOM     20  C   UNL     1       0.531  10.688  20.980  0.00  0.00    +0.000 A 
ATOM     21  O   UNL     1       1.079   9.772  20.145  0.00  0.00    +0.000 OA
ENDBRANCH   9  17
BRANCH   1  23
ATOM     22  C   UNL     1       6.706   6.917  17.317  0.00  0.00    +0.000 C 
ATOM     23  S   UNL     1       5.163   6.719  16.396  0.00  0.00    +0.000 S 
ENDBRANCH   1  23
TORSDOF 2
ENDMDL
MODEL 2
REMARK VINA RESULT:      -6.9      2.732      6.555
REMARK  Name = 
REMARK  4 active torsions:
REMARK  status: ('A' for Active; 'I' for Inactive)
REMARK    1  A    between atoms: C_1  and  S_2
REMARK    2  A    between atoms: S_2  and  C_3
REMARK    3  A    between atoms: C_11  and  C_12
REMARK    4  A    between atoms: N_20  and  C_21
REMARK                            x       y       z     vdW  Elec       q    Type
REMARK                         _______ _______ _______ _____ _____    ______ ____
ROOT
ATOM      1  C   UNL     1       2.650   7.258  18.926  0.00  0.00    +0.000 A 
ATOM      2  C   UNL     1       3.213   6.036  18.677  0.00  0.00    +0.000 A 
ATOM      3  C   UNL     1       2.830   5.214  19.751  0.00  0.00    +0.000 A 
ATOM      4  N   UNL     1       3.186   3.863  19.908  0.00  0.00    +0.000 NA
ATOM      5  C   UNL     1       3.915   3.354  18.946  0.00  0.00    +0.000 A 
ATOM      6  N   UNL     1       4.312   2.038  18.999  0.00  0.00    +0.000 N 
ATOM      7  N   UNL     1       4.343   4.121  17.834  0.00  0.00    +0.000 N 
ATOM      8  N   UNL     1       5.117   3.633  16.848  0.00  0.00    +0.000 NA
ATOM      9  C   UNL     1       5.269   4.726  16.077  0.00  0.00    +0.000 A 
ATOM     10  N   UNL     1       4.630   5.870  16.543  0.00  0.00    +0.000 NA
ATOM     11  C   UNL     1       4.054   5.439  17.643  0.00  0.00    +0.000 A 
ATOM     12  N   UNL     1       2.075   5.844  20.639  0.00  0.00    +0.000 NA
ATOM     13  N   UNL     1       1.978   7.096  20.129  0.00  0.00    +0.000 N 
ATOM     14  C   UNL     1       1.193   8.068  20.856  0.00  0.00    +0.000 C 
ATOM     15  H   UNL     1       4.309   1.633  19.927  0.00  0.00    +0.000 HD
ATOM     16  H   UNL     1       5.111   1.795  18.414  0.00  0.00    +0.000 HD
ENDROOT
BRANCH   9  17
ATOM     17  C   UNL     1       6.071   4.660  14.816  0.00  0.00    +0.000 A 
ATOM     18  C   UNL     1       5.795   3.909  13.689  0.00  0.00    +0.000 A 
ATOM     19  C   UNL     1       6.838   4.164  12.761  0.00  0.00    +0.000 A 
ATOM     20  C   UNL     1       7.691   5.048  13.377  0.00  0.00    +0.000 A 
ATOM     21  O   UNL     1       7.230   5.366  14.611  0.00  0.00    +0.000 OA
ENDBRANCH   9  17
BRANCH   1  23
ATOM     22  C   UNL     1       0.933   8.985  17.670  0.00  0.00    +0.000 C 
ATOM     23  S   UNL     1       2.679   8.776  18.090  0.00  0.00    +0.000 S 
ENDBRANCH   1  23
TORSDOF 2
ENDMDL
MODEL 3
REMARK VINA RESULT:      -6.8      3.460      6.766
REMARK  Name = 
REMARK  4 active torsions:
REMARK  status: ('A' for Active; 'I' for Inactive)
REMARK    1  A    between atoms: C_1  and  S_2
REMARK    2  A    between atoms: S_2  and  C_3
REMARK    3  A    between atoms: C_11  and  C_12
REMARK    4  A    between atoms: N_20  and  C_21
REMARK                            x       y       z     vdW  Elec       q    Type
REMARK                         _______ _______ _______ _____ _____    ______ ____
ROOT
ATOM      1  C   UNL     1       3.016   3.281  19.551  0.00  0.00    +0.000 A 
ATOM      2  C   UNL     1       3.273   4.414  18.827  0.00  0.00    +0.000 A 
ATOM      3  C   UNL     1       2.561   5.443  19.468  0.00  0.00    +0.000 A 
ATOM      4  N   UNL     1       2.538   6.789  19.061  0.00  0.00    +0.000 NA
ATOM      5  C   UNL     1       3.268   7.077  18.011  0.00  0.00    +0.000 A 
ATOM      6  N   UNL     1       3.320   8.367  17.536  0.00  0.00    +0.000 N 
ATOM      7  N   UNL     1       4.009   6.093  17.313  0.00  0.00    +0.000 N 
ATOM      8  N   UNL     1       4.741   6.353  16.214  0.00  0.00    +0.000 NA
ATOM      9  C   UNL     1       5.204   5.125  15.917  0.00  0.00    +0.000 A 
ATOM     10  N   UNL     1       4.786   4.114  16.776  0.00  0.00    +0.000 NA
ATOM     11  C   UNL     1       4.046   4.770  17.641  0.00  0.00    +0.000 A 
ATOM     12  N   UNL     1       1.887   5.023  20.528  0.00  0.00    +0.000 NA
ATOM     13  N   UNL     1       2.166   3.696  20.565  0.00  0.00    +0.000 N 
ATOM     14  C   UNL     1       1.588   2.910  21.631  0.00  0.00    +0.000 C 
ATOM     15  H   UNL     1       2.538   8.949  17.808  0.00  0.00    +0.000 HD
ATOM     16  H   UNL     1       3.629   8.468  16.570  0.00  0.00    +0.000 HD
ENDROOT
BRANCH   9  17
ATOM     17  C   UNL     1       6.105   4.917  14.741  0.00  0.00    +0.000 A 
ATOM     18  C   UNL     1       5.917   4.037  13.692  0.00  0.00    +0.000 A 
ATOM     19  C   UNL     1       7.031   4.189  12.826  0.00  0.00    +0.000 A 
ATOM     20  C   UNL     1       7.834   5.145  13.399  0.00  0.00    +0.000 A 
ATOM     21  O   UNL     1       7.277   5.603  14.546  0.00  0.00    +0.000 OA
ENDBRANCH   9  17
BRANCH   1  23
ATOM     22  C   UNL     1       4.915   1.557  20.513  0.00  0.00    +0.000 C 
ATOM     23  S   UNL     1       3.504   1.626  19.386  0.00  0.00    +0.000 S 
ENDBRANCH   1  23
TORSDOF 2
ENDMDL
MODEL 4
REMARK VINA RESULT:      -6.7      3.357      6.066
REMARK  Name = 
REMARK  4 active torsions:
REMARK  status: ('A' for Active; 'I' for Inactive)
REMARK    1  A    between atoms: C_1  and  S_2
REMARK    2  A    between atoms: S_2  and  C_3
REMARK    3  A    between atoms: C_11  and  C_12
REMARK    4  A    between atoms: N_20  and  C_21
REMARK                            x       y       z     vdW  Elec       q    Type
REMARK                         _______ _______ _______ _____ _____    ______ ____
ROOT
ATOM      1  C   UNL     1       3.981   4.490  18.299  0.00  0.00    +0.000 A 
ATOM      2  C   UNL     1       5.008   4.883  17.485  0.00  0.00    +0.000 A 
ATOM      3  C   UNL     1       5.027   3.959  16.425  0.00  0.00    +0.000 A 
ATOM      4  N   UNL     1       5.929   3.981  15.346  0.00  0.00    +0.000 NA
ATOM      5  C   UNL     1       6.791   4.967  15.346  0.00  0.00    +0.000 A 
ATOM      6  N   UNL     1       7.712   5.084  14.331  0.00  0.00    +0.000 N 
ATOM      7  N   UNL     1       6.834   5.933  16.381  0.00  0.00    +0.000 N 
ATOM      8  N   UNL     1       7.728   6.938  16.425  0.00  0.00    +0.000 NA
ATOM      9  C   UNL     1       7.388   7.535  17.582  0.00  0.00    +0.000 A 
ATOM     10  N   UNL     1       6.329   6.942  18.262  0.00  0.00    +0.000 NA
ATOM     11  C   UNL     1       6.008   5.947  17.466  0.00  0.00    +0.000 A 
ATOM     12  N   UNL     1       4.089   3.031  16.532  0.00  0.00    +0.000 NA
ATOM     13  N   UNL     1       3.460   3.360  17.687  0.00  0.00    +0.000 N 
ATOM     14  C   UNL     1       2.346   2.542  18.111  0.00  0.00    +0.000 C 
ATOM     15  H   UNL     1       7.896   4.225  13.828  0.00  0.00    +0.000 HD
ATOM     16  H   UNL     1       8.530   5.655  14.542  0.00  0.00    +0.000 HD
ENDROOT
BRANCH   9  17
ATOM     17  C   UNL     1       8.123   8.749  18.055  0.00  0.00    +0.000 A 
ATOM     18  C   UNL     1       8.119  10.004  17.478  0.00  0.00    +0.000 A 
ATOM     19  C   UNL     1       8.966  10.822  18.271  0.00  0.00    +0.000 A 
ATOM     20  C   UNL     1       9.441  10.017  19.279  0.00  0.00    +0.000 A 
ATOM     21  O   UNL     1       8.926   8.769  19.167  0.00  0.00    +0.000 OA
ENDBRANCH   9  17
BRANCH   1  23
ATOM     22  C   UNL     1       2.609   6.658  19.261  0.00  0.00    +0.000 C 
ATOM     23  S   UNL     1       3.347   5.097  19.794  0.00  0.00    +0.000 S 
ENDBRANCH   1  23
TORSDOF 2
ENDMDL
MODEL 5
REMARK VINA RESULT:      -6.7      3.790      7.318
REMARK  Name = 
REMARK  4 active torsions:
REMARK  status: ('A' for Active; 'I' for Inactive)
REMARK    1  A    between atoms: C_1  and  S_2
REMARK    2  A    between atoms: S_2  and  C_3
REMARK    3  A    between atoms: C_11  and  C_12
REMARK    4  A    between atoms: N_20  and  C_21
REMARK                            x       y       z     vdW  Elec       q    Type
REMARK                         _______ _______ _______ _____ _____    ______ ____
ROOT
ATOM      1  C   UNL     1       2.838   4.253  18.614  0.00  0.00    +0.000 A 
ATOM      2  C   UNL     1       4.160   4.507  18.367  0.00  0.00    +0.000 A 
ATOM      3  C   UNL     1       4.727   4.815  19.616  0.00  0.00    +0.000 A 
ATOM      4  N   UNL     1       6.077   5.142  19.837  0.00  0.00    +0.000 NA
ATOM      5  C   UNL     1       6.844   5.126  18.775  0.00  0.00    +0.000 A 
ATOM      6  N   UNL     1       8.183   5.425  18.883  0.00  0.00    +0.000 N 
ATOM      7  N   UNL     1       6.344   4.829  17.484  0.00  0.00    +0.000 N 
ATOM      8  N   UNL     1       7.102   4.836  16.372  0.00  0.00    +0.000 NA
ATOM      9  C   UNL     1       6.185   4.535  15.434  0.00  0.00    +0.000 A 
ATOM     10  N   UNL     1       4.891   4.349  15.913  0.00  0.00    +0.000 NA
ATOM     11  C   UNL     1       5.042   4.534  17.205  0.00  0.00    +0.000 A 
ATOM     12  N   UNL     1       3.849   4.770  20.607  0.00  0.00    +0.000 NA
ATOM     13  N   UNL     1       2.694   4.433  19.982  0.00  0.00    +0.000 N 
ATOM     14  C   UNL     1       1.504   4.281  20.788  0.00  0.00    +0.000 C 
ATOM     15  H   UNL     1       8.430   5.965  19.703  0.00  0.00    +0.000 HD
ATOM     16  H   UNL     1       8.643   5.702  18.017  0.00  0.00    +0.000 HD
ENDROOT
BRANCH   9  17
ATOM     17  C   UNL     1       6.580   4.415  13.996  0.00  0.00    +0.000 A 
ATOM     18  C   UNL     1       6.111   3.497  13.076  0.00  0.00    +0.000 A 
ATOM     19  C   UNL     1       6.779   3.768  11.853  0.00  0.00    +0.000 A 
ATOM     20  C   UNL     1       7.617   4.827  12.100  0.00  0.00    +0.000 A 
ATOM     21  O   UNL     1       7.495   5.236  13.386  0.00  0.00    +0.000 OA
ENDBRANCH   9  17
BRANCH   1  23
ATOM     22  C   UNL     1       0.924   2.306  18.383  0.00  0.00    +0.000 C 
ATOM     23  S   UNL     1       1.497   3.831  17.600  0.00  0.00    +0.000 S 
ENDBRANCH   1  23
TORSDOF 2
ENDMDL
MODEL 6
REMARK VINA RESULT:      -6.7      4.236      5.647
REMARK  Name = 
REMARK  4 active torsions:
REMARK  status: ('A' for Active; 'I' for Inactive)
REMARK    1  A    between atoms: C_1  and  S_2
REMARK    2  A    between atoms: S_2  and  C_3
REMARK    3  A    between atoms: C_11  and  C_12
REMARK    4  A    between atoms: N_20  and  C_21
REMARK                            x       y       z     vdW  Elec       q    Type
REMARK                         _______ _______ _______ _____ _____    ______ ____
ROOT
ATOM      1  C   UNL     1       5.929   4.303  13.894  0.00  0.00    +0.000 A 
ATOM      2  C   UNL     1       5.983   4.446  15.254  0.00  0.00    +0.000 A 
ATOM      3  C   UNL     1       7.228   5.039  15.524  0.00  0.00    +0.000 A 
ATOM      4  N   UNL     1       7.709   5.371  16.804  0.00  0.00    +0.000 NA
ATOM      5  C   UNL     1       6.895   5.116  17.799  0.00  0.00    +0.000 A 
ATOM      6  N   UNL     1       7.266   5.410  19.090  0.00  0.00    +0.000 N 
ATOM      7  N   UNL     1       5.626   4.517  17.604  0.00  0.00    +0.000 N 
ATOM      8  N   UNL     1       4.783   4.216  18.608  0.00  0.00    +0.000 NA
ATOM      9  C   UNL     1       3.767   3.652  17.930  0.00  0.00    +0.000 A 
ATOM     10  N   UNL     1       3.944   3.584  16.552  0.00  0.00    +0.000 NA
ATOM     11  C   UNL     1       5.120   4.147  16.393  0.00  0.00    +0.000 A 
ATOM     12  N   UNL     1       7.941   5.267  14.431  0.00  0.00    +0.000 NA
ATOM     13  N   UNL     1       7.139   4.805  13.439  0.00  0.00    +0.000 N 
ATOM     14  C   UNL     1       7.613   4.913  12.078  0.00  0.00    +0.000 C 
ATOM     15  H   UNL     1       8.265   5.489  19.235  0.00  0.00    +0.000 HD
ATOM     16  H   UNL     1       6.753   4.915  19.819  0.00  0.00    +0.000 HD
ENDROOT
BRANCH   9  17
ATOM     17  C   UNL     1       2.554   3.156  18.653  0.00  0.00    +0.000 A 
ATOM     18  C   UNL     1       2.345   3.142  20.019  0.00  0.00    +0.000 A 
ATOM     19  C   UNL     1       1.061   2.576  20.230  0.00  0.00    +0.000 A 
ATOM     20  C   UNL     1       0.567   2.272  18.985  0.00  0.00    +0.000 A 
ATOM     21  O   UNL     1       1.453   2.632  18.025  0.00  0.00    +0.000 OA
ENDBRANCH   9  17
BRANCH   1  23
ATOM     22  C   UNL     1       5.725   2.419  11.915  0.00  0.00    +0.000 C 
ATOM     23  S   UNL     1       4.746   3.646  12.811  0.00  0.00    +0.000 S 
ENDBRANCH   1  23
TORSDOF 2
ENDMDL
MODEL 7
REMARK VINA RESULT:      -6.5      2.586      3.994
REMARK  Name = 
REMARK  4 active torsions:
REMARK  status: ('A' for Active; 'I' for Inactive)
REMARK    1  A    between atoms: C_1  and  S_2
REMARK    2  A    between atoms: S_2  and  C_3
REMARK    3  A    between atoms: C_11  and  C_12
REMARK    4  A    between atoms: N_20  and  C_21
REMARK                            x       y       z     vdW  Elec       q    Type
REMARK                         _______ _______ _______ _____ _____    ______ ____
ROOT
ATOM      1  C   UNL     1       3.336   4.287  19.898  0.00  0.00    +0.000 A 
ATOM      2  C   UNL     1       3.564   5.238  18.940  0.00  0.00    +0.000 A 
ATOM      3  C   UNL     1       4.575   4.711  18.117  0.00  0.00    +0.000 A 
ATOM      4  N   UNL     1       5.125   5.355  16.994  0.00  0.00    +0.000 NA
ATOM      5  C   UNL     1       4.616   6.528  16.707  0.00  0.00    +0.000 A 
ATOM      6  N   UNL     1       5.079   7.239  15.624  0.00  0.00    +0.000 N 
ATOM      7  N   UNL     1       3.599   7.124  17.493  0.00  0.00    +0.000 N 
ATOM      8  N   UNL     1       3.080   8.339  17.241  0.00  0.00    +0.000 NA
ATOM      9  C   UNL     1       2.206   8.461  18.256  0.00  0.00    +0.000 A 
ATOM     10  N   UNL     1       2.164   7.380  19.131  0.00  0.00    +0.000 NA
ATOM     11  C   UNL     1       3.049   6.562  18.606  0.00  0.00    +0.000 A 
ATOM     12  N   UNL     1       4.981   3.511  18.501  0.00  0.00    +0.000 NA
ATOM     13  N   UNL     1       4.222   3.264  19.598  0.00  0.00    +0.000 N 
ATOM     14  C   UNL     1       4.402   2.002  20.279  0.00  0.00    +0.000 C 
ATOM     15  H   UNL     1       6.007   6.978  15.314  0.00  0.00    +0.000 HD
ATOM     16  H   UNL     1       4.884   8.239  15.638  0.00  0.00    +0.000 HD
ENDROOT
BRANCH   9  17
ATOM     17  C   UNL     1       1.360   9.688  18.387  0.00  0.00    +0.000 A 
ATOM     18  C   UNL     1      -0.015   9.769  18.276  0.00  0.00    +0.000 A 
ATOM     19  C   UNL     1      -0.361  11.132  18.467  0.00  0.00    +0.000 A 
ATOM     20  C   UNL     1       0.820  11.802  18.675  0.00  0.00    +0.000 A 
ATOM     21  O   UNL     1       1.863  10.938  18.644  0.00  0.00    +0.000 OA
ENDBRANCH   9  17
BRANCH   1  23
ATOM     22  C   UNL     1       0.953   3.145  20.623  0.00  0.00    +0.000 C 
ATOM     23  S   UNL     1       2.270   4.204  21.263  0.00  0.00    +0.000 S 
ENDBRANCH   1  23
TORSDOF 2
ENDMDL
MODEL 8
REMARK VINA RESULT:      -6.5      3.171      5.955
REMARK  Name = 
REMARK  4 active torsions:
REMARK  status: ('A' for Active; 'I' for Inactive)
REMARK    1  A    between atoms: C_1  and  S_2
REMARK    2  A    between atoms: S_2  and  C_3
REMARK    3  A    between atoms: C_11  and  C_12
REMARK    4  A    between atoms: N_20  and  C_21
REMARK                            x       y       z     vdW  Elec       q    Type
REMARK                         _______ _______ _______ _____ _____    ______ ____
ROOT
ATOM      1  C   UNL     1       3.290   5.593  18.111  0.00  0.00    +0.000 A 
ATOM      2  C   UNL     1       4.501   5.657  17.476  0.00  0.00    +0.000 A 
ATOM      3  C   UNL     1       4.558   4.521  16.651  0.00  0.00    +0.000 A 
ATOM      4  N   UNL     1       5.632   4.182  15.809  0.00  0.00    +0.000 NA
ATOM      5  C   UNL     1       6.634   5.028  15.800  0.00  0.00    +0.000 A 
ATOM      6  N   UNL     1       7.732   4.793  15.005  0.00  0.00    +0.000 N 
ATOM      7  N   UNL     1       6.649   6.191  16.607  0.00  0.00    +0.000 N 
ATOM      8  N   UNL     1       7.676   7.059  16.643  0.00  0.00    +0.000 NA
ATOM      9  C   UNL     1       7.235   7.943  17.557  0.00  0.00    +0.000 A 
ATOM     10  N   UNL     1       5.984   7.658  18.096  0.00  0.00    +0.000 NA
ATOM     11  C   UNL     1       5.652   6.555  17.463  0.00  0.00    +0.000 A 
ATOM     12  N   UNL     1       3.473   3.766  16.735  0.00  0.00    +0.000 NA
ATOM     13  N   UNL     1       2.707   4.427  17.638  0.00  0.00    +0.000 N 
ATOM     14  C   UNL     1       1.413   3.873  17.965  0.00  0.00    +0.000 C 
ATOM     15  H   UNL     1       7.858   3.826  14.734  0.00  0.00    +0.000 HD
ATOM     16  H   UNL     1       8.581   5.290  15.270  0.00  0.00    +0.000 HD
ENDROOT
BRANCH   9  17
ATOM     17  C   UNL     1       8.065   9.131  17.927  0.00  0.00    +0.000 A 
ATOM     18  C   UNL     1       9.029   9.199  18.914  0.00  0.00    +0.000 A 
ATOM     19  C   UNL     1       9.537  10.525  18.899  0.00  0.00    +0.000 A 
ATOM     20  C   UNL     1       8.849  11.187  17.911  0.00  0.00    +0.000 A 
ATOM     21  O   UNL     1       7.970  10.351  17.307  0.00  0.00    +0.000 OA
ENDBRANCH   9  17
BRANCH   1  23
ATOM     22  C   UNL     1       2.253   8.118  18.338  0.00  0.00    +0.000 C 
ATOM     23  S   UNL     1       2.504   6.599  19.284  0.00  0.00    +0.000 S 
ENDBRANCH   1  23
TORSDOF 2
ENDMDL
MODEL 9
REMARK VINA RESULT:      -6.3      3.917      7.857
REMARK  Name = 
REMARK  4 active torsions:
REMARK  status: ('A' for Active; 'I' for Inactive)
REMARK    1  A    between atoms: C_1  and  S_2
REMARK    2  A    between atoms: S_2  and  C_3
REMARK    3  A    between atoms: C_11  and  C_12
REMARK    4  A    between atoms: N_20  and  C_21
REMARK                            x       y       z     vdW  Elec       q    Type
REMARK                         _______ _______ _______ _____ _____    ______ ____
ROOT
ATOM      1  C   UNL     1       3.448   4.192  18.314  0.00  0.00    +0.000 A 
ATOM      2  C   UNL     1       4.495   4.770  17.649  0.00  0.00    +0.000 A 
ATOM      3  C   UNL     1       4.982   5.772  18.506  0.00  0.00    +0.000 A 
ATOM      4  N   UNL     1       6.066   6.624  18.226  0.00  0.00    +0.000 NA
ATOM      5  C   UNL     1       6.661   6.425  17.076  0.00  0.00    +0.000 A 
ATOM      6  N   UNL     1       7.736   7.201  16.709  0.00  0.00    +0.000 N 
ATOM      7  N   UNL     1       6.224   5.438  16.159  0.00  0.00    +0.000 N 
ATOM      8  N   UNL     1       6.796   5.232  14.959  0.00  0.00    +0.000 NA
ATOM      9  C   UNL     1       6.022   4.246  14.471  0.00  0.00    +0.000 A 
ATOM     10  N   UNL     1       4.991   3.834  15.311  0.00  0.00    +0.000 NA
ATOM     11  C   UNL     1       5.164   4.604  16.362  0.00  0.00    +0.000 A 
ATOM     12  N   UNL     1       4.309   5.850  19.645  0.00  0.00    +0.000 NA
ATOM     13  N   UNL     1       3.367   4.884  19.513  0.00  0.00    +0.000 N 
ATOM     14  C   UNL     1       2.445   4.681  20.607  0.00  0.00    +0.000 C 
ATOM     15  H   UNL     1       7.796   8.092  17.185  0.00  0.00    +0.000 HD
ATOM     16  H   UNL     1       7.946   7.218  15.711  0.00  0.00    +0.000 HD
ENDROOT
BRANCH   9  17
ATOM     17  C   UNL     1       6.294   3.663  13.120  0.00  0.00    +0.000 A 
ATOM     18  C   UNL     1       7.263   4.064  12.219  0.00  0.00    +0.000 A 
ATOM     19  C   UNL     1       7.134   3.226  11.081  0.00  0.00    +0.000 A 
ATOM     20  C   UNL     1       6.093   2.371  11.350  0.00  0.00    +0.000 A 
ATOM     21  O   UNL     1       5.590   2.615  12.584  0.00  0.00    +0.000 OA
ENDBRANCH   9  17
BRANCH   1  23
ATOM     22  C   UNL     1       3.301   1.457  18.363  0.00  0.00    +0.000 C 
ATOM     23  S   UNL     1       2.340   2.920  17.914  0.00  0.00    +0.000 S 
ENDBRANCH   1  23
TORSDOF 2
ENDMDL
