MODEL 1
REMARK VINA RESULT:      -6.9      0.000      0.000
REMARK  Name = 
REMARK  4 active torsions:
REMARK  status: ('A' for Active; 'I' for Inactive)
REMARK    1  A    between atoms: C_1  and  O_2
REMARK    2  A    between atoms: O_2  and  C_3
REMARK    3  A    between atoms: C_10  and  S_11
REMARK    4  A    between atoms: S_11  and  N_12
REMARK                            x       y       z     vdW  Elec       q    Type
REMARK                         _______ _______ _______ _____ _____    ______ ____
ROOT
ATOM      1  C   UNL     1       6.676   6.000  16.657  0.00  0.00    +0.000 A 
ATOM      2  C   UNL     1       6.335   5.139  15.612  0.00  0.00    +0.000 A 
ATOM      3  C   UNL     1       5.220   4.306  15.724  0.00  0.00    +0.000 A 
ATOM      4  C   UNL     1       4.428   4.337  16.875  0.00  0.00    +0.000 A 
ATOM      5  C   UNL     1       4.768   5.197  17.934  0.00  0.00    +0.000 A 
ATOM      6  C   UNL     1       5.890   6.024  17.815  0.00  0.00    +0.000 A 
ATOM      7  C   UNL     1       3.962   5.192  19.162  0.00  0.00    +0.000 C 
ATOM      8  C   UNL     1       2.747   4.612  19.162  0.00  0.00    +0.000 C 
ATOM      9  C   UNL     1       2.176   3.936  17.950  0.00  0.00    +0.000 C 
ATOM     10  C   UNL     1       3.267   3.386  17.025  0.00  0.00    +0.000 C 
ENDROOT
BRANCH   8  11
ATOM     11  S   UNL     1       1.829   4.586  20.638  0.00  0.00    +0.000 S 
ATOM     12  O   UNL     1       2.541   3.818  21.634  0.00  0.00    +0.000 OA
ATOM     13  O   UNL     1       1.345   5.919  20.917  0.00  0.00    +0.000 OA
BRANCH  11  14
ATOM     14  N   UNL     1       0.462   3.676  20.287  0.00  0.00    +0.000 NA
ATOM     15  H   UNL     1       0.134   3.793  19.331  0.00  0.00    +0.000 HD
ATOM     16  H   UNL     1      -0.238   3.687  21.023  0.00  0.00    +0.000 HD
ENDBRANCH  11  14
ENDBRANCH   8  11
BRANCH   1  18
ATOM     17  C   UNL     1       7.680   7.945  17.580  0.00  0.00    +0.000 C 
ATOM     18  O   UNL     1       7.745   6.856  16.666  0.00  0.00    +0.000 OA
ENDBRANCH   1  18
TORSDOF 3
ENDMDL
MODEL 2
REMARK VINA RESULT:      -6.7      0.960      1.190
REMARK  Name = 
REMARK  4 active torsions:
REMARK  status: ('A' for Active; 'I' for Inactive)
REMARK    1  A    between atoms: C_1  and  O_2
REMARK    2  A    between atoms: O_2  and  C_3
REMARK    3  A    between atoms: C_10  and  S_11
REMARK    4  A    between atoms: S_11  and  N_12
REMARK                            x       y       z     vdW  Elec       q    Type
REMARK                         _______ _______ _______ _____ _____    ______ ____
ROOT
ATOM      1  C   UNL     1       6.832   5.999  16.710  0.00  0.00    +0.000 A 
ATOM      2  C   UNL     1       6.696   4.928  15.826  0.00  0.00    +0.000 A 
ATOM      3  C   UNL     1       5.695   3.976  16.025  0.00  0.00    +0.000 A 
ATOM      4  C   UNL     1       4.812   4.095  17.102  0.00  0.00    +0.000 A 
ATOM      5  C   UNL     1       4.945   5.168  18.000  0.00  0.00    +0.000 A 
ATOM      6  C   UNL     1       5.956   6.114  17.795  0.00  0.00    +0.000 A 
ATOM      7  C   UNL     1       4.047   5.263  19.158  0.00  0.00    +0.000 C 
ATOM      8  C   UNL     1       2.922   4.524  19.195  0.00  0.00    +0.000 C 
ATOM      9  C   UNL     1       2.549   3.570  18.098  0.00  0.00    +0.000 C 
ATOM     10  C   UNL     1       3.776   3.029  17.358  0.00  0.00    +0.000 C 
ENDROOT
BRANCH   8  11
ATOM     11  S   UNL     1       1.895   4.627  20.593  0.00  0.00    +0.000 S 
ATOM     12  O   UNL     1       0.548   4.248  20.229  0.00  0.00    +0.000 OA
ATOM     13  O   UNL     1       2.570   4.024  21.720  0.00  0.00    +0.000 OA
BRANCH  11  14
ATOM     14  N   UNL     1       1.802   6.265  20.949  0.00  0.00    +0.000 NA
ATOM     15  H   UNL     1       1.314   6.805  20.238  0.00  0.00    +0.000 HD
ATOM     16  H   UNL     1       2.665   6.655  21.318  0.00  0.00    +0.000 HD
ENDBRANCH  11  14
ENDBRANCH   8  11
BRANCH   1  18
ATOM     17  C   UNL     1       7.740   7.992  17.631  0.00  0.00    +0.000 C 
ATOM     18  O   UNL     1       7.776   6.988  16.623  0.00  0.00    +0.000 OA
ENDBRANCH   1  18
TORSDOF 3
ENDMDL
MODEL 3
REMARK VINA RESULT:      -6.7      3.243      5.930
REMARK  Name = 
REMARK  4 active torsions:
REMARK  status: ('A' for Active; 'I' for Inactive)
REMARK    1  A    between atoms: C_1  and  O_2
REMARK    2  A    between atoms: O_2  and  C_3
REMARK    3  A    between atoms: C_10  and  S_11
REMARK    4  A    between atoms: S_11  and  N_12
REMARK                            x       y       z     vdW  Elec       q    Type
REMARK                         _______ _______ _______ _____ _____    ______ ____
ROOT
ATOM      1  C   UNL     1       2.053   4.527  20.093  0.00  0.00    +0.000 A 
ATOM      2  C   UNL     1       1.706   5.878  20.052  0.00  0.00    +0.000 A 
ATOM      3  C   UNL     1       2.419   6.762  19.241  0.00  0.00    +0.000 A 
ATOM      4  C   UNL     1       3.476   6.300  18.452  0.00  0.00    +0.000 A 
ATOM      5  C   UNL     1       3.835   4.942  18.491  0.00  0.00    +0.000 A 
ATOM      6  C   UNL     1       3.118   4.065  19.312  0.00  0.00    +0.000 A 
ATOM      7  C   UNL     1       4.978   4.469  17.698  0.00  0.00    +0.000 C 
ATOM      8  C   UNL     1       5.477   5.243  16.716  0.00  0.00    +0.000 C 
ATOM      9  C   UNL     1       4.926   6.604  16.405  0.00  0.00    +0.000 C 
ATOM     10  C   UNL     1       4.291   7.267  17.630  0.00  0.00    +0.000 C 
ENDROOT
BRANCH   8  11
ATOM     11  S   UNL     1       6.852   4.676  15.817  0.00  0.00    +0.000 S 
ATOM     12  O   UNL     1       6.476   3.516  15.042  0.00  0.00    +0.000 OA
ATOM     13  O   UNL     1       7.517   5.807  15.210  0.00  0.00    +0.000 OA
BRANCH  11  14
ATOM     14  N   UNL     1       7.922   4.095  16.974  0.00  0.00    +0.000 NA
ATOM     15  H   UNL     1       8.756   4.669  17.077  0.00  0.00    +0.000 HD
ATOM     16  H   UNL     1       8.053   3.088  16.942  0.00  0.00    +0.000 HD
ENDBRANCH  11  14
ENDBRANCH   8  11
BRANCH   1  18
ATOM     17  C   UNL     1       2.275   2.776  21.684  0.00  0.00    +0.000 C 
ATOM     18  O   UNL     1       1.434   3.569  20.852  0.00  0.00    +0.000 OA
ENDBRANCH   1  18
TORSDOF 3
ENDMDL
MODEL 4
REMARK VINA RESULT:      -6.7      2.116      3.038
REMARK  Name = 
REMARK  4 active torsions:
REMARK  status: ('A' for Active; 'I' for Inactive)
REMARK    1  A    between atoms: C_1  and  O_2
REMARK    2  A    between atoms: O_2  and  C_3
REMARK    3  A    between atoms: C_10  and  S_11
REMARK    4  A    between atoms: S_11  and  N_12
REMARK                            x       y       z     vdW  Elec       q    Type
REMARK                         _______ _______ _______ _____ _____    ______ ____
ROOT
ATOM      1  C   UNL     1       6.648   4.550  14.931  0.00  0.00    +0.000 A 
ATOM      2  C   UNL     1       7.572   4.918  15.911  0.00  0.00    +0.000 A 
ATOM      3  C   UNL     1       7.203   4.923  17.257  0.00  0.00    +0.000 A 
ATOM      4  C   UNL     1       5.912   4.545  17.637  0.00  0.00    +0.000 A 
ATOM      5  C   UNL     1       4.975   4.177  16.656  0.00  0.00    +0.000 A 
ATOM      6  C   UNL     1       5.352   4.181  15.309  0.00  0.00    +0.000 A 
ATOM      7  C   UNL     1       3.605   3.827  17.054  0.00  0.00    +0.000 C 
ATOM      8  C   UNL     1       3.331   3.558  18.344  0.00  0.00    +0.000 C 
ATOM      9  C   UNL     1       4.376   3.625  19.420  0.00  0.00    +0.000 C 
ATOM     10  C   UNL     1       5.493   4.617  19.084  0.00  0.00    +0.000 C 
ENDROOT
BRANCH   8  11
ATOM     11  S   UNL     1       1.695   3.184  18.796  0.00  0.00    +0.000 S 
ATOM     12  O   UNL     1       1.481   3.552  20.177  0.00  0.00    +0.000 OA
ATOM     13  O   UNL     1       0.803   3.629  17.750  0.00  0.00    +0.000 OA
BRANCH  11  14
ATOM     14  N   UNL     1       1.608   1.507  18.777  0.00  0.00    +0.000 NA
ATOM     15  H   UNL     1       0.786   1.141  19.252  0.00  0.00    +0.000 HD
ATOM     16  H   UNL     1       2.495   1.048  18.963  0.00  0.00    +0.000 HD
ENDBRANCH  11  14
ENDBRANCH   8  11
BRANCH   1  18
ATOM     17  C   UNL     1       6.151   3.557  12.830  0.00  0.00    +0.000 C 
ATOM     18  O   UNL     1       6.890   4.513  13.583  0.00  0.00    +0.000 OA
ENDBRANCH   1  18
TORSDOF 3
ENDMDL
MODEL 5
REMARK VINA RESULT:      -6.7      3.262      6.053
REMARK  Name = 
REMARK  4 active torsions:
REMARK  status: ('A' for Active; 'I' for Inactive)
REMARK    1  A    between atoms: C_1  and  O_2
REMARK    2  A    between atoms: O_2  and  C_3
REMARK    3  A    between atoms: C_10  and  S_11
REMARK    4  A    between atoms: S_11  and  N_12
REMARK                            x       y       z     vdW  Elec       q    Type
REMARK                         _______ _______ _______ _____ _____    ______ ____
ROOT
ATOM      1  C   UNL     1       2.078   3.737  19.681  0.00  0.00    +0.000 A 
ATOM      2  C   UNL     1       1.714   5.068  19.892  0.00  0.00    +0.000 A 
ATOM      3  C   UNL     1       2.394   6.094  19.233  0.00  0.00    +0.000 A 
ATOM      4  C   UNL     1       3.434   5.798  18.348  0.00  0.00    +0.000 A 
ATOM      5  C   UNL     1       3.810   4.460  18.134  0.00  0.00    +0.000 A 
ATOM      6  C   UNL     1       3.126   3.439  18.803  0.00  0.00    +0.000 A 
ATOM      7  C   UNL     1       4.935   4.155  17.240  0.00  0.00    +0.000 C 
ATOM      8  C   UNL     1       5.397   5.100  16.400  0.00  0.00    +0.000 C 
ATOM      9  C   UNL     1       4.822   6.486  16.351  0.00  0.00    +0.000 C 
ATOM     10  C   UNL     1       4.214   6.909  17.691  0.00  0.00    +0.000 C 
ENDROOT
BRANCH   8  11
ATOM     11  S   UNL     1       6.753   4.726  15.379  0.00  0.00    +0.000 S 
ATOM     12  O   UNL     1       6.868   5.728  14.344  0.00  0.00    +0.000 OA
ATOM     13  O   UNL     1       7.882   4.364  16.207  0.00  0.00    +0.000 OA
BRANCH  11  14
ATOM     14  N   UNL     1       6.319   3.319  14.572  0.00  0.00    +0.000 NA
ATOM     15  H   UNL     1       6.870   2.509  14.848  0.00  0.00    +0.000 HD
ATOM     16  H   UNL     1       6.152   3.450  13.579  0.00  0.00    +0.000 HD
ENDBRANCH  11  14
ENDBRANCH   8  11
BRANCH   1  18
ATOM     17  C   UNL     1       1.510   2.613  21.695  0.00  0.00    +0.000 C 
ATOM     18  O   UNL     1       1.493   2.649  20.272  0.00  0.00    +0.000 OA
ENDBRANCH   1  18
TORSDOF 3
ENDMDL
MODEL 6
REMARK VINA RESULT:      -6.7      1.834      2.773
REMARK  Name = 
REMARK  4 active torsions:
REMARK  status: ('A' for Active; 'I' for Inactive)
REMARK    1  A    between atoms: C_1  and  O_2
REMARK    2  A    between atoms: O_2  and  C_3
REMARK    3  A    between atoms: C_10  and  S_11
REMARK    4  A    between atoms: S_11  and  N_12
REMARK                            x       y       z     vdW  Elec       q    Type
REMARK                         _______ _______ _______ _____ _____    ______ ____
ROOT
ATOM      1  C   UNL     1       5.865   4.579  15.290  0.00  0.00    +0.000 A 
ATOM      2  C   UNL     1       5.740   5.965  15.399  0.00  0.00    +0.000 A 
ATOM      3  C   UNL     1       4.912   6.521  16.375  0.00  0.00    +0.000 A 
ATOM      4  C   UNL     1       4.211   5.696  17.260  0.00  0.00    +0.000 A 
ATOM      5  C   UNL     1       4.328   4.299  17.154  0.00  0.00    +0.000 A 
ATOM      6  C   UNL     1       5.157   3.752  16.169  0.00  0.00    +0.000 A 
ATOM      7  C   UNL     1       3.553   3.434  18.054  0.00  0.00    +0.000 C 
ATOM      8  C   UNL     1       2.987   3.955  19.158  0.00  0.00    +0.000 C 
ATOM      9  C   UNL     1       3.091   5.411  19.507  0.00  0.00    +0.000 C 
ATOM     10  C   UNL     1       3.261   6.294  18.268  0.00  0.00    +0.000 C 
ENDROOT
BRANCH   8  11
ATOM     11  S   UNL     1       2.043   2.919  20.187  0.00  0.00    +0.000 S 
ATOM     12  O   UNL     1       1.738   1.693  19.485  0.00  0.00    +0.000 OA
ATOM     13  O   UNL     1       2.629   2.906  21.508  0.00  0.00    +0.000 OA
BRANCH  11  14
ATOM     14  N   UNL     1       0.566   3.699  20.358  0.00  0.00    +0.000 NA
ATOM     15  H   UNL     1       0.563   4.399  21.097  0.00  0.00    +0.000 HD
ATOM     16  H   UNL     1      -0.235   3.077  20.304  0.00  0.00    +0.000 HD
ENDBRANCH  11  14
ENDBRANCH   8  11
BRANCH   1  18
ATOM     17  C   UNL     1       6.077   3.742  13.077  0.00  0.00    +0.000 C 
ATOM     18  O   UNL     1       6.639   3.919  14.373  0.00  0.00    +0.000 OA
ENDBRANCH   1  18
TORSDOF 3
ENDMDL
MODEL 7
REMARK VINA RESULT:      -6.7      0.907      1.082
REMARK  Name = 
REMARK  4 active torsions:
REMARK  status: ('A' for Active; 'I' for Inactive)
REMARK    1  A    between atoms: C_1  and  O_2
REMARK    2  A    between atoms: O_2  and  C_3
REMARK    3  A    between atoms: C_10  and  S_11
REMARK    4  A    between atoms: S_11  and  N_12
REMARK                            x       y       z     vdW  Elec       q    Type
REMARK                         _______ _______ _______ _____ _____    ______ ____
ROOT
ATOM      1  C   UNL     1       6.707   5.972  16.635  0.00  0.00    +0.000 A 
ATOM      2  C   UNL     1       6.516   4.949  15.705  0.00  0.00    +0.000 A 
ATOM      3  C   UNL     1       5.457   4.052  15.855  0.00  0.00    +0.000 A 
ATOM      4  C   UNL     1       4.571   4.179  16.928  0.00  0.00    +0.000 A 
ATOM      5  C   UNL     1       4.759   5.204  17.872  0.00  0.00    +0.000 A 
ATOM      6  C   UNL     1       5.827   6.095  17.716  0.00  0.00    +0.000 A 
ATOM      7  C   UNL     1       3.855   5.306  19.025  0.00  0.00    +0.000 C 
ATOM      8  C   UNL     1       2.688   4.636  19.021  0.00  0.00    +0.000 C 
ATOM      9  C   UNL     1       2.270   3.752  17.882  0.00  0.00    +0.000 C 
ATOM     10  C   UNL     1       3.470   3.168  17.130  0.00  0.00    +0.000 C 
ENDROOT
BRANCH   8  11
ATOM     11  S   UNL     1       1.653   4.742  20.413  0.00  0.00    +0.000 S 
ATOM     12  O   UNL     1       1.562   6.120  20.842  0.00  0.00    +0.000 OA
ATOM     13  O   UNL     1       0.469   3.945  20.184  0.00  0.00    +0.000 OA
BRANCH  11  14
ATOM     14  N   UNL     1       2.489   3.961  21.642  0.00  0.00    +0.000 NA
ATOM     15  H   UNL     1       2.463   2.947  21.566  0.00  0.00    +0.000 HD
ATOM     16  H   UNL     1       2.335   4.362  22.562  0.00  0.00    +0.000 HD
ENDBRANCH  11  14
ENDBRANCH   8  11
BRANCH   1  18
ATOM     17  C   UNL     1       7.727   7.863  17.650  0.00  0.00    +0.000 C 
ATOM     18  O   UNL     1       7.710   6.905  16.597  0.00  0.00    +0.000 OA
ENDBRANCH   1  18
TORSDOF 3
ENDMDL
MODEL 8
REMARK VINA RESULT:      -6.6      3.219      5.991
REMARK  Name = 
REMARK  4 active torsions:
REMARK  status: ('A' for Active; 'I' for Inactive)
REMARK    1  A    between atoms: C_1  and  O_2
REMARK    2  A    between atoms: O_2  and  C_3
REMARK    3  A    between atoms: C_10  and  S_11
REMARK    4  A    between atoms: S_11  and  N_12
REMARK                            x       y       z     vdW  Elec       q    Type
REMARK                         _______ _______ _______ _____ _____    ______ ____
ROOT
ATOM      1  C   UNL     1       2.487   4.548  20.963  0.00  0.00    +0.000 A 
ATOM      2  C   UNL     1       1.624   5.588  20.614  0.00  0.00    +0.000 A 
ATOM      3  C   UNL     1       1.967   6.472  19.590  0.00  0.00    +0.000 A 
ATOM      4  C   UNL     1       3.171   6.316  18.896  0.00  0.00    +0.000 A 
ATOM      5  C   UNL     1       4.048   5.274  19.244  0.00  0.00    +0.000 A 
ATOM      6  C   UNL     1       3.697   4.397  20.276  0.00  0.00    +0.000 A 
ATOM      7  C   UNL     1       5.333   5.141  18.546  0.00  0.00    +0.000 C 
ATOM      8  C   UNL     1       5.538   5.801  17.390  0.00  0.00    +0.000 C 
ATOM      9  C   UNL     1       4.503   6.703  16.783  0.00  0.00    +0.000 C 
ATOM     10  C   UNL     1       3.574   7.312  17.838  0.00  0.00    +0.000 C 
ENDROOT
BRANCH   8  11
ATOM     11  S   UNL     1       7.080   5.658  16.603  0.00  0.00    +0.000 S 
ATOM     12  O   UNL     1       7.742   6.943  16.602  0.00  0.00    +0.000 OA
ATOM     13  O   UNL     1       7.746   4.467  17.081  0.00  0.00    +0.000 OA
BRANCH  11  14
ATOM     14  N   UNL     1       6.722   5.355  14.990  0.00  0.00    +0.000 NA
ATOM     15  H   UNL     1       7.549   5.215  14.413  0.00  0.00    +0.000 HD
ATOM     16  H   UNL     1       5.989   5.948  14.614  0.00  0.00    +0.000 HD
ENDBRANCH  11  14
ENDBRANCH   8  11
BRANCH   1  18
ATOM     17  C   UNL     1       1.454   2.508  21.605  0.00  0.00    +0.000 C 
ATOM     18  O   UNL     1       2.264   3.626  21.951  0.00  0.00    +0.000 OA
ENDBRANCH   1  18
TORSDOF 3
ENDMDL
MODEL 9
REMARK VINA RESULT:      -6.6      1.839      2.674
REMARK  Name = 
REMARK  4 active torsions:
REMARK  status: ('A' for Active; 'I' for Inactive)
REMARK    1  A    between atoms: C_1  and  O_2
REMARK    2  A    between atoms: O_2  and  C_3
REMARK    3  A    between atoms: C_10  and  S_11
REMARK    4  A    between atoms: S_11  and  N_12
REMARK                            x       y       z     vdW  Elec       q    Type
REMARK                         _______ _______ _______ _____ _____    ______ ____
ROOT
ATOM      1  C   UNL     1       5.879   4.755  15.312  0.00  0.00    +0.000 A 
ATOM      2  C   UNL     1       5.730   6.139  15.415  0.00  0.00    +0.000 A 
ATOM      3  C   UNL     1       4.872   6.684  16.371  0.00  0.00    +0.000 A 
ATOM      4  C   UNL     1       4.166   5.850  17.244  0.00  0.00    +0.000 A 
ATOM      5  C   UNL     1       4.307   4.455  17.144  0.00  0.00    +0.000 A 
ATOM      6  C   UNL     1       5.165   3.919  16.178  0.00  0.00    +0.000 A 
ATOM      7  C   UNL     1       3.527   3.580  18.029  0.00  0.00    +0.000 C 
ATOM      8  C   UNL     1       2.929   4.095  19.120  0.00  0.00    +0.000 C 
ATOM      9  C   UNL     1       3.003   5.553  19.468  0.00  0.00    +0.000 C 
ATOM     10  C   UNL     1       3.186   6.436  18.229  0.00  0.00    +0.000 C 
ENDROOT
BRANCH   8  11
ATOM     11  S   UNL     1       1.981   3.046  20.132  0.00  0.00    +0.000 S 
ATOM     12  O   UNL     1       2.795   2.566  21.225  0.00  0.00    +0.000 OA
ATOM     13  O   UNL     1       0.690   3.654  20.363  0.00  0.00    +0.000 OA
BRANCH  11  14
ATOM     14  N   UNL     1       1.676   1.689  19.192  0.00  0.00    +0.000 NA
ATOM     15  H   UNL     1       2.372   0.955  19.306  0.00  0.00    +0.000 HD
ATOM     16  H   UNL     1       1.380   1.904  18.244  0.00  0.00    +0.000 HD
ENDBRANCH  11  14
ENDBRANCH   8  11
BRANCH   1  18
ATOM     17  C   UNL     1       6.074   3.704  13.190  0.00  0.00    +0.000 C 
ATOM     18  O   UNL     1       6.683   4.106  14.413  0.00  0.00    +0.000 OA
ENDBRANCH   1  18
TORSDOF 3
ENDMDL
