MODEL 1
REMARK VINA RESULT:      -6.0      0.000      0.000
REMARK  Name = 
REMARK  7 active torsions:
REMARK  status: ('A' for Active; 'I' for Inactive)
REMARK    1  A    between atoms: C_2  and  C_3
REMARK    2  A    between atoms: C_3  and  N_4
REMARK    3  A    between atoms: C_8  and  O_9
REMARK    4  A    between atoms: O_9  and  C_10
REMARK    5  A    between atoms: N_12  and  C_13
REMARK    6  A    between atoms: N_12  and  C_14
REMARK    7  A    between atoms: C_14  and  C_15
REMARK                            x       y       z     vdW  Elec       q    Type
REMARK                         _______ _______ _______ _____ _____    ______ ____
ROOT
ATOM      1  N   UNL     1       6.517   4.303  15.621  0.00  0.00    +0.000 NA
ATOM      2  C   UNL     1       7.264   5.032  16.654  0.00  0.00    +0.000 C 
ATOM      3  C   UNL     1       6.893   4.548  18.058  0.00  0.00    +0.000 C 
ATOM      4  C   UNL     1       5.394   4.662  18.314  0.00  0.00    +0.000 C 
ATOM      5  C   UNL     1       4.607   3.935  17.225  0.00  0.00    +0.000 C 
ATOM      6  C   UNL     1       5.059   4.435  15.839  0.00  0.00    +0.000 C 
ENDROOT
BRANCH   1   7
ATOM      7  C   UNL     1       6.931   4.759  14.278  0.00  0.00    +0.000 C 
BRANCH   7   9
ATOM      8  C   UNL     1       5.720   3.122  12.322  0.00  0.00    +0.000 C 
ATOM      9  C   UNL     1       6.279   3.877  13.225  0.00  0.00    +0.000 C 
ENDBRANCH   7   9
ENDBRANCH   1   7
BRANCH   5  10
ATOM     10  O   UNL     1       3.195   4.213  17.362  0.00  0.00    +0.000 OA
BRANCH  10  11
ATOM     11  C   UNL     1       2.457   3.290  18.041  0.00  0.00    +0.000 C 
ATOM     12  O   UNL     1       2.298   2.138  17.660  0.00  0.00    +0.000 OA
ATOM     13  N   UNL     1       1.922   3.789  19.221  0.00  0.00    +0.000 N 
ATOM     14  C   UNL     1       2.028   5.180  19.629  0.00  0.00    +0.000 C 
BRANCH  13  15
ATOM     15  C   UNL     1       1.147   2.898  20.077  0.00  0.00    +0.000 C 
ATOM     16  C   UNL     1       1.732   2.763  21.474  0.00  0.00    +0.000 C 
ENDBRANCH  13  15
ENDBRANCH  10  11
ENDBRANCH   5  10
TORSDOF 5
ENDMDL
MODEL 2
REMARK VINA RESULT:      -5.8      1.607      1.877
REMARK  Name = 
REMARK  7 active torsions:
REMARK  status: ('A' for Active; 'I' for Inactive)
REMARK    1  A    between atoms: C_2  and  C_3
REMARK    2  A    between atoms: C_3  and  N_4
REMARK    3  A    between atoms: C_8  and  O_9
REMARK    4  A    between atoms: O_9  and  C_10
REMARK    5  A    between atoms: N_12  and  C_13
REMARK    6  A    between atoms: N_12  and  C_14
REMARK    7  A    between atoms: C_14  and  C_15
REMARK                            x       y       z     vdW  Elec       q    Type
REMARK                         _______ _______ _______ _____ _____    ______ ____
ROOT
ATOM      1  N   UNL     1       6.277   5.250  15.927  0.00  0.00    +0.000 NA
ATOM      2  C   UNL     1       5.362   6.355  15.614  0.00  0.00    +0.000 C 
ATOM      3  C   UNL     1       4.552   6.774  16.843  0.00  0.00    +0.000 C 
ATOM      4  C   UNL     1       3.776   5.601  17.432  0.00  0.00    +0.000 C 
ATOM      5  C   UNL     1       4.715   4.433  17.729  0.00  0.00    +0.000 C 
ATOM      6  C   UNL     1       5.532   4.091  16.466  0.00  0.00    +0.000 C 
ENDROOT
BRANCH   1   7
ATOM      7  C   UNL     1       7.078   4.901  14.735  0.00  0.00    +0.000 C 
BRANCH   7   9
ATOM      8  C   UNL     1       5.489   3.397  12.950  0.00  0.00    +0.000 C 
ATOM      9  C   UNL     1       6.222   4.092  13.774  0.00  0.00    +0.000 C 
ENDBRANCH   7   9
ENDBRANCH   1   7
BRANCH   5  10
ATOM     10  O   UNL     1       3.951   3.262  18.097  0.00  0.00    +0.000 OA
BRANCH  10  11
ATOM     11  C   UNL     1       4.012   2.883  19.405  0.00  0.00    +0.000 C 
ATOM     12  O   UNL     1       5.044   2.526  19.958  0.00  0.00    +0.000 OA
ATOM     13  N   UNL     1       2.785   2.966  20.048  0.00  0.00    +0.000 N 
ATOM     14  C   UNL     1       1.541   3.296  19.372  0.00  0.00    +0.000 C 
BRANCH  13  15
ATOM     15  C   UNL     1       2.708   2.637  21.467  0.00  0.00    +0.000 C 
ATOM     16  C   UNL     1       1.278   2.546  21.977  0.00  0.00    +0.000 C 
ENDBRANCH  13  15
ENDBRANCH  10  11
ENDBRANCH   5  10
TORSDOF 5
ENDMDL
MODEL 3
REMARK VINA RESULT:      -5.8      1.847      3.404
REMARK  Name = 
REMARK  7 active torsions:
REMARK  status: ('A' for Active; 'I' for Inactive)
REMARK    1  A    between atoms: C_2  and  C_3
REMARK    2  A    between atoms: C_3  and  N_4
REMARK    3  A    between atoms: C_8  and  O_9
REMARK    4  A    between atoms: O_9  and  C_10
REMARK    5  A    between atoms: N_12  and  C_13
REMARK    6  A    between atoms: N_12  and  C_14
REMARK    7  A    between atoms: C_14  and  C_15
REMARK                            x       y       z     vdW  Elec       q    Type
REMARK                         _______ _______ _______ _____ _____    ______ ____
ROOT
ATOM      1  N   UNL     1       6.732   5.761  17.301  0.00  0.00    +0.000 NA
ATOM      2  C   UNL     1       7.415   5.047  16.214  0.00  0.00    +0.000 C 
ATOM      3  C   UNL     1       6.426   4.579  15.145  0.00  0.00    +0.000 C 
ATOM      4  C   UNL     1       5.327   3.704  15.739  0.00  0.00    +0.000 C 
ATOM      5  C   UNL     1       4.633   4.425  16.893  0.00  0.00    +0.000 C 
ATOM      6  C   UNL     1       5.686   4.909  17.909  0.00  0.00    +0.000 C 
ENDROOT
BRANCH   1   7
ATOM      7  C   UNL     1       7.718   6.240  18.292  0.00  0.00    +0.000 C 
BRANCH   7   9
ATOM      8  C   UNL     1       8.184   8.995  17.885  0.00  0.00    +0.000 C 
ATOM      9  C   UNL     1       7.969   7.724  18.073  0.00  0.00    +0.000 C 
ENDBRANCH   7   9
ENDBRANCH   1   7
BRANCH   5  10
ATOM     10  O   UNL     1       3.734   3.522  17.576  0.00  0.00    +0.000 OA
BRANCH  10  11
ATOM     11  C   UNL     1       2.932   4.070  18.532  0.00  0.00    +0.000 C 
ATOM     12  O   UNL     1       2.152   4.988  18.315  0.00  0.00    +0.000 OA
ATOM     13  N   UNL     1       3.078   3.464  19.771  0.00  0.00    +0.000 N 
ATOM     14  C   UNL     1       4.071   2.440  20.056  0.00  0.00    +0.000 C 
BRANCH  13  15
ATOM     15  C   UNL     1       2.247   3.916  20.882  0.00  0.00    +0.000 C 
ATOM     16  C   UNL     1       1.468   2.786  21.535  0.00  0.00    +0.000 C 
ENDBRANCH  13  15
ENDBRANCH  10  11
ENDBRANCH   5  10
TORSDOF 5
ENDMDL
MODEL 4
REMARK VINA RESULT:      -5.7      1.531      3.207
REMARK  Name = 
REMARK  7 active torsions:
REMARK  status: ('A' for Active; 'I' for Inactive)
REMARK    1  A    between atoms: C_2  and  C_3
REMARK    2  A    between atoms: C_3  and  N_4
REMARK    3  A    between atoms: C_8  and  O_9
REMARK    4  A    between atoms: O_9  and  C_10
REMARK    5  A    between atoms: N_12  and  C_13
REMARK    6  A    between atoms: N_12  and  C_14
REMARK    7  A    between atoms: C_14  and  C_15
REMARK                            x       y       z     vdW  Elec       q    Type
REMARK                         _______ _______ _______ _____ _____    ______ ____
ROOT
ATOM      1  N   UNL     1       6.078   6.087  16.537  0.00  0.00    +0.000 NA
ATOM      2  C   UNL     1       6.995   5.485  15.560  0.00  0.00    +0.000 C 
ATOM      3  C   UNL     1       6.272   4.480  14.661  0.00  0.00    +0.000 C 
ATOM      4  C   UNL     1       5.583   3.391  15.475  0.00  0.00    +0.000 C 
ATOM      5  C   UNL     1       4.652   4.008  16.517  0.00  0.00    +0.000 C 
ATOM      6  C   UNL     1       5.429   5.041  17.358  0.00  0.00    +0.000 C 
ENDROOT
BRANCH   1   7
ATOM      7  C   UNL     1       6.794   7.086  17.357  0.00  0.00    +0.000 C 
BRANCH   7   9
ATOM      8  C   UNL     1       8.167   5.769  19.443  0.00  0.00    +0.000 C 
ATOM      9  C   UNL     1       7.534   6.377  18.480  0.00  0.00    +0.000 C 
ENDBRANCH   7   9
ENDBRANCH   1   7
BRANCH   5  10
ATOM     10  O   UNL     1       4.159   2.985  17.412  0.00  0.00    +0.000 OA
BRANCH  10  11
ATOM     11  C   UNL     1       2.855   3.092  17.797  0.00  0.00    +0.000 C 
ATOM     12  O   UNL     1       1.947   3.392  17.033  0.00  0.00    +0.000 OA
ATOM     13  N   UNL     1       2.665   2.806  19.141  0.00  0.00    +0.000 N 
ATOM     14  C   UNL     1       3.751   2.545  20.072  0.00  0.00    +0.000 C 
BRANCH  13  15
ATOM     15  C   UNL     1       1.311   2.834  19.685  0.00  0.00    +0.000 C 
ATOM     16  C   UNL     1       1.021   4.094  20.485  0.00  0.00    +0.000 C 
ENDBRANCH  13  15
ENDBRANCH  10  11
ENDBRANCH   5  10
TORSDOF 5
ENDMDL
MODEL 5
REMARK VINA RESULT:      -5.7      2.928      6.170
REMARK  Name = 
REMARK  7 active torsions:
REMARK  status: ('A' for Active; 'I' for Inactive)
REMARK    1  A    between atoms: C_2  and  C_3
REMARK    2  A    between atoms: C_3  and  N_4
REMARK    3  A    between atoms: C_8  and  O_9
REMARK    4  A    between atoms: O_9  and  C_10
REMARK    5  A    between atoms: N_12  and  C_13
REMARK    6  A    between atoms: N_12  and  C_14
REMARK    7  A    between atoms: C_14  and  C_15
REMARK                            x       y       z     vdW  Elec       q    Type
REMARK                         _______ _______ _______ _____ _____    ______ ____
ROOT
ATOM      1  N   UNL     1       2.838   5.459  20.025  0.00  0.00    +0.000 NA
ATOM      2  C   UNL     1       2.009   4.466  19.328  0.00  0.00    +0.000 C 
ATOM      3  C   UNL     1       2.693   3.098  19.284  0.00  0.00    +0.000 C 
ATOM      4  C   UNL     1       4.071   3.180  18.636  0.00  0.00    +0.000 C 
ATOM      5  C   UNL     1       4.930   4.234  19.332  0.00  0.00    +0.000 C 
ATOM      6  C   UNL     1       4.166   5.572  19.383  0.00  0.00    +0.000 C 
ENDROOT
BRANCH   1   7
ATOM      7  C   UNL     1       2.130   6.754  20.093  0.00  0.00    +0.000 C 
BRANCH   7   9
ATOM      8  C   UNL     1       2.566   8.181  17.696  0.00  0.00    +0.000 C 
ATOM      9  C   UNL     1       2.364   7.523  18.802  0.00  0.00    +0.000 C 
ENDBRANCH   7   9
ENDBRANCH   1   7
BRANCH   5  10
ATOM     10  O   UNL     1       6.154   4.446  18.593  0.00  0.00    +0.000 OA
BRANCH  10  11
ATOM     11  C   UNL     1       7.005   5.390  19.086  0.00  0.00    +0.000 C 
ATOM     12  O   UNL     1       7.473   5.355  20.216  0.00  0.00    +0.000 OA
ATOM     13  N   UNL     1       7.302   6.384  18.163  0.00  0.00    +0.000 N 
ATOM     14  C   UNL     1       6.675   6.482  16.855  0.00  0.00    +0.000 C 
BRANCH  13  15
ATOM     15  C   UNL     1       8.240   7.437  18.536  0.00  0.00    +0.000 C 
ATOM     16  C   UNL     1       8.017   8.728  17.764  0.00  0.00    +0.000 C 
ENDBRANCH  13  15
ENDBRANCH  10  11
ENDBRANCH   5  10
TORSDOF 5
ENDMDL
MODEL 6
REMARK VINA RESULT:      -5.7      2.027      3.452
REMARK  Name = 
REMARK  7 active torsions:
REMARK  status: ('A' for Active; 'I' for Inactive)
REMARK    1  A    between atoms: C_2  and  C_3
REMARK    2  A    between atoms: C_3  and  N_4
REMARK    3  A    between atoms: C_8  and  O_9
REMARK    4  A    between atoms: O_9  and  C_10
REMARK    5  A    between atoms: N_12  and  C_13
REMARK    6  A    between atoms: N_12  and  C_14
REMARK    7  A    between atoms: C_14  and  C_15
REMARK                            x       y       z     vdW  Elec       q    Type
REMARK                         _______ _______ _______ _____ _____    ______ ____
ROOT
ATOM      1  N   UNL     1       6.551   5.890  17.614  0.00  0.00    +0.000 NA
ATOM      2  C   UNL     1       6.888   5.660  16.203  0.00  0.00    +0.000 C 
ATOM      3  C   UNL     1       5.652   5.276  15.388  0.00  0.00    +0.000 C 
ATOM      4  C   UNL     1       4.954   4.050  15.968  0.00  0.00    +0.000 C 
ATOM      5  C   UNL     1       4.629   4.266  17.445  0.00  0.00    +0.000 C 
ATOM      6  C   UNL     1       5.905   4.694  18.198  0.00  0.00    +0.000 C 
ENDROOT
BRANCH   1   7
ATOM      7  C   UNL     1       7.755   6.305  18.363  0.00  0.00    +0.000 C 
BRANCH   7   9
ATOM      8  C   UNL     1       8.196   9.065  17.963  0.00  0.00    +0.000 C 
ATOM      9  C   UNL     1       7.993   7.791  18.147  0.00  0.00    +0.000 C 
ENDBRANCH   7   9
ENDBRANCH   1   7
BRANCH   5  10
ATOM     10  O   UNL     1       4.153   3.035  18.035  0.00  0.00    +0.000 OA
BRANCH  10  11
ATOM     11  C   UNL     1       3.935   3.052  19.380  0.00  0.00    +0.000 C 
ATOM     12  O   UNL     1       4.746   2.644  20.202  0.00  0.00    +0.000 OA
ATOM     13  N   UNL     1       2.706   3.598  19.721  0.00  0.00    +0.000 N 
ATOM     14  C   UNL     1       1.702   3.994  18.748  0.00  0.00    +0.000 C 
BRANCH  13  15
ATOM     15  C   UNL     1       2.356   3.724  21.132  0.00  0.00    +0.000 C 
ATOM     16  C   UNL     1       1.552   2.542  21.650  0.00  0.00    +0.000 C 
ENDBRANCH  13  15
ENDBRANCH  10  11
ENDBRANCH   5  10
TORSDOF 5
ENDMDL
MODEL 7
REMARK VINA RESULT:      -5.6      1.459      1.762
REMARK  Name = 
REMARK  7 active torsions:
REMARK  status: ('A' for Active; 'I' for Inactive)
REMARK    1  A    between atoms: C_2  and  C_3
REMARK    2  A    between atoms: C_3  and  N_4
REMARK    3  A    between atoms: C_8  and  O_9
REMARK    4  A    between atoms: O_9  and  C_10
REMARK    5  A    between atoms: N_12  and  C_13
REMARK    6  A    between atoms: N_12  and  C_14
REMARK    7  A    between atoms: C_14  and  C_15
REMARK                            x       y       z     vdW  Elec       q    Type
REMARK                         _______ _______ _______ _____ _____    ______ ____
ROOT
ATOM      1  N   UNL     1       6.044   5.153  16.497  0.00  0.00    +0.000 NA
ATOM      2  C   UNL     1       7.076   6.095  16.951  0.00  0.00    +0.000 C 
ATOM      3  C   UNL     1       7.680   5.659  18.288  0.00  0.00    +0.000 C 
ATOM      4  C   UNL     1       6.610   5.494  19.361  0.00  0.00    +0.000 C 
ATOM      5  C   UNL     1       5.514   4.543  18.885  0.00  0.00    +0.000 C 
ATOM      6  C   UNL     1       4.981   5.012  17.516  0.00  0.00    +0.000 C 
ENDROOT
BRANCH   1   7
ATOM      7  C   UNL     1       5.515   5.575  15.183  0.00  0.00    +0.000 C 
BRANCH   7   9
ATOM      8  C   UNL     1       6.181   3.633  13.244  0.00  0.00    +0.000 C 
ATOM      9  C   UNL     1       5.873   4.530  14.139  0.00  0.00    +0.000 C 
ENDBRANCH   7   9
ENDBRANCH   1   7
BRANCH   5  10
ATOM     10  O   UNL     1       4.411   4.546  19.819  0.00  0.00    +0.000 OA
BRANCH  10  11
ATOM     11  C   UNL     1       3.593   3.456  19.797  0.00  0.00    +0.000 C 
ATOM     12  O   UNL     1       3.978   2.327  19.522  0.00  0.00    +0.000 OA
ATOM     13  N   UNL     1       2.283   3.757  20.141  0.00  0.00    +0.000 N 
ATOM     14  C   UNL     1       1.801   5.109  20.375  0.00  0.00    +0.000 C 
BRANCH  13  15
ATOM     15  C   UNL     1       1.303   2.678  20.207  0.00  0.00    +0.000 C 
ATOM     16  C   UNL     1       0.648   2.391  18.865  0.00  0.00    +0.000 C 
ENDBRANCH  13  15
ENDBRANCH  10  11
ENDBRANCH   5  10
TORSDOF 5
ENDMDL
MODEL 8
REMARK VINA RESULT:      -5.6      2.455      6.207
REMARK  Name = 
REMARK  7 active torsions:
REMARK  status: ('A' for Active; 'I' for Inactive)
REMARK    1  A    between atoms: C_2  and  C_3
REMARK    2  A    between atoms: C_3  and  N_4
REMARK    3  A    between atoms: C_8  and  O_9
REMARK    4  A    between atoms: O_9  and  C_10
REMARK    5  A    between atoms: N_12  and  C_13
REMARK    6  A    between atoms: N_12  and  C_14
REMARK    7  A    between atoms: C_14  and  C_15
REMARK                            x       y       z     vdW  Elec       q    Type
REMARK                         _______ _______ _______ _____ _____    ______ ____
ROOT
ATOM      1  N   UNL     1       2.327   3.241  18.171  0.00  0.00    +0.000 NA
ATOM      2  C   UNL     1       1.801   4.447  18.826  0.00  0.00    +0.000 C 
ATOM      3  C   UNL     1       2.167   5.711  18.044  0.00  0.00    +0.000 C 
ATOM      4  C   UNL     1       3.673   5.835  17.847  0.00  0.00    +0.000 C 
ATOM      5  C   UNL     1       4.235   4.571  17.198  0.00  0.00    +0.000 C 
ATOM      6  C   UNL     1       3.794   3.334  18.006  0.00  0.00    +0.000 C 
ENDROOT
BRANCH   1   7
ATOM      7  C   UNL     1       1.917   2.036  18.922  0.00  0.00    +0.000 C 
BRANCH   7   9
ATOM      8  C   UNL     1       1.594   2.702  21.648  0.00  0.00    +0.000 C 
ATOM      9  C   UNL     1       1.743   2.395  20.390  0.00  0.00    +0.000 C 
ENDBRANCH   7   9
ENDBRANCH   1   7
BRANCH   5  10
ATOM     10  O   UNL     1       5.680   4.612  17.196  0.00  0.00    +0.000 OA
BRANCH  10  11
ATOM     11  C   UNL     1       6.255   5.732  16.672  0.00  0.00    +0.000 C 
ATOM     12  O   UNL     1       6.063   6.117  15.527  0.00  0.00    +0.000 OA
ATOM     13  N   UNL     1       7.065   6.398  17.581  0.00  0.00    +0.000 N 
ATOM     14  C   UNL     1       7.372   5.892  18.909  0.00  0.00    +0.000 C 
BRANCH  13  15
ATOM     15  C   UNL     1       7.710   7.641  17.173  0.00  0.00    +0.000 C 
ATOM     16  C   UNL     1       8.319   8.402  18.340  0.00  0.00    +0.000 C 
ENDBRANCH  13  15
ENDBRANCH  10  11
ENDBRANCH   5  10
TORSDOF 5
ENDMDL
MODEL 9
REMARK VINA RESULT:      -5.5      0.772      1.277
REMARK  Name = 
REMARK  7 active torsions:
REMARK  status: ('A' for Active; 'I' for Inactive)
REMARK    1  A    between atoms: C_2  and  C_3
REMARK    2  A    between atoms: C_3  and  N_4
REMARK    3  A    between atoms: C_8  and  O_9
REMARK    4  A    between atoms: O_9  and  C_10
REMARK    5  A    between atoms: N_12  and  C_13
REMARK    6  A    between atoms: N_12  and  C_14
REMARK    7  A    between atoms: C_14  and  C_15
REMARK                            x       y       z     vdW  Elec       q    Type
REMARK                         _______ _______ _______ _____ _____    ______ ____
ROOT
ATOM      1  N   UNL     1       6.521   4.310  15.699  0.00  0.00    +0.000 NA
ATOM      2  C   UNL     1       7.026   5.170  16.778  0.00  0.00    +0.000 C 
ATOM      3  C   UNL     1       6.573   4.670  18.151  0.00  0.00    +0.000 C 
ATOM      4  C   UNL     1       5.055   4.558  18.235  0.00  0.00    +0.000 C 
ATOM      5  C   UNL     1       4.516   3.693  17.097  0.00  0.00    +0.000 C 
ATOM      6  C   UNL     1       5.045   4.222  15.750  0.00  0.00    +0.000 C 
ENDROOT
BRANCH   1   7
ATOM      7  C   UNL     1       7.015   4.792  14.392  0.00  0.00    +0.000 C 
BRANCH   7   9
ATOM      8  C   UNL     1       5.848   3.254  12.331  0.00  0.00    +0.000 C 
ATOM      9  C   UNL     1       6.387   3.964  13.283  0.00  0.00    +0.000 C 
ENDBRANCH   7   9
ENDBRANCH   1   7
BRANCH   5  10
ATOM     10  O   UNL     1       3.072   3.754  17.066  0.00  0.00    +0.000 OA
BRANCH  10  11
ATOM     11  C   UNL     1       2.466   4.339  18.137  0.00  0.00    +0.000 C 
ATOM     12  O   UNL     1       2.336   5.549  18.264  0.00  0.00    +0.000 OA
ATOM     13  N   UNL     1       1.993   3.416  19.060  0.00  0.00    +0.000 N 
ATOM     14  C   UNL     1       2.229   1.985  18.962  0.00  0.00    +0.000 C 
BRANCH  13  15
ATOM     15  C   UNL     1       1.277   3.896  20.237  0.00  0.00    +0.000 C 
ATOM     16  C   UNL     1       1.334   2.922  21.402  0.00  0.00    +0.000 C 
ENDBRANCH  13  15
ENDBRANCH  10  11
ENDBRANCH   5  10
TORSDOF 5
ENDMDL
