MODEL 1
REMARK VINA RESULT:      -7.3      0.000      0.000
REMARK  Name = 
REMARK  7 active torsions:
REMARK  status: ('A' for Active; 'I' for Inactive)
REMARK    1  A    between atoms: C_1  and  O_2
REMARK    2  A    between atoms: O_2  and  C_3
REMARK    3  A    between atoms: C_3  and  C_4
REMARK    4  A    between atoms: N_5  and  C_6
REMARK    5  A    between atoms: C_6  and  C_7
REMARK    6  A    between atoms: C_8  and  C_9
REMARK    7  A    between atoms: N_22  and  C_23
REMARK                            x       y       z     vdW  Elec       q    Type
REMARK                         _______ _______ _______ _____ _____    ______ ____
ROOT
ATOM      1  C   UNL     1      10.617  12.954  18.095  0.00  0.00    +0.000 C 
ATOM      2  C   UNL     1      11.975  12.248  18.248  0.00  0.00    +0.000 C 
ATOM      3  N   UNL     1       9.528  12.001  17.873  0.00  0.00    +0.000 N 
ATOM      4  C   UNL     1       8.390  12.852  17.699  0.00  0.00    +0.000 C 
ATOM      5  O   UNL     1       7.313  12.605  17.172  0.00  0.00    +0.000 OA
ATOM      6  C   UNL     1       8.712  14.045  18.540  0.00  0.00    +0.000 C 
ATOM      7  C   UNL     1       7.884  14.761  19.287  0.00  0.00    +0.000 C 
ATOM      8  C   UNL     1       8.501  14.852  20.680  0.00  0.00    +0.000 C 
ATOM      9  C   UNL     1       7.413  14.060  21.461  0.00  0.00    +0.000 C 
ATOM     10  O   UNL     1       7.215  12.852  21.432  0.00  0.00    +0.000 OA
ATOM     11  N   UNL     1       6.550  15.030  22.013  0.00  0.00    +0.000 N 
ATOM     12  C   UNL     1       5.188  14.816  22.443  0.00  0.00    +0.000 C 
ATOM     13  C   UNL     1       7.128  16.302  21.946  0.00  0.00    +0.000 A 
ATOM     14  C   UNL     1       6.615  17.483  22.446  0.00  0.00    +0.000 A 
ATOM     15  C   UNL     1       7.404  18.626  22.338  0.00  0.00    +0.000 A 
ATOM     16  C   UNL     1       8.677  18.553  21.749  0.00  0.00    +0.000 A 
ATOM     17  C   UNL     1       9.167  17.352  21.207  0.00  0.00    +0.000 A 
ATOM     18  C   UNL     1       8.369  16.226  21.280  0.00  0.00    +0.000 A 
ATOM     19  C   UNL     1       9.896  14.165  20.425  0.00  0.00    +0.000 C 
ATOM     20  O   UNL     1      10.722  13.834  21.263  0.00  0.00    +0.000 OA
ATOM     21  N   UNL     1       9.974  13.905  19.047  0.00  0.00    +0.000 N 
ENDROOT
BRANCH   1  23
ATOM     22  C   UNL     1      11.745  14.877  16.988  0.00  0.00    +0.000 C 
ATOM     23  O   UNL     1      10.810  13.817  16.936  0.00  0.00    +0.000 OA
ENDBRANCH   1  23
BRANCH   3  24
ATOM     24  C   UNL     1       9.398  11.084  19.030  0.00  0.00    +0.000 C 
BRANCH  24  25
ATOM     25  C   UNL     1       8.908   9.705  18.802  0.00  0.00    +0.000 C 
ATOM     26  C   UNL     1       8.147   9.190  17.832  0.00  0.00    +0.000 C 
BRANCH  26  27
ATOM     27  C   UNL     1       7.815   7.771  17.903  0.00  0.00    +0.000 A 
ATOM     28  C   UNL     1       8.262   7.015  18.990  0.00  0.00    +0.000 A 
ATOM     29  C   UNL     1       8.020   5.642  19.041  0.00  0.00    +0.000 A 
ATOM     30  C   UNL     1       7.336   5.016  17.999  0.00  0.00    +0.000 A 
ATOM     31  C   UNL     1       6.903   5.761  16.903  0.00  0.00    +0.000 A 
ATOM     32  C   UNL     1       7.145   7.136  16.850  0.00  0.00    +0.000 A 
ENDBRANCH  26  27
ENDBRANCH  24  25
ENDBRANCH   3  24
TORSDOF 4
ENDMDL
MODEL 2
REMARK VINA RESULT:      -7.2      8.108     11.398
REMARK  Name = 
REMARK  7 active torsions:
REMARK  status: ('A' for Active; 'I' for Inactive)
REMARK    1  A    between atoms: C_1  and  O_2
REMARK    2  A    between atoms: O_2  and  C_3
REMARK    3  A    between atoms: C_3  and  C_4
REMARK    4  A    between atoms: N_5  and  C_6
REMARK    5  A    between atoms: C_6  and  C_7
REMARK    6  A    between atoms: C_8  and  C_9
REMARK    7  A    between atoms: N_22  and  C_23
REMARK                            x       y       z     vdW  Elec       q    Type
REMARK                         _______ _______ _______ _____ _____    ______ ____
ROOT
ATOM      1  C   UNL     1      -0.163  10.940  20.749  0.00  0.00    +0.000 C 
ATOM      2  C   UNL     1       0.403  10.092  21.900  0.00  0.00    +0.000 C 
ATOM      3  N   UNL     1      -1.558  11.318  20.983  0.00  0.00    +0.000 N 
ATOM      4  C   UNL     1      -1.899  12.033  19.791  0.00  0.00    +0.000 C 
ATOM      5  O   UNL     1      -3.005  12.277  19.325  0.00  0.00    +0.000 OA
ATOM      6  C   UNL     1      -0.604  12.646  19.366  0.00  0.00    +0.000 C 
ATOM      7  C   UNL     1      -0.406  13.845  18.836  0.00  0.00    +0.000 C 
ATOM      8  C   UNL     1       0.683  14.526  19.660  0.00  0.00    +0.000 C 
ATOM      9  C   UNL     1      -0.170  15.690  20.243  0.00  0.00    +0.000 C 
ATOM     10  O   UNL     1      -1.029  15.613  21.111  0.00  0.00    +0.000 OA
ATOM     11  N   UNL     1       0.067  16.800  19.405  0.00  0.00    +0.000 N 
ATOM     12  C   UNL     1      -0.785  17.956  19.258  0.00  0.00    +0.000 C 
ATOM     13  C   UNL     1       1.177  16.573  18.585  0.00  0.00    +0.000 A 
ATOM     14  C   UNL     1       1.751  17.454  17.689  0.00  0.00    +0.000 A 
ATOM     15  C   UNL     1       2.910  17.042  17.033  0.00  0.00    +0.000 A 
ATOM     16  C   UNL     1       3.462  15.779  17.298  0.00  0.00    +0.000 A 
ATOM     17  C   UNL     1       2.842  14.878  18.181  0.00  0.00    +0.000 A 
ATOM     18  C   UNL     1       1.672  15.270  18.803  0.00  0.00    +0.000 A 
ATOM     19  C   UNL     1       1.104  13.347  20.617  0.00  0.00    +0.000 C 
ATOM     20  O   UNL     1       1.837  13.411  21.592  0.00  0.00    +0.000 OA
ATOM     21  N   UNL     1       0.390  12.212  20.200  0.00  0.00    +0.000 N 
ENDROOT
BRANCH   1  23
ATOM     22  C   UNL     1       1.131   9.293  19.403  0.00  0.00    +0.000 C 
ATOM     23  O   UNL     1      -0.039  10.065  19.588  0.00  0.00    +0.000 OA
ENDBRANCH   1  23
BRANCH   3  24
ATOM     24  C   UNL     1      -1.672  12.143  22.209  0.00  0.00    +0.000 C 
BRANCH  24  25
ATOM     25  C   UNL     1      -2.994  12.695  22.582  0.00  0.00    +0.000 C 
ATOM     26  C   UNL     1      -3.674  12.651  23.732  0.00  0.00    +0.000 C 
BRANCH  26  27
ATOM     27  C   UNL     1      -4.987  13.286  23.775  0.00  0.00    +0.000 A 
ATOM     28  C   UNL     1      -5.085  14.671  23.615  0.00  0.00    +0.000 A 
ATOM     29  C   UNL     1      -6.322  15.307  23.727  0.00  0.00    +0.000 A 
ATOM     30  C   UNL     1      -7.467  14.561  24.007  0.00  0.00    +0.000 A 
ATOM     31  C   UNL     1      -7.373  13.181  24.184  0.00  0.00    +0.000 A 
ATOM     32  C   UNL     1      -6.136  12.543  24.074  0.00  0.00    +0.000 A 
ENDBRANCH  26  27
ENDBRANCH  24  25
ENDBRANCH   3  24
TORSDOF 4
ENDMDL
MODEL 3
REMARK VINA RESULT:      -7.2      6.571      8.524
REMARK  Name = 
REMARK  7 active torsions:
REMARK  status: ('A' for Active; 'I' for Inactive)
REMARK    1  A    between atoms: C_1  and  O_2
REMARK    2  A    between atoms: O_2  and  C_3
REMARK    3  A    between atoms: C_3  and  C_4
REMARK    4  A    between atoms: N_5  and  C_6
REMARK    5  A    between atoms: C_6  and  C_7
REMARK    6  A    between atoms: C_8  and  C_9
REMARK    7  A    between atoms: N_22  and  C_23
REMARK                            x       y       z     vdW  Elec       q    Type
REMARK                         _______ _______ _______ _____ _____    ______ ____
ROOT
ATOM      1  C   UNL     1      -0.925  11.070  19.039  0.00  0.00    +0.000 C 
ATOM      2  C   UNL     1      -0.733  10.073  17.884  0.00  0.00    +0.000 C 
ATOM      3  N   UNL     1      -0.564  10.485  20.332  0.00  0.00    +0.000 N 
ATOM      4  C   UNL     1      -0.870  11.536  21.254  0.00  0.00    +0.000 C 
ATOM      5  O   UNL     1      -1.068  11.474  22.461  0.00  0.00    +0.000 OA
ATOM      6  C   UNL     1      -0.641  12.780  20.458  0.00  0.00    +0.000 C 
ATOM      7  C   UNL     1      -0.114  13.924  20.869  0.00  0.00    +0.000 C 
ATOM      8  C   UNL     1       1.003  14.282  19.893  0.00  0.00    +0.000 C 
ATOM      9  C   UNL     1       2.205  14.176  20.877  0.00  0.00    +0.000 C 
ATOM     10  O   UNL     1       2.693  13.154  21.339  0.00  0.00    +0.000 OA
ATOM     11  N   UNL     1       2.460  15.492  21.318  0.00  0.00    +0.000 N 
ATOM     12  C   UNL     1       3.160  15.868  22.523  0.00  0.00    +0.000 C 
ATOM     13  C   UNL     1       1.796  16.422  20.511  0.00  0.00    +0.000 A 
ATOM     14  C   UNL     1       1.862  17.799  20.591  0.00  0.00    +0.000 A 
ATOM     15  C   UNL     1       1.177  18.535  19.626  0.00  0.00    +0.000 A 
ATOM     16  C   UNL     1       0.463  17.878  18.611  0.00  0.00    +0.000 A 
ATOM     17  C   UNL     1       0.371  16.477  18.568  0.00  0.00    +0.000 A 
ATOM     18  C   UNL     1       1.018  15.747  19.547  0.00  0.00    +0.000 A 
ATOM     19  C   UNL     1       0.814  13.153  18.810  0.00  0.00    +0.000 C 
ATOM     20  O   UNL     1       1.563  12.884  17.883  0.00  0.00    +0.000 OA
ATOM     21  N   UNL     1      -0.338  12.435  19.169  0.00  0.00    +0.000 N 
ENDROOT
BRANCH   1  23
ATOM     22  C   UNL     1      -3.006  11.466  17.732  0.00  0.00    +0.000 C 
ATOM     23  O   UNL     1      -2.347  11.389  18.980  0.00  0.00    +0.000 OA
ENDBRANCH   1  23
BRANCH   3  24
ATOM     24  C   UNL     1       0.866  10.098  20.344  0.00  0.00    +0.000 C 
BRANCH  24  25
ATOM     25  C   UNL     1       1.224   8.666  20.220  0.00  0.00    +0.000 C 
ATOM     26  C   UNL     1       2.030   8.032  19.364  0.00  0.00    +0.000 C 
BRANCH  26  27
ATOM     27  C   UNL     1       2.159   6.584  19.491  0.00  0.00    +0.000 A 
ATOM     28  C   UNL     1       2.545   5.829  18.380  0.00  0.00    +0.000 A 
ATOM     29  C   UNL     1       2.603   4.437  18.460  0.00  0.00    +0.000 A 
ATOM     30  C   UNL     1       2.265   3.792  19.649  0.00  0.00    +0.000 A 
ATOM     31  C   UNL     1       1.862   4.539  20.756  0.00  0.00    +0.000 A 
ATOM     32  C   UNL     1       1.803   5.932  20.678  0.00  0.00    +0.000 A 
ENDBRANCH  26  27
ENDBRANCH  24  25
ENDBRANCH   3  24
TORSDOF 4
ENDMDL
MODEL 4
REMARK VINA RESULT:      -7.1      7.687     10.935
REMARK  Name = 
REMARK  7 active torsions:
REMARK  status: ('A' for Active; 'I' for Inactive)
REMARK    1  A    between atoms: C_1  and  O_2
REMARK    2  A    between atoms: O_2  and  C_3
REMARK    3  A    between atoms: C_3  and  C_4
REMARK    4  A    between atoms: N_5  and  C_6
REMARK    5  A    between atoms: C_6  and  C_7
REMARK    6  A    between atoms: C_8  and  C_9
REMARK    7  A    between atoms: N_22  and  C_23
REMARK                            x       y       z     vdW  Elec       q    Type
REMARK                         _______ _______ _______ _____ _____    ______ ____
ROOT
ATOM      1  C   UNL     1       0.250  10.525  20.351  0.00  0.00    +0.000 C 
ATOM      2  C   UNL     1       0.908   9.574  21.366  0.00  0.00    +0.000 C 
ATOM      3  N   UNL     1      -1.125  10.859  20.728  0.00  0.00    +0.000 N 
ATOM      4  C   UNL     1      -1.561  11.683  19.642  0.00  0.00    +0.000 C 
ATOM      5  O   UNL     1      -2.701  11.957  19.288  0.00  0.00    +0.000 OA
ATOM      6  C   UNL     1      -0.306  12.352  19.182  0.00  0.00    +0.000 C 
ATOM      7  C   UNL     1      -0.157  13.600  18.760  0.00  0.00    +0.000 C 
ATOM      8  C   UNL     1       0.988  14.212  19.562  0.00  0.00    +0.000 C 
ATOM      9  C   UNL     1       0.177  15.301  20.320  0.00  0.00    +0.000 C 
ATOM     10  O   UNL     1      -0.612  15.127  21.240  0.00  0.00    +0.000 OA
ATOM     11  N   UNL     1       0.342  16.491  19.582  0.00  0.00    +0.000 N 
ATOM     12  C   UNL     1      -0.525  17.645  19.615  0.00  0.00    +0.000 C 
ATOM     13  C   UNL     1       1.387  16.361  18.660  0.00  0.00    +0.000 A 
ATOM     14  C   UNL     1       1.885  17.333  17.815  0.00  0.00    +0.000 A 
ATOM     15  C   UNL     1       2.991  17.004  17.035  0.00  0.00    +0.000 A 
ATOM     16  C   UNL     1       3.569  15.728  17.131  0.00  0.00    +0.000 A 
ATOM     17  C   UNL     1       3.025  14.736  17.964  0.00  0.00    +0.000 A 
ATOM     18  C   UNL     1       1.904  15.049  18.710  0.00  0.00    +0.000 A 
ATOM     19  C   UNL     1       1.489  12.949  20.363  0.00  0.00    +0.000 C 
ATOM     20  O   UNL     1       2.295  12.927  21.280  0.00  0.00    +0.000 OA
ATOM     21  N   UNL     1       0.751  11.851  19.890  0.00  0.00    +0.000 N 
ENDROOT
BRANCH   1  23
ATOM     22  C   UNL     1       1.506   9.213  18.648  0.00  0.00    +0.000 C 
ATOM     23  O   UNL     1       0.289   9.770  19.103  0.00  0.00    +0.000 OA
ENDBRANCH   1  23
BRANCH   3  24
ATOM     24  C   UNL     1      -1.148  11.557  22.034  0.00  0.00    +0.000 C 
BRANCH  24  25
ATOM     25  C   UNL     1      -2.374  12.284  22.438  0.00  0.00    +0.000 C 
ATOM     26  C   UNL     1      -2.768  12.754  23.626  0.00  0.00    +0.000 C 
BRANCH  26  27
ATOM     27  C   UNL     1      -4.064  13.419  23.702  0.00  0.00    +0.000 A 
ATOM     28  C   UNL     1      -5.213  12.658  23.936  0.00  0.00    +0.000 A 
ATOM     29  C   UNL     1      -6.471  13.263  23.939  0.00  0.00    +0.000 A 
ATOM     30  C   UNL     1      -6.585  14.632  23.700  0.00  0.00    +0.000 A 
ATOM     31  C   UNL     1      -5.444  15.394  23.449  0.00  0.00    +0.000 A 
ATOM     32  C   UNL     1      -4.185  14.790  23.445  0.00  0.00    +0.000 A 
ENDBRANCH  26  27
ENDBRANCH  24  25
ENDBRANCH   3  24
TORSDOF 4
ENDMDL
MODEL 5
REMARK VINA RESULT:      -7.1      7.490      9.655
REMARK  Name = 
REMARK  7 active torsions:
REMARK  status: ('A' for Active; 'I' for Inactive)
REMARK    1  A    between atoms: C_1  and  O_2
REMARK    2  A    between atoms: O_2  and  C_3
REMARK    3  A    between atoms: C_3  and  C_4
REMARK    4  A    between atoms: N_5  and  C_6
REMARK    5  A    between atoms: C_6  and  C_7
REMARK    6  A    between atoms: C_8  and  C_9
REMARK    7  A    between atoms: N_22  and  C_23
REMARK                            x       y       z     vdW  Elec       q    Type
REMARK                         _______ _______ _______ _____ _____    ______ ____
ROOT
ATOM      1  C   UNL     1       0.273  13.104  19.360  0.00  0.00    +0.000 C 
ATOM      2  C   UNL     1       1.802  13.018  19.218  0.00  0.00    +0.000 C 
ATOM      3  N   UNL     1      -0.363  11.793  19.219  0.00  0.00    +0.000 N 
ATOM      4  C   UNL     1      -1.757  12.102  19.320  0.00  0.00    +0.000 C 
ATOM      5  O   UNL     1      -2.724  11.448  18.951  0.00  0.00    +0.000 OA
ATOM      6  C   UNL     1      -1.787  13.298  20.217  0.00  0.00    +0.000 C 
ATOM      7  C   UNL     1      -2.674  13.586  21.159  0.00  0.00    +0.000 C 
ATOM      8  C   UNL     1      -1.893  13.884  22.436  0.00  0.00    +0.000 C 
ATOM      9  C   UNL     1      -2.403  12.691  23.295  0.00  0.00    +0.000 C 
ATOM     10  O   UNL     1      -2.101  11.511  23.173  0.00  0.00    +0.000 OA
ATOM     11  N   UNL     1      -3.460  13.202  24.077  0.00  0.00    +0.000 N 
ATOM     12  C   UNL     1      -4.513  12.433  24.696  0.00  0.00    +0.000 C 
ATOM     13  C   UNL     1      -3.465  14.601  24.050  0.00  0.00    +0.000 A 
ATOM     14  C   UNL     1      -4.303  15.449  24.747  0.00  0.00    +0.000 A 
ATOM     15  C   UNL     1      -4.074  16.819  24.632  0.00  0.00    +0.000 A 
ATOM     16  C   UNL     1      -3.015  17.295  23.841  0.00  0.00    +0.000 A 
ATOM     17  C   UNL     1      -2.198  16.420  23.105  0.00  0.00    +0.000 A 
ATOM     18  C   UNL     1      -2.448  15.063  23.188  0.00  0.00    +0.000 A 
ATOM     19  C   UNL     1      -0.415  13.842  21.889  0.00  0.00    +0.000 C 
ATOM     20  O   UNL     1       0.616  13.858  22.543  0.00  0.00    +0.000 OA
ATOM     21  N   UNL     1      -0.503  13.677  20.497  0.00  0.00    +0.000 N 
ENDROOT
BRANCH   1  23
ATOM     22  C   UNL     1       0.020  15.401  18.435  0.00  0.00    +0.000 C 
ATOM     23  O   UNL     1      -0.119  14.003  18.280  0.00  0.00    +0.000 OA
ENDBRANCH   1  23
BRANCH   3  24
ATOM     24  C   UNL     1       0.107  10.872  20.280  0.00  0.00    +0.000 C 
BRANCH  24  25
ATOM     25  C   UNL     1       0.928   9.699  19.900  0.00  0.00    +0.000 C 
ATOM     26  C   UNL     1       1.434   9.322  18.722  0.00  0.00    +0.000 C 
BRANCH  26  27
ATOM     27  C   UNL     1       2.197   8.079  18.671  0.00  0.00    +0.000 A 
ATOM     28  C   UNL     1       2.119   7.181  19.740  0.00  0.00    +0.000 A 
ATOM     29  C   UNL     1       2.897   6.023  19.745  0.00  0.00    +0.000 A 
ATOM     30  C   UNL     1       3.763   5.761  18.684  0.00  0.00    +0.000 A 
ATOM     31  C   UNL     1       3.859   6.661  17.623  0.00  0.00    +0.000 A 
ATOM     32  C   UNL     1       3.082   7.821  17.617  0.00  0.00    +0.000 A 
ENDBRANCH  26  27
ENDBRANCH  24  25
ENDBRANCH   3  24
TORSDOF 4
ENDMDL
MODEL 6
REMARK VINA RESULT:      -7.0      8.246     11.135
REMARK  Name = 
REMARK  7 active torsions:
REMARK  status: ('A' for Active; 'I' for Inactive)
REMARK    1  A    between atoms: C_1  and  O_2
REMARK    2  A    between atoms: O_2  and  C_3
REMARK    3  A    between atoms: C_3  and  C_4
REMARK    4  A    between atoms: N_5  and  C_6
REMARK    5  A    between atoms: C_6  and  C_7
REMARK    6  A    between atoms: C_8  and  C_9
REMARK    7  A    between atoms: N_22  and  C_23
REMARK                            x       y       z     vdW  Elec       q    Type
REMARK                         _______ _______ _______ _____ _____    ______ ____
ROOT
ATOM      1  C   UNL     1       0.265  10.987  20.562  0.00  0.00    +0.000 C 
ATOM      2  C   UNL     1       0.824  10.277  21.807  0.00  0.00    +0.000 C 
ATOM      3  N   UNL     1      -1.191  11.124  20.620  0.00  0.00    +0.000 N 
ATOM      4  C   UNL     1      -1.503  11.741  19.367  0.00  0.00    +0.000 C 
ATOM      5  O   UNL     1      -2.570  11.780  18.767  0.00  0.00    +0.000 OA
ATOM      6  C   UNL     1      -0.289  12.558  19.065  0.00  0.00    +0.000 C 
ATOM      7  C   UNL     1      -0.234  13.760  18.510  0.00  0.00    +0.000 C 
ATOM      8  C   UNL     1       0.618  14.639  19.421  0.00  0.00    +0.000 C 
ATOM      9  C   UNL     1      -0.483  15.651  19.851  0.00  0.00    +0.000 C 
ATOM     10  O   UNL     1      -1.414  15.448  20.619  0.00  0.00    +0.000 OA
ATOM     11  N   UNL     1      -0.338  16.766  18.999  0.00  0.00    +0.000 N 
ATOM     12  C   UNL     1      -1.349  17.753  18.705  0.00  0.00    +0.000 C 
ATOM     13  C   UNL     1       0.885  16.714  18.321  0.00  0.00    +0.000 A 
ATOM     14  C   UNL     1       1.405  17.660  17.459  0.00  0.00    +0.000 A 
ATOM     15  C   UNL     1       2.686  17.439  16.957  0.00  0.00    +0.000 A 
ATOM     16  C   UNL     1       3.408  16.297  17.338  0.00  0.00    +0.000 A 
ATOM     17  C   UNL     1       2.848  15.323  18.183  0.00  0.00    +0.000 A 
ATOM     18  C   UNL     1       1.563  15.522  18.651  0.00  0.00    +0.000 A 
ATOM     19  C   UNL     1       1.114  13.573  20.471  0.00  0.00    +0.000 C 
ATOM     20  O   UNL     1       1.704  13.786  21.519  0.00  0.00    +0.000 OA
ATOM     21  N   UNL     1       0.657  12.322  20.025  0.00  0.00    +0.000 N 
ENDROOT
BRANCH   1  23
ATOM     22  C   UNL     1       1.350   8.907  19.729  0.00  0.00    +0.000 C 
ATOM     23  O   UNL     1       0.673  10.120  19.463  0.00  0.00    +0.000 OA
ENDBRANCH   1  23
BRANCH   3  24
ATOM     24  C   UNL     1      -1.589  11.945  21.788  0.00  0.00    +0.000 C 
BRANCH  24  25
ATOM     25  C   UNL     1      -3.028  12.101  22.100  0.00  0.00    +0.000 C 
ATOM     26  C   UNL     1      -3.876  13.106  21.864  0.00  0.00    +0.000 C 
BRANCH  26  27
ATOM     27  C   UNL     1      -5.254  12.961  22.323  0.00  0.00    +0.000 A 
ATOM     28  C   UNL     1      -5.550  13.152  23.676  0.00  0.00    +0.000 A 
ATOM     29  C   UNL     1      -6.847  12.945  24.149  0.00  0.00    +0.000 A 
ATOM     30  C   UNL     1      -7.852  12.539  23.272  0.00  0.00    +0.000 A 
ATOM     31  C   UNL     1      -7.559  12.330  21.925  0.00  0.00    +0.000 A 
ATOM     32  C   UNL     1      -6.262  12.535  21.450  0.00  0.00    +0.000 A 
ENDBRANCH  26  27
ENDBRANCH  24  25
ENDBRANCH   3  24
TORSDOF 4
ENDMDL
MODEL 7
REMARK VINA RESULT:      -7.0      7.574      9.696
REMARK  Name = 
REMARK  7 active torsions:
REMARK  status: ('A' for Active; 'I' for Inactive)
REMARK    1  A    between atoms: C_1  and  O_2
REMARK    2  A    between atoms: O_2  and  C_3
REMARK    3  A    between atoms: C_3  and  C_4
REMARK    4  A    between atoms: N_5  and  C_6
REMARK    5  A    between atoms: C_6  and  C_7
REMARK    6  A    between atoms: C_8  and  C_9
REMARK    7  A    between atoms: N_22  and  C_23
REMARK                            x       y       z     vdW  Elec       q    Type
REMARK                         _______ _______ _______ _____ _____    ______ ____
ROOT
ATOM      1  C   UNL     1       0.380  13.096  19.391  0.00  0.00    +0.000 C 
ATOM      2  C   UNL     1       1.910  12.996  19.270  0.00  0.00    +0.000 C 
ATOM      3  N   UNL     1      -0.265  11.789  19.248  0.00  0.00    +0.000 N 
ATOM      4  C   UNL     1      -1.657  12.111  19.329  0.00  0.00    +0.000 C 
ATOM      5  O   UNL     1      -2.624  11.462  18.949  0.00  0.00    +0.000 OA
ATOM      6  C   UNL     1      -1.690  13.311  20.218  0.00  0.00    +0.000 C 
ATOM      7  C   UNL     1      -2.587  13.612  21.146  0.00  0.00    +0.000 C 
ATOM      8  C   UNL     1      -1.822  13.911  22.432  0.00  0.00    +0.000 C 
ATOM      9  C   UNL     1      -2.353  12.728  23.291  0.00  0.00    +0.000 C 
ATOM     10  O   UNL     1      -2.060  11.545  23.180  0.00  0.00    +0.000 OA
ATOM     11  N   UNL     1      -3.417  13.252  24.055  0.00  0.00    +0.000 N 
ATOM     12  C   UNL     1      -4.485  12.495  24.664  0.00  0.00    +0.000 C 
ATOM     13  C   UNL     1      -3.410  14.650  24.020  0.00  0.00    +0.000 A 
ATOM     14  C   UNL     1      -4.250  15.510  24.700  0.00  0.00    +0.000 A 
ATOM     15  C   UNL     1      -4.008  16.877  24.580  0.00  0.00    +0.000 A 
ATOM     16  C   UNL     1      -2.935  17.339  23.802  0.00  0.00    +0.000 A 
ATOM     17  C   UNL     1      -2.115  16.454  23.082  0.00  0.00    +0.000 A 
ATOM     18  C   UNL     1      -2.378  15.100  23.169  0.00  0.00    +0.000 A 
ATOM     19  C   UNL     1      -0.337  13.854  21.905  0.00  0.00    +0.000 C 
ATOM     20  O   UNL     1       0.685  13.866  22.574  0.00  0.00    +0.000 OA
ATOM     21  N   UNL     1      -0.407  13.682  20.513  0.00  0.00    +0.000 N 
ENDROOT
BRANCH   1  23
ATOM     22  C   UNL     1       0.142  15.391  18.456  0.00  0.00    +0.000 C 
ATOM     23  O   UNL     1       0.010  13.991  18.301  0.00  0.00    +0.000 OA
ENDBRANCH   1  23
BRANCH   3  24
ATOM     24  C   UNL     1       0.183  10.870  20.321  0.00  0.00    +0.000 C 
BRANCH  24  25
ATOM     25  C   UNL     1       0.826   9.589  19.947  0.00  0.00    +0.000 C 
ATOM     26  C   UNL     1       1.246   8.564  20.695  0.00  0.00    +0.000 C 
BRANCH  26  27
ATOM     27  C   UNL     1       1.870   7.433  20.016  0.00  0.00    +0.000 A 
ATOM     28  C   UNL     1       2.410   7.612  18.739  0.00  0.00    +0.000 A 
ATOM     29  C   UNL     1       2.944   6.527  18.042  0.00  0.00    +0.000 A 
ATOM     30  C   UNL     1       2.933   5.256  18.617  0.00  0.00    +0.000 A 
ATOM     31  C   UNL     1       2.380   5.068  19.883  0.00  0.00    +0.000 A 
ATOM     32  C   UNL     1       1.844   6.152  20.581  0.00  0.00    +0.000 A 
ENDBRANCH  26  27
ENDBRANCH  24  25
ENDBRANCH   3  24
TORSDOF 4
ENDMDL
MODEL 8
REMARK VINA RESULT:      -7.0      6.009      8.329
REMARK  Name = 
REMARK  7 active torsions:
REMARK  status: ('A' for Active; 'I' for Inactive)
REMARK    1  A    between atoms: C_1  and  O_2
REMARK    2  A    between atoms: O_2  and  C_3
REMARK    3  A    between atoms: C_3  and  C_4
REMARK    4  A    between atoms: N_5  and  C_6
REMARK    5  A    between atoms: C_6  and  C_7
REMARK    6  A    between atoms: C_8  and  C_9
REMARK    7  A    between atoms: N_22  and  C_23
REMARK                            x       y       z     vdW  Elec       q    Type
REMARK                         _______ _______ _______ _____ _____    ______ ____
ROOT
ATOM      1  C   UNL     1      -1.480  11.579  19.611  0.00  0.00    +0.000 C 
ATOM      2  C   UNL     1      -2.440  11.083  18.517  0.00  0.00    +0.000 C 
ATOM      3  N   UNL     1      -0.438  10.595  19.911  0.00  0.00    +0.000 N 
ATOM      4  C   UNL     1       0.292  11.216  20.973  0.00  0.00    +0.000 C 
ATOM      5  O   UNL     1       1.038  10.708  21.801  0.00  0.00    +0.000 OA
ATOM      6  C   UNL     1       0.145  12.677  20.694  0.00  0.00    +0.000 C 
ATOM      7  C   UNL     1       1.051  13.631  20.850  0.00  0.00    +0.000 C 
ATOM      8  C   UNL     1       1.129  14.398  19.533  0.00  0.00    +0.000 C 
ATOM      9  C   UNL     1       2.591  14.034  19.146  0.00  0.00    +0.000 C 
ATOM     10  O   UNL     1       3.002  12.952  18.746  0.00  0.00    +0.000 OA
ATOM     11  N   UNL     1       3.387  15.116  19.577  0.00  0.00    +0.000 N 
ATOM     12  C   UNL     1       4.806  15.082  19.839  0.00  0.00    +0.000 C 
ATOM     13  C   UNL     1       2.590  16.223  19.887  0.00  0.00    +0.000 A 
ATOM     14  C   UNL     1       3.014  17.479  20.273  0.00  0.00    +0.000 A 
ATOM     15  C   UNL     1       2.042  18.461  20.454  0.00  0.00    +0.000 A 
ATOM     16  C   UNL     1       0.688  18.164  20.233  0.00  0.00    +0.000 A 
ATOM     17  C   UNL     1       0.268  16.870  19.881  0.00  0.00    +0.000 A 
ATOM     18  C   UNL     1       1.228  15.886  19.739  0.00  0.00    +0.000 A 
ATOM     19  C   UNL     1      -0.053  13.726  18.735  0.00  0.00    +0.000 C 
ATOM     20  O   UNL     1      -0.320  13.866  17.552  0.00  0.00    +0.000 OA
ATOM     21  N   UNL     1      -0.691  12.844  19.623  0.00  0.00    +0.000 N 
ENDROOT
BRANCH   1  23
ATOM     22  C   UNL     1      -3.442  12.689  20.667  0.00  0.00    +0.000 C 
ATOM     23  O   UNL     1      -2.354  11.791  20.760  0.00  0.00    +0.000 OA
ENDBRANCH   1  23
BRANCH   3  24
ATOM     24  C   UNL     1       0.391  10.336  18.710  0.00  0.00    +0.000 C 
BRANCH  24  25
ATOM     25  C   UNL     1       1.277   9.149  18.690  0.00  0.00    +0.000 C 
ATOM     26  C   UNL     1       2.266   8.804  17.862  0.00  0.00    +0.000 C 
BRANCH  26  27
ATOM     27  C   UNL     1       2.947   7.535  18.102  0.00  0.00    +0.000 A 
ATOM     28  C   UNL     1       2.588   6.762  19.210  0.00  0.00    +0.000 A 
ATOM     29  C   UNL     1       3.277   5.584  19.499  0.00  0.00    +0.000 A 
ATOM     30  C   UNL     1       4.334   5.176  18.686  0.00  0.00    +0.000 A 
ATOM     31  C   UNL     1       4.708   5.952  17.589  0.00  0.00    +0.000 A 
ATOM     32  C   UNL     1       4.021   7.133  17.298  0.00  0.00    +0.000 A 
ENDBRANCH  26  27
ENDBRANCH  24  25
ENDBRANCH   3  24
TORSDOF 4
ENDMDL
MODEL 9
REMARK VINA RESULT:      -7.0      1.470      1.641
REMARK  Name = 
REMARK  7 active torsions:
REMARK  status: ('A' for Active; 'I' for Inactive)
REMARK    1  A    between atoms: C_1  and  O_2
REMARK    2  A    between atoms: O_2  and  C_3
REMARK    3  A    between atoms: C_3  and  C_4
REMARK    4  A    between atoms: N_5  and  C_6
REMARK    5  A    between atoms: C_6  and  C_7
REMARK    6  A    between atoms: C_8  and  C_9
REMARK    7  A    between atoms: N_22  and  C_23
REMARK                            x       y       z     vdW  Elec       q    Type
REMARK                         _______ _______ _______ _____ _____    ______ ____
ROOT
ATOM      1  C   UNL     1      10.605  12.253  17.862  0.00  0.00    +0.000 C 
ATOM      2  C   UNL     1      11.741  11.258  17.566  0.00  0.00    +0.000 C 
ATOM      3  N   UNL     1       9.286  11.651  17.660  0.00  0.00    +0.000 N 
ATOM      4  C   UNL     1       8.395  12.740  17.924  0.00  0.00    +0.000 C 
ATOM      5  O   UNL     1       7.226  12.882  17.589  0.00  0.00    +0.000 OA
ATOM      6  C   UNL     1       9.135  13.565  18.927  0.00  0.00    +0.000 C 
ATOM      7  C   UNL     1       8.641  14.212  19.972  0.00  0.00    +0.000 C 
ATOM      8  C   UNL     1       9.456  13.789  21.191  0.00  0.00    +0.000 C 
ATOM      9  C   UNL     1       8.326  13.067  21.980  0.00  0.00    +0.000 C 
ATOM     10  O   UNL     1       7.819  11.984  21.720  0.00  0.00    +0.000 OA
ATOM     11  N   UNL     1       7.834  14.014  22.904  0.00  0.00    +0.000 N 
ATOM     12  C   UNL     1       6.542  13.989  23.547  0.00  0.00    +0.000 C 
ATOM     13  C   UNL     1       8.707  15.102  23.008  0.00  0.00    +0.000 A 
ATOM     14  C   UNL     1       8.597  16.185  23.858  0.00  0.00    +0.000 A 
ATOM     15  C   UNL     1       9.632  17.119  23.850  0.00  0.00    +0.000 A 
ATOM     16  C   UNL     1      10.742  16.937  23.010  0.00  0.00    +0.000 A 
ATOM     17  C   UNL     1      10.819  15.851  22.120  0.00  0.00    +0.000 A 
ATOM     18  C   UNL     1       9.775  14.946  22.100  0.00  0.00    +0.000 A 
ATOM     19  C   UNL     1      10.573  12.914  20.503  0.00  0.00    +0.000 C 
ATOM     20  O   UNL     1      11.397  12.201  21.054  0.00  0.00    +0.000 OA
ATOM     21  N   UNL     1      10.378  13.026  19.117  0.00  0.00    +0.000 N 
ENDROOT
BRANCH   1  23
ATOM     22  C   UNL     1      12.101  13.984  16.881  0.00  0.00    +0.000 C 
ATOM     23  O   UNL     1      10.845  13.335  16.914  0.00  0.00    +0.000 OA
ENDBRANCH   1  23
BRANCH   3  24
ATOM     24  C   UNL     1       9.092  10.506  18.581  0.00  0.00    +0.000 C 
BRANCH  24  25
ATOM     25  C   UNL     1       8.325   9.329  18.112  0.00  0.00    +0.000 C 
ATOM     26  C   UNL     1       8.315   8.060  18.531  0.00  0.00    +0.000 C 
BRANCH  26  27
ATOM     27  C   UNL     1       7.447   7.117  17.834  0.00  0.00    +0.000 A 
ATOM     28  C   UNL     1       7.754   5.753  17.860  0.00  0.00    +0.000 A 
ATOM     29  C   UNL     1       6.979   4.843  17.139  0.00  0.00    +0.000 A 
ATOM     30  C   UNL     1       5.897   5.294  16.384  0.00  0.00    +0.000 A 
ATOM     31  C   UNL     1       5.595   6.654  16.341  0.00  0.00    +0.000 A 
ATOM     32  C   UNL     1       6.370   7.567  17.060  0.00  0.00    +0.000 A 
ENDBRANCH  26  27
ENDBRANCH  24  25
ENDBRANCH   3  24
TORSDOF 4
ENDMDL
