MODEL 1
REMARK VINA RESULT:      -7.1      0.000      0.000
REMARK  Name = 
REMARK  1 active torsions:
REMARK  status: ('A' for Active; 'I' for Inactive)
REMARK    1  A    between atoms: C_1  and  N_2
REMARK                            x       y       z     vdW  Elec       q    Type
REMARK                         _______ _______ _______ _____ _____    ______ ____
ROOT
ATOM      1  C   UNL     1       2.360   7.074  17.520  0.00  0.00    +0.000 C 
ATOM      2  N   UNL     1       2.986   5.793  17.818  0.00  0.00    +0.000 N 
ATOM      3  C   UNL     1       2.099   4.733  17.988  0.00  0.00    +0.000 C 
ATOM      4  O   UNL     1       1.020   4.638  17.410  0.00  0.00    +0.000 OA
ATOM      5  C   UNL     1       2.333   3.872  19.143  0.00  0.00    +0.000 A 
ATOM      6  C   UNL     1       1.309   3.728  20.081  0.00  0.00    +0.000 A 
ATOM      7  C   UNL     1       1.560   3.021  21.249  0.00  0.00    +0.000 A 
ATOM      8  C   UNL     1       2.821   2.471  21.415  0.00  0.00    +0.000 A 
ATOM      9  N   UNL     1       3.817   2.565  20.502  0.00  0.00    +0.000 NA
ATOM     10  C   UNL     1       3.553   3.288  19.384  0.00  0.00    +0.000 A 
ATOM     11  O   UNL     1       4.527   3.278  18.420  0.00  0.00    +0.000 OA
ATOM     12  C   UNL     1       5.107   4.494  18.145  0.00  0.00    +0.000 A 
ATOM     13  C   UNL     1       6.510   4.432  18.056  0.00  0.00    +0.000 A 
ATOM     14  C   UNL     1       7.258   5.562  17.745  0.00  0.00    +0.000 A 
ATOM     15  C   UNL     1       6.606   6.765  17.522  0.00  0.00    +0.000 A 
ATOM     16  C   UNL     1       5.209   6.829  17.598  0.00  0.00    +0.000 A 
ATOM     17  C   UNL     1       4.419   5.697  17.890  0.00  0.00    +0.000 A 
ENDROOT
TORSDOF 0
ENDMDL
MODEL 2
REMARK VINA RESULT:      -6.9      1.924      3.609
REMARK  Name = 
REMARK  1 active torsions:
REMARK  status: ('A' for Active; 'I' for Inactive)
REMARK    1  A    between atoms: C_1  and  N_2
REMARK                            x       y       z     vdW  Elec       q    Type
REMARK                         _______ _______ _______ _____ _____    ______ ____
ROOT
ATOM      1  C   UNL     1       4.855   5.944  16.876  0.00  0.00    +0.000 C 
ATOM      2  N   UNL     1       4.077   5.851  18.103  0.00  0.00    +0.000 N 
ATOM      3  C   UNL     1       4.352   4.734  18.888  0.00  0.00    +0.000 C 
ATOM      4  O   UNL     1       5.451   4.191  18.953  0.00  0.00    +0.000 OA
ATOM      5  C   UNL     1       3.197   4.000  19.399  0.00  0.00    +0.000 A 
ATOM      6  C   UNL     1       3.073   2.649  19.073  0.00  0.00    +0.000 A 
ATOM      7  C   UNL     1       1.918   1.971  19.438  0.00  0.00    +0.000 A 
ATOM      8  C   UNL     1       0.947   2.674  20.133  0.00  0.00    +0.000 A 
ATOM      9  N   UNL     1       1.062   3.976  20.493  0.00  0.00    +0.000 NA
ATOM     10  C   UNL     1       2.188   4.621  20.097  0.00  0.00    +0.000 A 
ATOM     11  O   UNL     1       2.344   5.898  20.565  0.00  0.00    +0.000 OA
ATOM     12  C   UNL     1       2.358   6.887  19.609  0.00  0.00    +0.000 A 
ATOM     13  C   UNL     1       1.561   7.996  19.947  0.00  0.00    +0.000 A 
ATOM     14  C   UNL     1       1.491   9.107  19.112  0.00  0.00    +0.000 A 
ATOM     15  C   UNL     1       2.217   9.114  17.931  0.00  0.00    +0.000 A 
ATOM     16  C   UNL     1       3.020   8.016  17.597  0.00  0.00    +0.000 A 
ATOM     17  C   UNL     1       3.132   6.884  18.431  0.00  0.00    +0.000 A 
ENDROOT
TORSDOF 0
ENDMDL
MODEL 3
REMARK VINA RESULT:      -6.8      1.988      4.891
REMARK  Name = 
REMARK  1 active torsions:
REMARK  status: ('A' for Active; 'I' for Inactive)
REMARK    1  A    between atoms: C_1  and  N_2
REMARK                            x       y       z     vdW  Elec       q    Type
REMARK                         _______ _______ _______ _____ _____    ______ ____
ROOT
ATOM      1  C   UNL     1       2.632   4.795  20.710  0.00  0.00    +0.000 C 
ATOM      2  N   UNL     1       3.051   5.455  19.482  0.00  0.00    +0.000 N 
ATOM      3  C   UNL     1       3.821   4.670  18.627  0.00  0.00    +0.000 C 
ATOM      4  O   UNL     1       3.711   3.452  18.525  0.00  0.00    +0.000 OA
ATOM      5  C   UNL     1       5.019   5.296  18.075  0.00  0.00    +0.000 A 
ATOM      6  C   UNL     1       6.254   4.692  18.316  0.00  0.00    +0.000 A 
ATOM      7  C   UNL     1       7.412   5.341  17.913  0.00  0.00    +0.000 A 
ATOM      8  C   UNL     1       7.280   6.560  17.266  0.00  0.00    +0.000 A 
ATOM      9  N   UNL     1       6.090   7.147  16.988  0.00  0.00    +0.000 NA
ATOM     10  C   UNL     1       4.977   6.504  17.421  0.00  0.00    +0.000 A 
ATOM     11  O   UNL     1       3.781   7.049  17.034  0.00  0.00    +0.000 OA
ATOM     12  C   UNL     1       2.980   7.514  18.050  0.00  0.00    +0.000 A 
ATOM     13  C   UNL     1       2.428   8.781  17.785  0.00  0.00    +0.000 A 
ATOM     14  C   UNL     1       1.561   9.386  18.688  0.00  0.00    +0.000 A 
ATOM     15  C   UNL     1       1.240   8.727  19.864  0.00  0.00    +0.000 A 
ATOM     16  C   UNL     1       1.777   7.461  20.127  0.00  0.00    +0.000 A 
ATOM     17  C   UNL     1       2.643   6.810  19.222  0.00  0.00    +0.000 A 
ENDROOT
TORSDOF 0
ENDMDL
MODEL 4
REMARK VINA RESULT:      -6.6      2.165      4.808
REMARK  Name = 
REMARK  1 active torsions:
REMARK  status: ('A' for Active; 'I' for Inactive)
REMARK    1  A    between atoms: C_1  and  N_2
REMARK                            x       y       z     vdW  Elec       q    Type
REMARK                         _______ _______ _______ _____ _____    ______ ____
ROOT
ATOM      1  C   UNL     1       2.215   7.038  18.029  0.00  0.00    +0.000 C 
ATOM      2  N   UNL     1       3.183   5.951  17.997  0.00  0.00    +0.000 N 
ATOM      3  C   UNL     1       4.461   6.316  17.581  0.00  0.00    +0.000 C 
ATOM      4  O   UNL     1       4.959   7.421  17.775  0.00  0.00    +0.000 OA
ATOM      5  C   UNL     1       5.096   5.443  16.597  0.00  0.00    +0.000 A 
ATOM      6  C   UNL     1       5.496   5.997  15.380  0.00  0.00    +0.000 A 
ATOM      7  C   UNL     1       5.978   5.160  14.385  0.00  0.00    +0.000 A 
ATOM      8  C   UNL     1       6.059   3.804  14.662  0.00  0.00    +0.000 A 
ATOM      9  N   UNL     1       5.713   3.249  15.849  0.00  0.00    +0.000 NA
ATOM     10  C   UNL     1       5.216   4.088  16.792  0.00  0.00    +0.000 A 
ATOM     11  O   UNL     1       4.979   3.534  18.022  0.00  0.00    +0.000 OA
ATOM     12  C   UNL     1       3.666   3.527  18.431  0.00  0.00    +0.000 A 
ATOM     13  C   UNL     1       3.263   2.296  18.980  0.00  0.00    +0.000 A 
ATOM     14  C   UNL     1       1.977   2.123  19.481  0.00  0.00    +0.000 A 
ATOM     15  C   UNL     1       1.085   3.183  19.436  0.00  0.00    +0.000 A 
ATOM     16  C   UNL     1       1.485   4.414  18.902  0.00  0.00    +0.000 A 
ATOM     17  C   UNL     1       2.788   4.629  18.405  0.00  0.00    +0.000 A 
ENDROOT
TORSDOF 0
ENDMDL
MODEL 5
REMARK VINA RESULT:      -6.4      2.032      4.735
REMARK  Name = 
REMARK  1 active torsions:
REMARK  status: ('A' for Active; 'I' for Inactive)
REMARK    1  A    between atoms: C_1  and  N_2
REMARK                            x       y       z     vdW  Elec       q    Type
REMARK                         _______ _______ _______ _____ _____    ______ ____
ROOT
ATOM      1  C   UNL     1       2.006   3.095  19.576  0.00  0.00    +0.000 C 
ATOM      2  N   UNL     1       2.404   4.254  18.789  0.00  0.00    +0.000 N 
ATOM      3  C   UNL     1       2.898   3.960  17.521  0.00  0.00    +0.000 C 
ATOM      4  O   UNL     1       2.537   3.000  16.846  0.00  0.00    +0.000 OA
ATOM      5  C   UNL     1       4.125   4.648  17.128  0.00  0.00    +0.000 A 
ATOM      6  C   UNL     1       5.235   3.877  16.778  0.00  0.00    +0.000 A 
ATOM      7  C   UNL     1       6.444   4.511  16.531  0.00  0.00    +0.000 A 
ATOM      8  C   UNL     1       6.483   5.893  16.625  0.00  0.00    +0.000 A 
ATOM      9  N   UNL     1       5.410   6.664  16.926  0.00  0.00    +0.000 NA
ATOM     10  C   UNL     1       4.248   6.015  17.192  0.00  0.00    +0.000 A 
ATOM     11  O   UNL     1       3.148   6.809  17.381  0.00  0.00    +0.000 OA
ATOM     12  C   UNL     1       2.578   6.752  18.631  0.00  0.00    +0.000 A 
ATOM     13  C   UNL     1       2.262   8.019  19.155  0.00  0.00    +0.000 A 
ATOM     14  C   UNL     1       1.642   8.147  20.394  0.00  0.00    +0.000 A 
ATOM     15  C   UNL     1       1.335   7.005  21.118  0.00  0.00    +0.000 A 
ATOM     16  C   UNL     1       1.637   5.742  20.595  0.00  0.00    +0.000 A 
ATOM     17  C   UNL     1       2.245   5.576  19.332  0.00  0.00    +0.000 A 
ENDROOT
TORSDOF 0
ENDMDL
MODEL 6
REMARK VINA RESULT:      -6.4      2.064      3.288
REMARK  Name = 
REMARK  1 active torsions:
REMARK  status: ('A' for Active; 'I' for Inactive)
REMARK    1  A    between atoms: C_1  and  N_2
REMARK                            x       y       z     vdW  Elec       q    Type
REMARK                         _______ _______ _______ _____ _____    ______ ____
ROOT
ATOM      1  C   UNL     1       3.659   1.673  17.894  0.00  0.00    +0.000 C 
ATOM      2  N   UNL     1       4.020   3.032  18.272  0.00  0.00    +0.000 N 
ATOM      3  C   UNL     1       3.832   3.336  19.618  0.00  0.00    +0.000 C 
ATOM      4  O   UNL     1       3.938   2.520  20.529  0.00  0.00    +0.000 OA
ATOM      5  C   UNL     1       3.170   4.604  19.909  0.00  0.00    +0.000 A 
ATOM      6  C   UNL     1       1.991   4.580  20.656  0.00  0.00    +0.000 A 
ATOM      7  C   UNL     1       1.279   5.759  20.829  0.00  0.00    +0.000 A 
ATOM      8  C   UNL     1       1.793   6.915  20.264  0.00  0.00    +0.000 A 
ATOM      9  N   UNL     1       2.954   6.969  19.568  0.00  0.00    +0.000 NA
ATOM     10  C   UNL     1       3.613   5.796  19.388  0.00  0.00    +0.000 A 
ATOM     11  O   UNL     1       4.839   5.883  18.785  0.00  0.00    +0.000 OA
ATOM     12  C   UNL     1       4.952   5.252  17.568  0.00  0.00    +0.000 A 
ATOM     13  C   UNL     1       5.602   6.035  16.596  0.00  0.00    +0.000 A 
ATOM     14  C   UNL     1       5.838   5.537  15.318  0.00  0.00    +0.000 A 
ATOM     15  C   UNL     1       5.423   4.252  15.005  0.00  0.00    +0.000 A 
ATOM     16  C   UNL     1       4.786   3.466  15.973  0.00  0.00    +0.000 A 
ATOM     17  C   UNL     1       4.552   3.931  17.284  0.00  0.00    +0.000 A 
ENDROOT
TORSDOF 0
ENDMDL
MODEL 7
REMARK VINA RESULT:      -6.4      2.286      2.877
REMARK  Name = 
REMARK  1 active torsions:
REMARK  status: ('A' for Active; 'I' for Inactive)
REMARK    1  A    between atoms: C_1  and  N_2
REMARK                            x       y       z     vdW  Elec       q    Type
REMARK                         _______ _______ _______ _____ _____    ______ ____
ROOT
ATOM      1  C   UNL     1       6.523   5.505  19.447  0.00  0.00    +0.000 C 
ATOM      2  N   UNL     1       5.438   5.124  18.553  0.00  0.00    +0.000 N 
ATOM      3  C   UNL     1       4.164   5.206  19.109  0.00  0.00    +0.000 C 
ATOM      4  O   UNL     1       3.839   6.019  19.970  0.00  0.00    +0.000 OA
ATOM      5  C   UNL     1       3.283   4.064  18.881  0.00  0.00    +0.000 A 
ATOM      6  C   UNL     1       2.767   3.392  19.990  0.00  0.00    +0.000 A 
ATOM      7  C   UNL     1       2.038   2.228  19.794  0.00  0.00    +0.000 A 
ATOM      8  C   UNL     1       1.839   1.800  18.491  0.00  0.00    +0.000 A 
ATOM      9  N   UNL     1       2.297   2.457  17.397  0.00  0.00    +0.000 NA
ATOM     10  C   UNL     1       3.033   3.575  17.621  0.00  0.00    +0.000 A 
ATOM     11  O   UNL     1       3.391   4.289  16.509  0.00  0.00    +0.000 OA
ATOM     12  C   UNL     1       4.742   4.373  16.262  0.00  0.00    +0.000 A 
ATOM     13  C   UNL     1       5.075   4.142  14.915  0.00  0.00    +0.000 A 
ATOM     14  C   UNL     1       6.393   4.227  14.480  0.00  0.00    +0.000 A 
ATOM     15  C   UNL     1       7.388   4.544  15.392  0.00  0.00    +0.000 A 
ATOM     16  C   UNL     1       7.059   4.787  16.731  0.00  0.00    +0.000 A 
ATOM     17  C   UNL     1       5.730   4.730  17.201  0.00  0.00    +0.000 A 
ENDROOT
TORSDOF 0
ENDMDL
MODEL 8
REMARK VINA RESULT:      -6.4      2.068      4.868
REMARK  Name = 
REMARK  1 active torsions:
REMARK  status: ('A' for Active; 'I' for Inactive)
REMARK    1  A    between atoms: C_1  and  N_2
REMARK                            x       y       z     vdW  Elec       q    Type
REMARK                         _______ _______ _______ _____ _____    ______ ____
ROOT
ATOM      1  C   UNL     1       3.310   1.886  17.008  0.00  0.00    +0.000 C 
ATOM      2  N   UNL     1       3.611   3.116  17.727  0.00  0.00    +0.000 N 
ATOM      3  C   UNL     1       4.407   4.022  17.032  0.00  0.00    +0.000 C 
ATOM      4  O   UNL     1       4.401   4.148  15.810  0.00  0.00    +0.000 OA
ATOM      5  C   UNL     1       5.517   4.613  17.774  0.00  0.00    +0.000 A 
ATOM      6  C   UNL     1       6.811   4.442  17.279  0.00  0.00    +0.000 A 
ATOM      7  C   UNL     1       7.886   4.881  18.038  0.00  0.00    +0.000 A 
ATOM      8  C   UNL     1       7.615   5.492  19.253  0.00  0.00    +0.000 A 
ATOM      9  N   UNL     1       6.366   5.703  19.735  0.00  0.00    +0.000 NA
ATOM     10  C   UNL     1       5.336   5.235  18.986  0.00  0.00    +0.000 A 
ATOM     11  O   UNL     1       4.080   5.556  19.427  0.00  0.00    +0.000 OA
ATOM     12  C   UNL     1       3.289   4.494  19.799  0.00  0.00    +0.000 A 
ATOM     13  C   UNL     1       2.614   4.704  21.015  0.00  0.00    +0.000 A 
ATOM     14  C   UNL     1       1.739   3.749  21.522  0.00  0.00    +0.000 A 
ATOM     15  C   UNL     1       1.534   2.575  20.814  0.00  0.00    +0.000 A 
ATOM     16  C   UNL     1       2.194   2.367  19.597  0.00  0.00    +0.000 A 
ATOM     17  C   UNL     1       3.071   3.325  19.044  0.00  0.00    +0.000 A 
ENDROOT
TORSDOF 0
ENDMDL
MODEL 9
REMARK VINA RESULT:      -6.3      1.848      2.403
REMARK  Name = 
REMARK  1 active torsions:
REMARK  status: ('A' for Active; 'I' for Inactive)
REMARK    1  A    between atoms: C_1  and  N_2
REMARK                            x       y       z     vdW  Elec       q    Type
REMARK                         _______ _______ _______ _____ _____    ______ ____
ROOT
ATOM      1  C   UNL     1       5.293   6.177  15.205  0.00  0.00    +0.000 C 
ATOM      2  N   UNL     1       5.382   5.414  16.442  0.00  0.00    +0.000 N 
ATOM      3  C   UNL     1       4.584   4.274  16.487  0.00  0.00    +0.000 C 
ATOM      4  O   UNL     1       4.292   3.599  15.504  0.00  0.00    +0.000 OA
ATOM      5  C   UNL     1       3.808   4.074  17.708  0.00  0.00    +0.000 A 
ATOM      6  C   UNL     1       2.420   3.973  17.603  0.00  0.00    +0.000 A 
ATOM      7  C   UNL     1       1.659   3.915  18.762  0.00  0.00    +0.000 A 
ATOM      8  C   UNL     1       2.326   3.939  19.977  0.00  0.00    +0.000 A 
ATOM      9  N   UNL     1       3.674   3.999  20.102  0.00  0.00    +0.000 NA
ATOM     10  C   UNL     1       4.391   4.085  18.953  0.00  0.00    +0.000 A 
ATOM     11  O   UNL     1       5.752   4.028  19.089  0.00  0.00    +0.000 OA
ATOM     12  C   UNL     1       6.439   5.156  18.703  0.00  0.00    +0.000 A 
ATOM     13  C   UNL     1       7.429   5.544  19.624  0.00  0.00    +0.000 A 
ATOM     14  C   UNL     1       8.247   6.641  19.374  0.00  0.00    +0.000 A 
ATOM     15  C   UNL     1       8.078   7.358  18.200  0.00  0.00    +0.000 A 
ATOM     16  C   UNL     1       7.101   6.968  17.276  0.00  0.00    +0.000 A 
ATOM     17  C   UNL     1       6.270   5.848  17.488  0.00  0.00    +0.000 A 
ENDROOT
TORSDOF 0
ENDMDL
