MODEL 1
REMARK VINA RESULT:      -7.1      0.000      0.000
REMARK  Name = 
REMARK  9 active torsions:
REMARK  status: ('A' for Active; 'I' for Inactive)
REMARK    1  A    between atoms: C_1  and  C_2
REMARK    2  A    between atoms: N_7  and  C_8
REMARK    3  A    between atoms: C_8  and  C_9
REMARK    4  A    between atoms: C_9  and  C_10
REMARK    5  A    between atoms: N_12  and  C_13
REMARK    6  A    between atoms: C_13  and  C_14
REMARK    7  A    between atoms: C_13  and  C_15
REMARK    8  A    between atoms: C_13  and  C_16
REMARK    9  A    between atoms: C_19  and  C_20
REMARK                            x       y       z     vdW  Elec       q    Type
REMARK                         _______ _______ _______ _____ _____    ______ ____
ROOT
ATOM      1  C   UNL     1      -0.746  11.552  21.053  0.00  0.00    +0.000 C 
ATOM      2  C   UNL     1       0.117  10.417  20.570  0.00  0.00    +0.000 A 
ATOM      3  C   UNL     1       0.623  10.461  19.255  0.00  0.00    +0.000 A 
ATOM      4  C   UNL     1       1.420   9.409  18.783  0.00  0.00    +0.000 A 
ATOM      5  N   UNL     1       2.005   9.237  17.551  0.00  0.00    +0.000 NA
ATOM      6  C   UNL     1       2.643   8.092  17.631  0.00  0.00    +0.000 A 
ATOM      7  N   UNL     1       2.480   7.506  18.856  0.00  0.00    +0.000 N 
ATOM      8  C   UNL     1       1.712   8.342  19.627  0.00  0.00    +0.000 A 
ATOM      9  C   UNL     1       1.246   8.279  20.946  0.00  0.00    +0.000 A 
ATOM     10  C   UNL     1       0.425   9.326  21.409  0.00  0.00    +0.000 A 
ATOM     11  C   UNL     1      -0.115   9.244  22.812  0.00  0.00    +0.000 C 
ENDROOT
BRANCH   7  12
ATOM     12  C   UNL     1       3.064   6.243  19.260  0.00  0.00    +0.000 C 
BRANCH  12  13
ATOM     13  C   UNL     1       3.252   5.266  18.102  0.00  0.00    +0.000 C 
BRANCH  13  14
ATOM     14  C   UNL     1       4.636   5.406  17.516  0.00  0.00    +0.000 C 
ATOM     15  O   UNL     1       4.841   5.404  16.308  0.00  0.00    +0.000 OA
ATOM     16  N   UNL     1       5.620   5.544  18.474  0.00  0.00    +0.000 N 
ATOM     17  H   UNL     1       5.338   5.558  19.447  0.00  0.00    +0.000 HD
BRANCH  16  18
ATOM     18  C   UNL     1       7.051   5.715  18.175  0.00  0.00    +0.000 C 
ATOM     19  C   UNL     1       7.306   7.067  17.490  0.00  0.00    +0.000 C 
ATOM     20  C   UNL     1       7.832   5.687  19.502  0.00  0.00    +0.000 C 
ATOM     21  C   UNL     1       7.565   4.566  17.293  0.00  0.00    +0.000 C 
ENDBRANCH  16  18
ENDBRANCH  13  14
ENDBRANCH  12  13
ENDBRANCH   7  12
TORSDOF 4
ENDMDL
MODEL 2
REMARK VINA RESULT:      -7.1      2.296      3.800
REMARK  Name = 
REMARK  9 active torsions:
REMARK  status: ('A' for Active; 'I' for Inactive)
REMARK    1  A    between atoms: C_1  and  C_2
REMARK    2  A    between atoms: N_7  and  C_8
REMARK    3  A    between atoms: C_8  and  C_9
REMARK    4  A    between atoms: C_9  and  C_10
REMARK    5  A    between atoms: N_12  and  C_13
REMARK    6  A    between atoms: C_13  and  C_14
REMARK    7  A    between atoms: C_13  and  C_15
REMARK    8  A    between atoms: C_13  and  C_16
REMARK    9  A    between atoms: C_19  and  C_20
REMARK                            x       y       z     vdW  Elec       q    Type
REMARK                         _______ _______ _______ _____ _____    ______ ____
ROOT
ATOM      1  C   UNL     1       1.581   8.783  20.714  0.00  0.00    +0.000 C 
ATOM      2  C   UNL     1       1.748   7.401  20.140  0.00  0.00    +0.000 A 
ATOM      3  C   UNL     1       1.450   6.288  20.951  0.00  0.00    +0.000 A 
ATOM      4  C   UNL     1       1.608   4.993  20.438  0.00  0.00    +0.000 A 
ATOM      5  N   UNL     1       1.390   3.778  21.042  0.00  0.00    +0.000 NA
ATOM      6  C   UNL     1       1.684   2.882  20.128  0.00  0.00    +0.000 A 
ATOM      7  N   UNL     1       2.102   3.465  18.964  0.00  0.00    +0.000 N 
ATOM      8  C   UNL     1       2.044   4.827  19.128  0.00  0.00    +0.000 A 
ATOM      9  C   UNL     1       2.326   5.911  18.287  0.00  0.00    +0.000 A 
ATOM     10  C   UNL     1       2.190   7.210  18.814  0.00  0.00    +0.000 A 
ATOM     11  C   UNL     1       2.532   8.380  17.929  0.00  0.00    +0.000 C 
ENDROOT
BRANCH   7  12
ATOM     12  C   UNL     1       2.490   2.749  17.766  0.00  0.00    +0.000 C 
BRANCH  12  13
ATOM     13  C   UNL     1       3.980   2.424  17.712  0.00  0.00    +0.000 C 
BRANCH  13  14
ATOM     14  C   UNL     1       4.746   3.570  17.097  0.00  0.00    +0.000 C 
ATOM     15  O   UNL     1       4.493   4.004  15.979  0.00  0.00    +0.000 OA
ATOM     16  N   UNL     1       5.734   4.067  17.922  0.00  0.00    +0.000 N 
ATOM     17  H   UNL     1       5.842   3.651  18.839  0.00  0.00    +0.000 HD
BRANCH  16  18
ATOM     18  C   UNL     1       6.614   5.195  17.576  0.00  0.00    +0.000 C 
ATOM     19  C   UNL     1       7.639   5.450  18.693  0.00  0.00    +0.000 C 
ATOM     20  C   UNL     1       7.379   4.838  16.288  0.00  0.00    +0.000 C 
ATOM     21  C   UNL     1       5.793   6.466  17.307  0.00  0.00    +0.000 C 
ENDBRANCH  16  18
ENDBRANCH  13  14
ENDBRANCH  12  13
ENDBRANCH   7  12
TORSDOF 4
ENDMDL
MODEL 3
REMARK VINA RESULT:      -7.0      2.598      3.988
REMARK  Name = 
REMARK  9 active torsions:
REMARK  status: ('A' for Active; 'I' for Inactive)
REMARK    1  A    between atoms: C_1  and  C_2
REMARK    2  A    between atoms: N_7  and  C_8
REMARK    3  A    between atoms: C_8  and  C_9
REMARK    4  A    between atoms: C_9  and  C_10
REMARK    5  A    between atoms: N_12  and  C_13
REMARK    6  A    between atoms: C_13  and  C_14
REMARK    7  A    between atoms: C_13  and  C_15
REMARK    8  A    between atoms: C_13  and  C_16
REMARK    9  A    between atoms: C_19  and  C_20
REMARK                            x       y       z     vdW  Elec       q    Type
REMARK                         _______ _______ _______ _____ _____    ______ ____
ROOT
ATOM      1  C   UNL     1       1.608   8.529  20.798  0.00  0.00    +0.000 C 
ATOM      2  C   UNL     1       1.739   7.151  20.205  0.00  0.00    +0.000 A 
ATOM      3  C   UNL     1       1.364   6.039  20.985  0.00  0.00    +0.000 A 
ATOM      4  C   UNL     1       1.488   4.747  20.455  0.00  0.00    +0.000 A 
ATOM      5  N   UNL     1       1.197   3.532  21.029  0.00  0.00    +0.000 NA
ATOM      6  C   UNL     1       1.488   2.640  20.111  0.00  0.00    +0.000 A 
ATOM      7  N   UNL     1       1.974   3.224  18.974  0.00  0.00    +0.000 N 
ATOM      8  C   UNL     1       1.966   4.584  19.159  0.00  0.00    +0.000 A 
ATOM      9  C   UNL     1       2.325   5.668  18.350  0.00  0.00    +0.000 A 
ATOM     10  C   UNL     1       2.223   6.963  18.894  0.00  0.00    +0.000 A 
ATOM     11  C   UNL     1       2.646   8.132  18.044  0.00  0.00    +0.000 C 
ENDROOT
BRANCH   7  12
ATOM     12  C   UNL     1       2.378   2.511  17.778  0.00  0.00    +0.000 C 
BRANCH  12  13
ATOM     13  C   UNL     1       3.780   1.918  17.873  0.00  0.00    +0.000 C 
BRANCH  13  14
ATOM     14  C   UNL     1       4.751   2.945  18.405  0.00  0.00    +0.000 C 
ATOM     15  O   UNL     1       5.160   2.925  19.560  0.00  0.00    +0.000 OA
ATOM     16  N   UNL     1       5.121   3.881  17.462  0.00  0.00    +0.000 N 
ATOM     17  H   UNL     1       4.742   3.791  16.527  0.00  0.00    +0.000 HD
BRANCH  16  18
ATOM     18  C   UNL     1       6.068   4.981  17.711  0.00  0.00    +0.000 C 
ATOM     19  C   UNL     1       5.814   6.148  16.745  0.00  0.00    +0.000 C 
ATOM     20  C   UNL     1       5.858   5.487  19.151  0.00  0.00    +0.000 C 
ATOM     21  C   UNL     1       7.519   4.490  17.585  0.00  0.00    +0.000 C 
ENDBRANCH  16  18
ENDBRANCH  13  14
ENDBRANCH  12  13
ENDBRANCH   7  12
TORSDOF 4
ENDMDL
MODEL 4
REMARK VINA RESULT:      -6.9      2.273      3.068
REMARK  Name = 
REMARK  9 active torsions:
REMARK  status: ('A' for Active; 'I' for Inactive)
REMARK    1  A    between atoms: C_1  and  C_2
REMARK    2  A    between atoms: N_7  and  C_8
REMARK    3  A    between atoms: C_8  and  C_9
REMARK    4  A    between atoms: C_9  and  C_10
REMARK    5  A    between atoms: N_12  and  C_13
REMARK    6  A    between atoms: C_13  and  C_14
REMARK    7  A    between atoms: C_13  and  C_15
REMARK    8  A    between atoms: C_13  and  C_16
REMARK    9  A    between atoms: C_19  and  C_20
REMARK                            x       y       z     vdW  Elec       q    Type
REMARK                         _______ _______ _______ _____ _____    ______ ____
ROOT
ATOM      1  C   UNL     1      -1.126  11.795  21.771  0.00  0.00    +0.000 C 
ATOM      2  C   UNL     1      -0.264  10.738  21.135  0.00  0.00    +0.000 A 
ATOM      3  C   UNL     1       0.065  10.860  19.770  0.00  0.00    +0.000 A 
ATOM      4  C   UNL     1       0.858   9.881  19.157  0.00  0.00    +0.000 A 
ATOM      5  N   UNL     1       1.290   9.791  17.855  0.00  0.00    +0.000 NA
ATOM      6  C   UNL     1       2.003   8.689  17.805  0.00  0.00    +0.000 A 
ATOM      7  N   UNL     1       2.036   8.052  19.014  0.00  0.00    +0.000 N 
ATOM      8  C   UNL     1       1.323   8.808  19.911  0.00  0.00    +0.000 A 
ATOM      9  C   UNL     1       1.034   8.669  21.274  0.00  0.00    +0.000 A 
ATOM     10  C   UNL     1       0.217   9.641  21.881  0.00  0.00    +0.000 A 
ATOM     11  C   UNL     1      -0.132   9.475  23.337  0.00  0.00    +0.000 C 
ENDROOT
BRANCH   7  12
ATOM     12  C   UNL     1       2.744   6.818  19.287  0.00  0.00    +0.000 C 
BRANCH  12  13
ATOM     13  C   UNL     1       3.187   6.083  18.025  0.00  0.00    +0.000 C 
BRANCH  13  14
ATOM     14  C   UNL     1       3.177   4.591  18.254  0.00  0.00    +0.000 C 
ATOM     15  O   UNL     1       3.438   3.788  17.366  0.00  0.00    +0.000 OA
ATOM     16  N   UNL     1       2.857   4.244  19.551  0.00  0.00    +0.000 N 
ATOM     17  H   UNL     1       2.683   4.989  20.214  0.00  0.00    +0.000 HD
BRANCH  16  18
ATOM     18  C   UNL     1       2.794   2.860  20.048  0.00  0.00    +0.000 C 
ATOM     19  C   UNL     1       1.853   2.011  19.178  0.00  0.00    +0.000 C 
ATOM     20  C   UNL     1       4.207   2.250  19.972  0.00  0.00    +0.000 C 
ATOM     21  C   UNL     1       2.337   2.827  21.514  0.00  0.00    +0.000 C 
ENDBRANCH  16  18
ENDBRANCH  13  14
ENDBRANCH  12  13
ENDBRANCH   7  12
TORSDOF 4
ENDMDL
MODEL 5
REMARK VINA RESULT:      -6.9      2.172      3.230
REMARK  Name = 
REMARK  9 active torsions:
REMARK  status: ('A' for Active; 'I' for Inactive)
REMARK    1  A    between atoms: C_1  and  C_2
REMARK    2  A    between atoms: N_7  and  C_8
REMARK    3  A    between atoms: C_8  and  C_9
REMARK    4  A    between atoms: C_9  and  C_10
REMARK    5  A    between atoms: N_12  and  C_13
REMARK    6  A    between atoms: C_13  and  C_14
REMARK    7  A    between atoms: C_13  and  C_15
REMARK    8  A    between atoms: C_13  and  C_16
REMARK    9  A    between atoms: C_19  and  C_20
REMARK                            x       y       z     vdW  Elec       q    Type
REMARK                         _______ _______ _______ _____ _____    ______ ____
ROOT
ATOM      1  C   UNL     1      -1.089  11.782  21.444  0.00  0.00    +0.000 C 
ATOM      2  C   UNL     1      -0.204  10.706  20.874  0.00  0.00    +0.000 A 
ATOM      3  C   UNL     1       0.239  10.826  19.541  0.00  0.00    +0.000 A 
ATOM      4  C   UNL     1       1.056   9.830  18.989  0.00  0.00    +0.000 A 
ATOM      5  N   UNL     1       1.591   9.735  17.726  0.00  0.00    +0.000 NA
ATOM      6  C   UNL     1       2.278   8.616  17.727  0.00  0.00    +0.000 A 
ATOM      7  N   UNL     1       2.194   7.972  18.931  0.00  0.00    +0.000 N 
ATOM      8  C   UNL     1       1.429   8.742  19.771  0.00  0.00    +0.000 A 
ATOM      9  C   UNL     1       1.025   8.603  21.105  0.00  0.00    +0.000 A 
ATOM     10  C   UNL     1       0.185   9.593  21.649  0.00  0.00    +0.000 A 
ATOM     11  C   UNL     1      -0.287   9.429  23.069  0.00  0.00    +0.000 C 
ENDROOT
BRANCH   7  12
ATOM     12  C   UNL     1       2.846   6.719  19.252  0.00  0.00    +0.000 C 
BRANCH  12  13
ATOM     13  C   UNL     1       3.446   6.020  18.035  0.00  0.00    +0.000 C 
BRANCH  13  14
ATOM     14  C   UNL     1       3.085   4.554  18.041  0.00  0.00    +0.000 C 
ATOM     15  O   UNL     1       3.297   3.822  17.081  0.00  0.00    +0.000 OA
ATOM     16  N   UNL     1       2.513   4.140  19.226  0.00  0.00    +0.000 N 
ATOM     17  H   UNL     1       2.406   4.823  19.967  0.00  0.00    +0.000 HD
BRANCH  16  18
ATOM     18  C   UNL     1       2.085   2.760  19.504  0.00  0.00    +0.000 C 
ATOM     19  C   UNL     1       3.204   1.763  19.159  0.00  0.00    +0.000 C 
ATOM     20  C   UNL     1       1.773   2.639  21.007  0.00  0.00    +0.000 C 
ATOM     21  C   UNL     1       0.808   2.417  18.722  0.00  0.00    +0.000 C 
ENDBRANCH  16  18
ENDBRANCH  13  14
ENDBRANCH  12  13
ENDBRANCH   7  12
TORSDOF 4
ENDMDL
MODEL 6
REMARK VINA RESULT:      -6.7      4.664      6.184
REMARK  Name = 
REMARK  9 active torsions:
REMARK  status: ('A' for Active; 'I' for Inactive)
REMARK    1  A    between atoms: C_1  and  C_2
REMARK    2  A    between atoms: N_7  and  C_8
REMARK    3  A    between atoms: C_8  and  C_9
REMARK    4  A    between atoms: C_9  and  C_10
REMARK    5  A    between atoms: N_12  and  C_13
REMARK    6  A    between atoms: C_13  and  C_14
REMARK    7  A    between atoms: C_13  and  C_15
REMARK    8  A    between atoms: C_13  and  C_16
REMARK    9  A    between atoms: C_19  and  C_20
REMARK                            x       y       z     vdW  Elec       q    Type
REMARK                         _______ _______ _______ _____ _____    ______ ____
ROOT
ATOM      1  C   UNL     1       1.406   2.891  21.279  0.00  0.00    +0.000 C 
ATOM      2  C   UNL     1       2.334   3.397  20.208  0.00  0.00    +0.000 A 
ATOM      3  C   UNL     1       3.527   4.041  20.592  0.00  0.00    +0.000 A 
ATOM      4  C   UNL     1       4.401   4.528  19.609  0.00  0.00    +0.000 A 
ATOM      5  N   UNL     1       5.598   5.188  19.749  0.00  0.00    +0.000 NA
ATOM      6  C   UNL     1       6.010   5.417  18.524  0.00  0.00    +0.000 A 
ATOM      7  N   UNL     1       5.120   4.951  17.596  0.00  0.00    +0.000 N 
ATOM      8  C   UNL     1       4.082   4.354  18.266  0.00  0.00    +0.000 A 
ATOM      9  C   UNL     1       2.916   3.699  17.850  0.00  0.00    +0.000 A 
ATOM     10  C   UNL     1       2.030   3.233  18.840  0.00  0.00    +0.000 A 
ATOM     11  C   UNL     1       0.754   2.564  18.400  0.00  0.00    +0.000 C 
ENDROOT
BRANCH   7  12
ATOM     12  C   UNL     1       5.289   5.044  16.160  0.00  0.00    +0.000 C 
BRANCH  12  13
ATOM     13  C   UNL     1       6.395   4.140  15.621  0.00  0.00    +0.000 C 
BRANCH  13  14
ATOM     14  C   UNL     1       6.482   4.255  14.118  0.00  0.00    +0.000 C 
ATOM     15  O   UNL     1       6.994   5.219  13.562  0.00  0.00    +0.000 OA
ATOM     16  N   UNL     1       5.940   3.171  13.459  0.00  0.00    +0.000 N 
ATOM     17  H   UNL     1       5.564   2.414  14.017  0.00  0.00    +0.000 HD
BRANCH  16  18
ATOM     18  C   UNL     1       5.911   3.020  11.995  0.00  0.00    +0.000 C 
ATOM     19  C   UNL     1       4.571   3.509  11.424  0.00  0.00    +0.000 C 
ATOM     20  C   UNL     1       7.038   3.880  11.394  0.00  0.00    +0.000 C 
ATOM     21  C   UNL     1       6.159   1.558  11.593  0.00  0.00    +0.000 C 
ENDBRANCH  16  18
ENDBRANCH  13  14
ENDBRANCH  12  13
ENDBRANCH   7  12
TORSDOF 4
ENDMDL
MODEL 7
REMARK VINA RESULT:      -6.6      3.717      6.171
REMARK  Name = 
REMARK  9 active torsions:
REMARK  status: ('A' for Active; 'I' for Inactive)
REMARK    1  A    between atoms: C_1  and  C_2
REMARK    2  A    between atoms: N_7  and  C_8
REMARK    3  A    between atoms: C_8  and  C_9
REMARK    4  A    between atoms: C_9  and  C_10
REMARK    5  A    between atoms: N_12  and  C_13
REMARK    6  A    between atoms: C_13  and  C_14
REMARK    7  A    between atoms: C_13  and  C_15
REMARK    8  A    between atoms: C_13  and  C_16
REMARK    9  A    between atoms: C_19  and  C_20
REMARK                            x       y       z     vdW  Elec       q    Type
REMARK                         _______ _______ _______ _____ _____    ______ ____
ROOT
ATOM      1  C   UNL     1       1.660   3.915  17.794  0.00  0.00    +0.000 C 
ATOM      2  C   UNL     1       3.038   4.521  17.802  0.00  0.00    +0.000 A 
ATOM      3  C   UNL     1       4.000   4.035  16.894  0.00  0.00    +0.000 A 
ATOM      4  C   UNL     1       5.291   4.579  16.892  0.00  0.00    +0.000 A 
ATOM      5  N   UNL     1       6.377   4.258  16.112  0.00  0.00    +0.000 NA
ATOM      6  C   UNL     1       7.334   5.065  16.508  0.00  0.00    +0.000 A 
ATOM      7  N   UNL     1       6.920   5.881  17.525  0.00  0.00    +0.000 N 
ATOM      8  C   UNL     1       5.601   5.604  17.780  0.00  0.00    +0.000 A 
ATOM      9  C   UNL     1       4.663   6.127  18.679  0.00  0.00    +0.000 A 
ATOM     10  C   UNL     1       3.374   5.561  18.695  0.00  0.00    +0.000 A 
ATOM     11  C   UNL     1       2.373   6.089  19.688  0.00  0.00    +0.000 C 
ENDROOT
BRANCH   7  12
ATOM     12  C   UNL     1       7.739   6.886  18.172  0.00  0.00    +0.000 C 
BRANCH  12  13
ATOM     13  C   UNL     1       7.663   8.254  17.500  0.00  0.00    +0.000 C 
BRANCH  13  14
ATOM     14  C   UNL     1       8.489   9.261  18.263  0.00  0.00    +0.000 C 
ATOM     15  O   UNL     1       9.104   8.969  19.282  0.00  0.00    +0.000 OA
ATOM     16  N   UNL     1       8.479  10.516  17.690  0.00  0.00    +0.000 N 
ATOM     17  H   UNL     1       7.957  10.643  16.831  0.00  0.00    +0.000 HD
BRANCH  16  18
ATOM     18  C   UNL     1       9.215  11.676  18.219  0.00  0.00    +0.000 C 
ATOM     19  C   UNL     1       8.544  12.990  17.790  0.00  0.00    +0.000 C 
ATOM     20  C   UNL     1       9.199  11.602  19.758  0.00  0.00    +0.000 C 
ATOM     21  C   UNL     1      10.680  11.651  17.755  0.00  0.00    +0.000 C 
ENDBRANCH  16  18
ENDBRANCH  13  14
ENDBRANCH  12  13
ENDBRANCH   7  12
TORSDOF 4
ENDMDL
MODEL 8
REMARK VINA RESULT:      -6.5      3.447      5.602
REMARK  Name = 
REMARK  9 active torsions:
REMARK  status: ('A' for Active; 'I' for Inactive)
REMARK    1  A    between atoms: C_1  and  C_2
REMARK    2  A    between atoms: N_7  and  C_8
REMARK    3  A    between atoms: C_8  and  C_9
REMARK    4  A    between atoms: C_9  and  C_10
REMARK    5  A    between atoms: N_12  and  C_13
REMARK    6  A    between atoms: C_13  and  C_14
REMARK    7  A    between atoms: C_13  and  C_15
REMARK    8  A    between atoms: C_13  and  C_16
REMARK    9  A    between atoms: C_19  and  C_20
REMARK                            x       y       z     vdW  Elec       q    Type
REMARK                         _______ _______ _______ _____ _____    ______ ____
ROOT
ATOM      1  C   UNL     1       0.783   4.231  20.315  0.00  0.00    +0.000 C 
ATOM      2  C   UNL     1       2.029   4.505  19.516  0.00  0.00    +0.000 A 
ATOM      3  C   UNL     1       2.250   5.809  19.029  0.00  0.00    +0.000 A 
ATOM      4  C   UNL     1       3.399   6.083  18.274  0.00  0.00    +0.000 A 
ATOM      5  N   UNL     1       3.810   7.261  17.697  0.00  0.00    +0.000 NA
ATOM      6  C   UNL     1       4.950   6.978  17.111  0.00  0.00    +0.000 A 
ATOM      7  N   UNL     1       5.285   5.661  17.267  0.00  0.00    +0.000 N 
ATOM      8  C   UNL     1       4.314   5.063  18.030  0.00  0.00    +0.000 A 
ATOM      9  C   UNL     1       4.137   3.763  18.520  0.00  0.00    +0.000 A 
ATOM     10  C   UNL     1       2.969   3.486  19.256  0.00  0.00    +0.000 A 
ATOM     11  C   UNL     1       2.752   2.080  19.750  0.00  0.00    +0.000 C 
ENDROOT
BRANCH   7  12
ATOM     12  C   UNL     1       6.486   5.040  16.746  0.00  0.00    +0.000 C 
BRANCH  12  13
ATOM     13  C   UNL     1       6.209   3.787  15.920  0.00  0.00    +0.000 C 
BRANCH  13  14
ATOM     14  C   UNL     1       5.961   4.153  14.476  0.00  0.00    +0.000 C 
ATOM     15  O   UNL     1       5.469   5.226  14.146  0.00  0.00    +0.000 OA
ATOM     16  N   UNL     1       6.351   3.168  13.592  0.00  0.00    +0.000 N 
ATOM     17  H   UNL     1       6.771   2.328  13.971  0.00  0.00    +0.000 HD
BRANCH  16  18
ATOM     18  C   UNL     1       6.237   3.275  12.129  0.00  0.00    +0.000 C 
ATOM     19  C   UNL     1       6.647   1.957  11.452  0.00  0.00    +0.000 C 
ATOM     20  C   UNL     1       4.767   3.567  11.774  0.00  0.00    +0.000 C 
ATOM     21  C   UNL     1       7.096   4.435  11.598  0.00  0.00    +0.000 C 
ENDBRANCH  16  18
ENDBRANCH  13  14
ENDBRANCH  12  13
ENDBRANCH   7  12
TORSDOF 4
ENDMDL
MODEL 9
REMARK VINA RESULT:      -6.5      3.676      6.406
REMARK  Name = 
REMARK  9 active torsions:
REMARK  status: ('A' for Active; 'I' for Inactive)
REMARK    1  A    between atoms: C_1  and  C_2
REMARK    2  A    between atoms: N_7  and  C_8
REMARK    3  A    between atoms: C_8  and  C_9
REMARK    4  A    between atoms: C_9  and  C_10
REMARK    5  A    between atoms: N_12  and  C_13
REMARK    6  A    between atoms: C_13  and  C_14
REMARK    7  A    between atoms: C_13  and  C_15
REMARK    8  A    between atoms: C_13  and  C_16
REMARK    9  A    between atoms: C_19  and  C_20
REMARK                            x       y       z     vdW  Elec       q    Type
REMARK                         _______ _______ _______ _____ _____    ______ ____
ROOT
ATOM      1  C   UNL     1       1.919   4.171  18.412  0.00  0.00    +0.000 C 
ATOM      2  C   UNL     1       3.225   4.897  18.226  0.00  0.00    +0.000 A 
ATOM      3  C   UNL     1       4.428   4.182  18.392  0.00  0.00    +0.000 A 
ATOM      4  C   UNL     1       5.655   4.842  18.232  0.00  0.00    +0.000 A 
ATOM      5  N   UNL     1       6.935   4.355  18.353  0.00  0.00    +0.000 NA
ATOM      6  C   UNL     1       7.717   5.378  18.099  0.00  0.00    +0.000 A 
ATOM      7  N   UNL     1       6.998   6.512  17.838  0.00  0.00    +0.000 N 
ATOM      8  C   UNL     1       5.665   6.192  17.897  0.00  0.00    +0.000 A 
ATOM      9  C   UNL     1       4.488   6.925  17.701  0.00  0.00    +0.000 A 
ATOM     10  C   UNL     1       3.258   6.266  17.887  0.00  0.00    +0.000 A 
ATOM     11  C   UNL     1       1.989   7.059  17.720  0.00  0.00    +0.000 C 
ENDROOT
BRANCH   7  12
ATOM     12  C   UNL     1       7.569   7.804  17.515  0.00  0.00    +0.000 C 
BRANCH  12  13
ATOM     13  C   UNL     1       8.458   8.367  18.620  0.00  0.00    +0.000 C 
BRANCH  13  14
ATOM     14  C   UNL     1       8.747   9.827  18.370  0.00  0.00    +0.000 C 
ATOM     15  O   UNL     1       8.104  10.496  17.569  0.00  0.00    +0.000 OA
ATOM     16  N   UNL     1       9.788  10.313  19.134  0.00  0.00    +0.000 N 
ATOM     17  H   UNL     1      10.236   9.680  19.785  0.00  0.00    +0.000 HD
BRANCH  16  18
ATOM     18  C   UNL     1      10.263  11.706  19.099  0.00  0.00    +0.000 C 
ATOM     19  C   UNL     1      11.349  11.938  20.162  0.00  0.00    +0.000 C 
ATOM     20  C   UNL     1      10.875  11.977  17.712  0.00  0.00    +0.000 C 
ATOM     21  C   UNL     1       9.098  12.685  19.307  0.00  0.00    +0.000 C 
ENDBRANCH  16  18
ENDBRANCH  13  14
ENDBRANCH  12  13
ENDBRANCH   7  12
TORSDOF 4
ENDMDL
