MODEL 1
REMARK VINA RESULT:      -7.2      0.000      0.000
REMARK  Name = 
REMARK  3 active torsions:
REMARK  status: ('A' for Active; 'I' for Inactive)
REMARK    1  A    between atoms: C_1  and  O_2
REMARK    2  A    between atoms: O_2  and  C_3
REMARK    3  A    between atoms: N_8  and  C_9
REMARK                            x       y       z     vdW  Elec       q    Type
REMARK                         _______ _______ _______ _____ _____    ______ ____
ROOT
ATOM      1  C   UNL     1       6.559   4.432  14.517  0.00  0.00    +0.000 A 
ATOM      2  C   UNL     1       7.494   5.093  15.328  0.00  0.00    +0.000 A 
ATOM      3  C   UNL     1       7.270   5.247  16.701  0.00  0.00    +0.000 A 
ATOM      4  C   UNL     1       6.111   4.730  17.248  0.00  0.00    +0.000 A 
ATOM      5  S   UNL     1       5.564   4.871  18.913  0.00  0.00    +0.000 S 
ATOM      6  N   UNL     1       4.137   3.963  18.563  0.00  0.00    +0.000 N 
ATOM      7  C   UNL     1       4.049   3.537  17.230  0.00  0.00    +0.000 A 
ATOM      8  O   UNL     1       3.176   2.883  16.681  0.00  0.00    +0.000 OA
ATOM      9  C   UNL     1       5.206   4.035  16.457  0.00  0.00    +0.000 A 
ATOM     10  C   UNL     1       5.408   3.880  15.091  0.00  0.00    +0.000 A 
ENDROOT
BRANCH   6  11
ATOM     11  C   UNL     1       3.177   3.687  19.574  0.00  0.00    +0.000 A 
ATOM     12  C   UNL     1       3.424   2.727  20.566  0.00  0.00    +0.000 A 
ATOM     13  C   UNL     1       2.478   2.455  21.559  0.00  0.00    +0.000 A 
ATOM     14  C   UNL     1       1.256   3.121  21.563  0.00  0.00    +0.000 A 
ATOM     15  C   UNL     1       0.988   4.075  20.587  0.00  0.00    +0.000 A 
ATOM     16  C   UNL     1       1.945   4.365  19.611  0.00  0.00    +0.000 A 
ENDBRANCH   6  11
BRANCH   1  18
ATOM     17  C   UNL     1       5.742   3.374  12.554  0.00  0.00    +0.000 C 
ATOM     18  O   UNL     1       6.665   4.270  13.162  0.00  0.00    +0.000 OA
ENDBRANCH   1  18
TORSDOF 2
ENDMDL
MODEL 2
REMARK VINA RESULT:      -7.1      0.124      1.140
REMARK  Name = 
REMARK  3 active torsions:
REMARK  status: ('A' for Active; 'I' for Inactive)
REMARK    1  A    between atoms: C_1  and  O_2
REMARK    2  A    between atoms: O_2  and  C_3
REMARK    3  A    between atoms: N_8  and  C_9
REMARK                            x       y       z     vdW  Elec       q    Type
REMARK                         _______ _______ _______ _____ _____    ______ ____
ROOT
ATOM      1  C   UNL     1       6.501   4.477  14.460  0.00  0.00    +0.000 A 
ATOM      2  C   UNL     1       7.490   5.019  15.296  0.00  0.00    +0.000 A 
ATOM      3  C   UNL     1       7.293   5.102  16.679  0.00  0.00    +0.000 A 
ATOM      4  C   UNL     1       6.106   4.636  17.211  0.00  0.00    +0.000 A 
ATOM      5  S   UNL     1       5.589   4.711  18.890  0.00  0.00    +0.000 S 
ATOM      6  N   UNL     1       4.097   3.931  18.507  0.00  0.00    +0.000 N 
ATOM      7  C   UNL     1       3.964   3.596  17.152  0.00  0.00    +0.000 A 
ATOM      8  O   UNL     1       3.039   3.041  16.577  0.00  0.00    +0.000 OA
ATOM      9  C   UNL     1       5.145   4.057  16.393  0.00  0.00    +0.000 A 
ATOM     10  C   UNL     1       5.320   3.974  15.017  0.00  0.00    +0.000 A 
ENDROOT
BRANCH   6  11
ATOM     11  C   UNL     1       3.131   3.661  19.514  0.00  0.00    +0.000 A 
ATOM     12  C   UNL     1       1.919   4.364  19.563  0.00  0.00    +0.000 A 
ATOM     13  C   UNL     1       0.970   4.100  20.556  0.00  0.00    +0.000 A 
ATOM     14  C   UNL     1       1.228   3.144  21.533  0.00  0.00    +0.000 A 
ATOM     15  C   UNL     1       2.425   2.437  21.507  0.00  0.00    +0.000 A 
ATOM     16  C   UNL     1       3.361   2.683  20.499  0.00  0.00    +0.000 A 
ENDBRANCH   6  11
BRANCH   1  18
ATOM     17  C   UNL     1       5.905   3.299  12.486  0.00  0.00    +0.000 C 
ATOM     18  O   UNL     1       6.580   4.394  13.097  0.00  0.00    +0.000 OA
ENDBRANCH   1  18
TORSDOF 2
ENDMDL
MODEL 3
REMARK VINA RESULT:      -6.7      5.060      7.883
REMARK  Name = 
REMARK  3 active torsions:
REMARK  status: ('A' for Active; 'I' for Inactive)
REMARK    1  A    between atoms: C_1  and  O_2
REMARK    2  A    between atoms: O_2  and  C_3
REMARK    3  A    between atoms: N_8  and  C_9
REMARK                            x       y       z     vdW  Elec       q    Type
REMARK                         _______ _______ _______ _____ _____    ______ ____
ROOT
ATOM      1  C   UNL     1       0.338  10.149  21.802  0.00  0.00    +0.000 A 
ATOM      2  C   UNL     1       0.320  11.011  20.694  0.00  0.00    +0.000 A 
ATOM      3  C   UNL     1       0.816  10.594  19.453  0.00  0.00    +0.000 A 
ATOM      4  C   UNL     1       1.321   9.313  19.336  0.00  0.00    +0.000 A 
ATOM      5  S   UNL     1       2.076   8.591  17.921  0.00  0.00    +0.000 S 
ATOM      6  N   UNL     1       2.327   7.105  18.764  0.00  0.00    +0.000 N 
ATOM      7  C   UNL     1       1.853   7.115  20.084  0.00  0.00    +0.000 A 
ATOM      8  O   UNL     1       1.879   6.228  20.924  0.00  0.00    +0.000 OA
ATOM      9  C   UNL     1       1.297   8.442  20.418  0.00  0.00    +0.000 A 
ATOM     10  C   UNL     1       0.817   8.843  21.659  0.00  0.00    +0.000 A 
ENDROOT
BRANCH   6  11
ATOM     11  C   UNL     1       2.950   5.997  18.128  0.00  0.00    +0.000 A 
ATOM     12  C   UNL     1       2.253   4.801  17.910  0.00  0.00    +0.000 A 
ATOM     13  C   UNL     1       2.868   3.711  17.285  0.00  0.00    +0.000 A 
ATOM     14  C   UNL     1       4.200   3.790  16.890  0.00  0.00    +0.000 A 
ATOM     15  C   UNL     1       4.912   4.965  17.100  0.00  0.00    +0.000 A 
ATOM     16  C   UNL     1       4.288   6.063  17.699  0.00  0.00    +0.000 A 
ENDBRANCH   6  11
BRANCH   1  18
ATOM     17  C   UNL     1      -1.324  11.164  23.163  0.00  0.00    +0.000 C 
ATOM     18  O   UNL     1      -0.081  10.477  23.063  0.00  0.00    +0.000 OA
ENDBRANCH   1  18
TORSDOF 2
ENDMDL
MODEL 4
REMARK VINA RESULT:      -6.6      5.017      7.772
REMARK  Name = 
REMARK  3 active torsions:
REMARK  status: ('A' for Active; 'I' for Inactive)
REMARK    1  A    between atoms: C_1  and  O_2
REMARK    2  A    between atoms: O_2  and  C_3
REMARK    3  A    between atoms: N_8  and  C_9
REMARK                            x       y       z     vdW  Elec       q    Type
REMARK                         _______ _______ _______ _____ _____    ______ ____
ROOT
ATOM      1  C   UNL     1       0.509  10.230  21.741  0.00  0.00    +0.000 A 
ATOM      2  C   UNL     1       0.526  11.064  20.612  0.00  0.00    +0.000 A 
ATOM      3  C   UNL     1       0.996  10.595  19.380  0.00  0.00    +0.000 A 
ATOM      4  C   UNL     1       1.440   9.289  19.292  0.00  0.00    +0.000 A 
ATOM      5  S   UNL     1       2.154   8.499  17.892  0.00  0.00    +0.000 S 
ATOM      6  N   UNL     1       2.340   7.024  18.771  0.00  0.00    +0.000 N 
ATOM      7  C   UNL     1       1.873   7.087  20.092  0.00  0.00    +0.000 A 
ATOM      8  O   UNL     1       1.862   6.221  20.953  0.00  0.00    +0.000 OA
ATOM      9  C   UNL     1       1.382   8.447  20.395  0.00  0.00    +0.000 A 
ATOM     10  C   UNL     1       0.926   8.899  21.628  0.00  0.00    +0.000 A 
ENDROOT
BRANCH   6  11
ATOM     11  C   UNL     1       2.907   5.873  18.159  0.00  0.00    +0.000 A 
ATOM     12  C   UNL     1       4.267   5.828  17.820  0.00  0.00    +0.000 A 
ATOM     13  C   UNL     1       4.823   4.696  17.216  0.00  0.00    +0.000 A 
ATOM     14  C   UNL     1       4.023   3.597  16.917  0.00  0.00    +0.000 A 
ATOM     15  C   UNL     1       2.671   3.621  17.240  0.00  0.00    +0.000 A 
ATOM     16  C   UNL     1       2.122   4.742  17.868  0.00  0.00    +0.000 A 
ENDBRANCH   6  11
BRANCH   1  18
ATOM     17  C   UNL     1      -1.288  10.749  23.204  0.00  0.00    +0.000 C 
ATOM     18  O   UNL     1       0.113  10.607  22.995  0.00  0.00    +0.000 OA
ENDBRANCH   1  18
TORSDOF 2
ENDMDL
MODEL 5
REMARK VINA RESULT:      -6.3      2.649      6.874
REMARK  Name = 
REMARK  3 active torsions:
REMARK  status: ('A' for Active; 'I' for Inactive)
REMARK    1  A    between atoms: C_1  and  O_2
REMARK    2  A    between atoms: O_2  and  C_3
REMARK    3  A    between atoms: N_8  and  C_9
REMARK                            x       y       z     vdW  Elec       q    Type
REMARK                         _______ _______ _______ _____ _____    ______ ____
ROOT
ATOM      1  C   UNL     1       2.862   6.758  19.232  0.00  0.00    +0.000 A 
ATOM      2  C   UNL     1       2.906   5.454  19.750  0.00  0.00    +0.000 A 
ATOM      3  C   UNL     1       3.548   4.426  19.051  0.00  0.00    +0.000 A 
ATOM      4  C   UNL     1       4.145   4.718  17.839  0.00  0.00    +0.000 A 
ATOM      5  S   UNL     1       4.929   3.591  16.739  0.00  0.00    +0.000 S 
ATOM      6  N   UNL     1       5.293   4.865  15.632  0.00  0.00    +0.000 N 
ATOM      7  C   UNL     1       4.857   6.129  16.057  0.00  0.00    +0.000 A 
ATOM      8  O   UNL     1       4.966   7.213  15.505  0.00  0.00    +0.000 OA
ATOM      9  C   UNL     1       4.144   6.016  17.346  0.00  0.00    +0.000 A 
ATOM     10  C   UNL     1       3.504   7.047  18.023  0.00  0.00    +0.000 A 
ENDROOT
BRANCH   6  11
ATOM     11  C   UNL     1       5.987   4.606  14.418  0.00  0.00    +0.000 A 
ATOM     12  C   UNL     1       7.213   5.225  14.138  0.00  0.00    +0.000 A 
ATOM     13  C   UNL     1       7.894   4.971  12.944  0.00  0.00    +0.000 A 
ATOM     14  C   UNL     1       7.348   4.111  11.996  0.00  0.00    +0.000 A 
ATOM     15  C   UNL     1       6.131   3.488  12.251  0.00  0.00    +0.000 A 
ATOM     16  C   UNL     1       5.465   3.722  13.457  0.00  0.00    +0.000 A 
ENDBRANCH   6  11
BRANCH   1  18
ATOM     17  C   UNL     1       1.367   7.519  20.913  0.00  0.00    +0.000 C 
ATOM     18  O   UNL     1       2.223   7.818  19.815  0.00  0.00    +0.000 OA
ENDBRANCH   1  18
TORSDOF 2
ENDMDL
MODEL 6
REMARK VINA RESULT:      -6.2      2.677      6.789
REMARK  Name = 
REMARK  3 active torsions:
REMARK  status: ('A' for Active; 'I' for Inactive)
REMARK    1  A    between atoms: C_1  and  O_2
REMARK    2  A    between atoms: O_2  and  C_3
REMARK    3  A    between atoms: N_8  and  C_9
REMARK                            x       y       z     vdW  Elec       q    Type
REMARK                         _______ _______ _______ _____ _____    ______ ____
ROOT
ATOM      1  C   UNL     1       2.840   6.593  19.286  0.00  0.00    +0.000 A 
ATOM      2  C   UNL     1       2.926   5.288  19.795  0.00  0.00    +0.000 A 
ATOM      3  C   UNL     1       3.588   4.282  19.082  0.00  0.00    +0.000 A 
ATOM      4  C   UNL     1       4.161   4.597  17.865  0.00  0.00    +0.000 A 
ATOM      5  S   UNL     1       4.962   3.500  16.748  0.00  0.00    +0.000 S 
ATOM      6  N   UNL     1       5.277   4.790  15.644  0.00  0.00    +0.000 N 
ATOM      7  C   UNL     1       4.812   6.038  16.082  0.00  0.00    +0.000 A 
ATOM      8  O   UNL     1       4.884   7.128  15.536  0.00  0.00    +0.000 OA
ATOM      9  C   UNL     1       4.119   5.898  17.380  0.00  0.00    +0.000 A 
ATOM     10  C   UNL     1       3.459   6.907  18.071  0.00  0.00    +0.000 A 
ENDROOT
BRANCH   6  11
ATOM     11  C   UNL     1       5.963   4.557  14.421  0.00  0.00    +0.000 A 
ATOM     12  C   UNL     1       5.457   3.664  13.465  0.00  0.00    +0.000 A 
ATOM     13  C   UNL     1       6.134   3.435  12.263  0.00  0.00    +0.000 A 
ATOM     14  C   UNL     1       7.343   4.075  12.007  0.00  0.00    +0.000 A 
ATOM     15  C   UNL     1       7.865   4.961  12.942  0.00  0.00    +0.000 A 
ATOM     16  C   UNL     1       7.174   5.211  14.131  0.00  0.00    +0.000 A 
ENDBRANCH   6  11
BRANCH   1  18
ATOM     17  C   UNL     1       1.828   8.729  19.049  0.00  0.00    +0.000 C 
ATOM     18  O   UNL     1       2.179   7.631  19.884  0.00  0.00    +0.000 OA
ENDBRANCH   1  18
TORSDOF 2
ENDMDL
MODEL 7
REMARK VINA RESULT:      -6.2      4.046      4.819
REMARK  Name = 
REMARK  3 active torsions:
REMARK  status: ('A' for Active; 'I' for Inactive)
REMARK    1  A    between atoms: C_1  and  O_2
REMARK    2  A    between atoms: O_2  and  C_3
REMARK    3  A    between atoms: N_8  and  C_9
REMARK                            x       y       z     vdW  Elec       q    Type
REMARK                         _______ _______ _______ _____ _____    ______ ____
ROOT
ATOM      1  C   UNL     1       5.225   5.677  16.236  0.00  0.00    +0.000 A 
ATOM      2  C   UNL     1       5.063   4.532  17.031  0.00  0.00    +0.000 A 
ATOM      3  C   UNL     1       4.221   4.548  18.149  0.00  0.00    +0.000 A 
ATOM      4  C   UNL     1       3.544   5.713  18.454  0.00  0.00    +0.000 A 
ATOM      5  S   UNL     1       2.507   6.010  19.843  0.00  0.00    +0.000 S 
ATOM      6  N   UNL     1       2.201   7.627  19.319  0.00  0.00    +0.000 N 
ATOM      7  C   UNL     1       2.843   7.965  18.119  0.00  0.00    +0.000 A 
ATOM      8  O   UNL     1       2.821   9.017  17.497  0.00  0.00    +0.000 OA
ATOM      9  C   UNL     1       3.665   6.834  17.643  0.00  0.00    +0.000 A 
ATOM     10  C   UNL     1       4.504   6.838  16.535  0.00  0.00    +0.000 A 
ENDROOT
BRANCH   6  11
ATOM     11  C   UNL     1       1.355   8.492  20.065  0.00  0.00    +0.000 A 
ATOM     12  C   UNL     1       0.697   9.568  19.453  0.00  0.00    +0.000 A 
ATOM     13  C   UNL     1      -0.133  10.419  20.189  0.00  0.00    +0.000 A 
ATOM     14  C   UNL     1      -0.299  10.225  21.557  0.00  0.00    +0.000 A 
ATOM     15  C   UNL     1       0.347   9.167  22.186  0.00  0.00    +0.000 A 
ATOM     16  C   UNL     1       1.155   8.300  21.444  0.00  0.00    +0.000 A 
ENDBRANCH   6  11
BRANCH   1  18
ATOM     17  C   UNL     1       6.655   4.566  14.700  0.00  0.00    +0.000 C 
ATOM     18  O   UNL     1       6.057   5.775  15.154  0.00  0.00    +0.000 OA
ENDBRANCH   1  18
TORSDOF 2
ENDMDL
MODEL 8
REMARK VINA RESULT:      -6.1      2.514      6.735
REMARK  Name = 
REMARK  3 active torsions:
REMARK  status: ('A' for Active; 'I' for Inactive)
REMARK    1  A    between atoms: C_1  and  O_2
REMARK    2  A    between atoms: O_2  and  C_3
REMARK    3  A    between atoms: N_8  and  C_9
REMARK                            x       y       z     vdW  Elec       q    Type
REMARK                         _______ _______ _______ _____ _____    ______ ____
ROOT
ATOM      1  C   UNL     1       1.748   6.070  20.471  0.00  0.00    +0.000 A 
ATOM      2  C   UNL     1       1.720   4.700  20.776  0.00  0.00    +0.000 A 
ATOM      3  C   UNL     1       2.438   3.779  20.004  0.00  0.00    +0.000 A 
ATOM      4  C   UNL     1       3.181   4.244  18.936  0.00  0.00    +0.000 A 
ATOM      5  S   UNL     1       4.088   3.286  17.772  0.00  0.00    +0.000 S 
ATOM      6  N   UNL     1       4.592   4.710  16.934  0.00  0.00    +0.000 N 
ATOM      7  C   UNL     1       4.114   5.901  17.500  0.00  0.00    +0.000 A 
ATOM      8  O   UNL     1       4.296   7.055  17.146  0.00  0.00    +0.000 OA
ATOM      9  C   UNL     1       3.248   5.603  18.659  0.00  0.00    +0.000 A 
ATOM     10  C   UNL     1       2.535   6.530  19.410  0.00  0.00    +0.000 A 
ENDROOT
BRANCH   6  11
ATOM     11  C   UNL     1       5.429   4.628  15.788  0.00  0.00    +0.000 A 
ATOM     12  C   UNL     1       6.712   5.193  15.785  0.00  0.00    +0.000 A 
ATOM     13  C   UNL     1       7.534   5.113  14.656  0.00  0.00    +0.000 A 
ATOM     14  C   UNL     1       7.075   4.489  13.500  0.00  0.00    +0.000 A 
ATOM     15  C   UNL     1       5.805   3.925  13.478  0.00  0.00    +0.000 A 
ATOM     16  C   UNL     1       4.995   3.982  14.616  0.00  0.00    +0.000 A 
ENDBRANCH   6  11
BRANCH   1  18
ATOM     17  C   UNL     1       1.409   8.388  20.861  0.00  0.00    +0.000 C 
ATOM     18  O   UNL     1       1.047   7.039  21.136  0.00  0.00    +0.000 OA
ENDBRANCH   1  18
TORSDOF 2
ENDMDL
MODEL 9
REMARK VINA RESULT:      -6.1      5.010      7.619
REMARK  Name = 
REMARK  3 active torsions:
REMARK  status: ('A' for Active; 'I' for Inactive)
REMARK    1  A    between atoms: C_1  and  O_2
REMARK    2  A    between atoms: O_2  and  C_3
REMARK    3  A    between atoms: N_8  and  C_9
REMARK                            x       y       z     vdW  Elec       q    Type
REMARK                         _______ _______ _______ _____ _____    ______ ____
ROOT
ATOM      1  C   UNL     1       0.011  10.628  20.361  0.00  0.00    +0.000 A 
ATOM      2  C   UNL     1       0.014   9.872  21.544  0.00  0.00    +0.000 A 
ATOM      3  C   UNL     1       0.686   8.646  21.610  0.00  0.00    +0.000 A 
ATOM      4  C   UNL     1       1.354   8.193  20.488  0.00  0.00    +0.000 A 
ATOM      5  S   UNL     1       2.189   6.657  20.293  0.00  0.00    +0.000 S 
ATOM      6  N   UNL     1       2.626   7.056  18.671  0.00  0.00    +0.000 N 
ATOM      7  C   UNL     1       2.178   8.318  18.256  0.00  0.00    +0.000 A 
ATOM      8  O   UNL     1       2.327   8.880  17.182  0.00  0.00    +0.000 OA
ATOM      9  C   UNL     1       1.392   8.959  19.331  0.00  0.00    +0.000 A 
ATOM     10  C   UNL     1       0.723  10.175  19.245  0.00  0.00    +0.000 A 
ENDROOT
BRANCH   6  11
ATOM     11  C   UNL     1       3.386   6.156  17.874  0.00  0.00    +0.000 A 
ATOM     12  C   UNL     1       3.029   4.805  17.766  0.00  0.00    +0.000 A 
ATOM     13  C   UNL     1       3.778   3.921  16.983  0.00  0.00    +0.000 A 
ATOM     14  C   UNL     1       4.915   4.368  16.316  0.00  0.00    +0.000 A 
ATOM     15  C   UNL     1       5.290   5.703  16.412  0.00  0.00    +0.000 A 
ATOM     16  C   UNL     1       4.525   6.591  17.172  0.00  0.00    +0.000 A 
ENDBRANCH   6  11
BRANCH   1  18
ATOM     17  C   UNL     1      -1.322  11.986  18.940  0.00  0.00    +0.000 C 
ATOM     18  O   UNL     1      -0.651  11.812  20.184  0.00  0.00    +0.000 OA
ENDBRANCH   1  18
TORSDOF 2
ENDMDL
