MODEL 1
REMARK VINA RESULT:      -8.0      0.000      0.000
REMARK  Name = 
REMARK  6 active torsions:
REMARK  status: ('A' for Active; 'I' for Inactive)
REMARK    1  A    between atoms: C_2  and  C_3
REMARK    2  A    between atoms: C_3  and  N_4
REMARK    3  A    between atoms: N_4  and  C_12
REMARK    4  A    between atoms: C_5  and  C_7
REMARK    5  A    between atoms: N_19  and  C_20
REMARK    6  A    between atoms: C_20  and  C_21
REMARK                            x       y       z     vdW  Elec       q    Type
REMARK                         _______ _______ _______ _____ _____    ______ ____
ROOT
ATOM      1  N   UNL     1       4.711   5.316  18.336  0.00  0.00    +0.000 N 
ATOM      2  C   UNL     1       4.363   4.023  17.916  0.00  0.00    +0.000 C 
ATOM      3  O   UNL     1       5.170   3.295  17.342  0.00  0.00    +0.000 OA
ENDROOT
BRANCH   1   4
ATOM      4  C   UNL     1       3.720   6.313  18.518  0.00  0.00    +0.000 A 
ATOM      5  C   UNL     1       3.011   6.371  19.724  0.00  0.00    +0.000 A 
ATOM      6  C   UNL     1       2.097   7.389  19.937  0.00  0.00    +0.000 A 
ATOM      7  C   UNL     1       1.889   8.362  18.950  0.00  0.00    +0.000 A 
ATOM      8  C   UNL     1       2.593   8.307  17.747  0.00  0.00    +0.000 A 
ATOM      9  C   UNL     1       3.494   7.270  17.528  0.00  0.00    +0.000 A 
ATOM     10  F   UNL     1       4.200   7.244  16.385  0.00  0.00    +0.000 F 
ENDBRANCH   1   4
BRANCH   2  11
ATOM     11  C   UNL     1       3.015   3.508  18.234  0.00  0.00    +0.000 A 
ATOM     12  C   UNL     1       2.742   2.803  19.397  0.00  0.00    +0.000 A 
ATOM     13  S   UNL     1       1.122   2.253  19.315  0.00  0.00    +0.000 S 
ATOM     14  N   UNL     1       0.827   3.051  17.880  0.00  0.00    +0.000 NA
ATOM     15  N   UNL     1       1.886   3.702  17.435  0.00  0.00    +0.000 NA
ENDBRANCH   2  11
BRANCH   1  16
ATOM     16  C   UNL     1       6.093   5.834  18.391  0.00  0.00    +0.000 C 
BRANCH  16  18
ATOM     17  O   UNL     1       8.037   4.407  18.593  0.00  0.00    +0.000 OA
ATOM     18  C   UNL     1       7.304   5.064  17.848  0.00  0.00    +0.000 C 
ATOM     19  N   UNL     1       7.482   4.968  16.497  0.00  0.00    +0.000 N 
ATOM     20  H   UNL     1       8.234   4.353  16.222  0.00  0.00    +0.000 HD
BRANCH  19  21
ATOM     21  C   UNL     1       6.731   5.655  15.460  0.00  0.00    +0.000 C 
BRANCH  21  22
ATOM     22  C   UNL     1       6.635   4.911  14.149  0.00  0.00    +0.000 A 
ATOM     23  C   UNL     1       7.582   5.015  13.120  0.00  0.00    +0.000 A 
ATOM     24  C   UNL     1       7.466   4.245  11.959  0.00  0.00    +0.000 A 
ATOM     25  C   UNL     1       6.394   3.370  11.802  0.00  0.00    +0.000 A 
ATOM     26  C   UNL     1       5.418   3.290  12.792  0.00  0.00    +0.000 A 
ATOM     27  C   UNL     1       5.536   4.057  13.952  0.00  0.00    +0.000 A 
ENDBRANCH  21  22
ENDBRANCH  19  21
ENDBRANCH  16  18
ENDBRANCH   1  16
TORSDOF 6
ENDMDL
MODEL 2
REMARK VINA RESULT:      -8.0      3.330      4.990
REMARK  Name = 
REMARK  6 active torsions:
REMARK  status: ('A' for Active; 'I' for Inactive)
REMARK    1  A    between atoms: C_2  and  C_3
REMARK    2  A    between atoms: C_3  and  N_4
REMARK    3  A    between atoms: N_4  and  C_12
REMARK    4  A    between atoms: C_5  and  C_7
REMARK    5  A    between atoms: N_19  and  C_20
REMARK    6  A    between atoms: C_20  and  C_21
REMARK                            x       y       z     vdW  Elec       q    Type
REMARK                         _______ _______ _______ _____ _____    ______ ____
ROOT
ATOM      1  N   UNL     1       5.147   5.412  17.436  0.00  0.00    +0.000 N 
ATOM      2  C   UNL     1       4.801   4.143  16.946  0.00  0.00    +0.000 C 
ATOM      3  O   UNL     1       5.501   3.560  16.122  0.00  0.00    +0.000 OA
ENDROOT
BRANCH   1   4
ATOM      4  C   UNL     1       4.159   6.286  17.956  0.00  0.00    +0.000 A 
ATOM      5  C   UNL     1       3.598   7.265  17.128  0.00  0.00    +0.000 A 
ATOM      6  C   UNL     1       2.580   8.072  17.608  0.00  0.00    +0.000 A 
ATOM      7  C   UNL     1       2.109   7.901  18.917  0.00  0.00    +0.000 A 
ATOM      8  C   UNL     1       2.667   6.927  19.745  0.00  0.00    +0.000 A 
ATOM      9  C   UNL     1       3.704   6.134  19.266  0.00  0.00    +0.000 A 
ATOM     10  F   UNL     1       4.210   5.169  20.053  0.00  0.00    +0.000 F 
ENDBRANCH   1   4
BRANCH   2  11
ATOM     11  C   UNL     1       3.603   3.471  17.490  0.00  0.00    +0.000 A 
ATOM     12  C   UNL     1       3.674   2.527  18.505  0.00  0.00    +0.000 A 
ATOM     13  S   UNL     1       2.105   1.880  18.737  0.00  0.00    +0.000 S 
ATOM     14  N   UNL     1       1.411   2.925  17.636  0.00  0.00    +0.000 NA
ATOM     15  N   UNL     1       2.294   3.733  17.078  0.00  0.00    +0.000 NA
ENDBRANCH   2  11
BRANCH   1  16
ATOM     16  C   UNL     1       6.465   6.051  17.245  0.00  0.00    +0.000 C 
BRANCH  16  18
ATOM     17  O   UNL     1       7.817   5.294  19.103  0.00  0.00    +0.000 OA
ATOM     18  C   UNL     1       7.485   6.235  18.377  0.00  0.00    +0.000 C 
ATOM     19  N   UNL     1       8.162   7.417  18.479  0.00  0.00    +0.000 N 
ATOM     20  H   UNL     1       8.892   7.416  19.176  0.00  0.00    +0.000 HD
BRANCH  19  21
ATOM     21  C   UNL     1       7.925   8.634  17.721  0.00  0.00    +0.000 C 
BRANCH  21  22
ATOM     22  C   UNL     1       8.565   9.874  18.298  0.00  0.00    +0.000 A 
ATOM     23  C   UNL     1       9.290   9.893  19.499  0.00  0.00    +0.000 A 
ATOM     24  C   UNL     1       9.914  11.064  19.940  0.00  0.00    +0.000 A 
ATOM     25  C   UNL     1       9.810  12.237  19.196  0.00  0.00    +0.000 A 
ATOM     26  C   UNL     1       9.054  12.249  18.028  0.00  0.00    +0.000 A 
ATOM     27  C   UNL     1       8.433  11.079  17.586  0.00  0.00    +0.000 A 
ENDBRANCH  21  22
ENDBRANCH  19  21
ENDBRANCH  16  18
ENDBRANCH   1  16
TORSDOF 6
ENDMDL
MODEL 3
REMARK VINA RESULT:      -7.9      3.534      5.193
REMARK  Name = 
REMARK  6 active torsions:
REMARK  status: ('A' for Active; 'I' for Inactive)
REMARK    1  A    between atoms: C_2  and  C_3
REMARK    2  A    between atoms: C_3  and  N_4
REMARK    3  A    between atoms: N_4  and  C_12
REMARK    4  A    between atoms: C_5  and  C_7
REMARK    5  A    between atoms: N_19  and  C_20
REMARK    6  A    between atoms: C_20  and  C_21
REMARK                            x       y       z     vdW  Elec       q    Type
REMARK                         _______ _______ _______ _____ _____    ______ ____
ROOT
ATOM      1  N   UNL     1       5.417   5.707  17.637  0.00  0.00    +0.000 N 
ATOM      2  C   UNL     1       5.336   4.391  17.156  0.00  0.00    +0.000 C 
ATOM      3  O   UNL     1       6.201   3.920  16.422  0.00  0.00    +0.000 OA
ENDROOT
BRANCH   1   4
ATOM      4  C   UNL     1       4.253   6.412  18.031  0.00  0.00    +0.000 A 
ATOM      5  C   UNL     1       3.723   6.210  19.311  0.00  0.00    +0.000 A 
ATOM      6  C   UNL     1       2.631   6.951  19.729  0.00  0.00    +0.000 A 
ATOM      7  C   UNL     1       2.063   7.907  18.875  0.00  0.00    +0.000 A 
ATOM      8  C   UNL     1       2.589   8.110  17.598  0.00  0.00    +0.000 A 
ATOM      9  C   UNL     1       3.672   7.348  17.174  0.00  0.00    +0.000 A 
ATOM     10  F   UNL     1       4.201   7.576  15.960  0.00  0.00    +0.000 F 
ENDBRANCH   1   4
BRANCH   2  11
ATOM     11  C   UNL     1       4.215   3.537  17.602  0.00  0.00    +0.000 A 
ATOM     12  C   UNL     1       4.280   2.763  18.752  0.00  0.00    +0.000 A 
ATOM     13  S   UNL     1       2.857   1.813  18.830  0.00  0.00    +0.000 S 
ATOM     14  N   UNL     1       2.189   2.535  17.482  0.00  0.00    +0.000 NA
ATOM     15  N   UNL     1       2.982   3.447  16.951  0.00  0.00    +0.000 NA
ENDBRANCH   2  11
BRANCH   1  16
ATOM     16  C   UNL     1       6.626   6.553  17.556  0.00  0.00    +0.000 C 
BRANCH  16  18
ATOM     17  O   UNL     1       8.037   5.527  19.232  0.00  0.00    +0.000 OA
ATOM     18  C   UNL     1       7.727   6.556  18.624  0.00  0.00    +0.000 C 
ATOM     19  N   UNL     1       8.493   7.676  18.790  0.00  0.00    +0.000 N 
ATOM     20  H   UNL     1       9.264   7.557  19.429  0.00  0.00    +0.000 HD
BRANCH  19  21
ATOM     21  C   UNL     1       8.296   8.975  18.170  0.00  0.00    +0.000 C 
BRANCH  21  22
ATOM     22  C   UNL     1       9.123  10.091  18.763  0.00  0.00    +0.000 A 
ATOM     23  C   UNL     1       9.132  10.417  20.127  0.00  0.00    +0.000 A 
ATOM     24  C   UNL     1       9.974  11.420  20.617  0.00  0.00    +0.000 A 
ATOM     25  C   UNL     1      10.808  12.122  19.750  0.00  0.00    +0.000 A 
ATOM     26  C   UNL     1      10.774  11.846  18.386  0.00  0.00    +0.000 A 
ATOM     27  C   UNL     1       9.936  10.843  17.897  0.00  0.00    +0.000 A 
ENDBRANCH  21  22
ENDBRANCH  19  21
ENDBRANCH  16  18
ENDBRANCH   1  16
TORSDOF 6
ENDMDL
MODEL 4
REMARK VINA RESULT:      -7.7      3.388      5.017
REMARK  Name = 
REMARK  6 active torsions:
REMARK  status: ('A' for Active; 'I' for Inactive)
REMARK    1  A    between atoms: C_2  and  C_3
REMARK    2  A    between atoms: C_3  and  N_4
REMARK    3  A    between atoms: N_4  and  C_12
REMARK    4  A    between atoms: C_5  and  C_7
REMARK    5  A    between atoms: N_19  and  C_20
REMARK    6  A    between atoms: C_20  and  C_21
REMARK                            x       y       z     vdW  Elec       q    Type
REMARK                         _______ _______ _______ _____ _____    ______ ____
ROOT
ATOM      1  N   UNL     1       5.287   5.435  17.696  0.00  0.00    +0.000 N 
ATOM      2  C   UNL     1       5.120   4.103  17.284  0.00  0.00    +0.000 C 
ATOM      3  O   UNL     1       5.908   3.566  16.511  0.00  0.00    +0.000 OA
ENDROOT
BRANCH   1   4
ATOM      4  C   UNL     1       4.184   6.204  18.143  0.00  0.00    +0.000 A 
ATOM      5  C   UNL     1       3.660   5.982  19.422  0.00  0.00    +0.000 A 
ATOM      6  C   UNL     1       2.632   6.781  19.893  0.00  0.00    +0.000 A 
ATOM      7  C   UNL     1       2.123   7.813  19.092  0.00  0.00    +0.000 A 
ATOM      8  C   UNL     1       2.642   8.035  17.817  0.00  0.00    +0.000 A 
ATOM      9  C   UNL     1       3.660   7.217  17.339  0.00  0.00    +0.000 A 
ATOM     10  F   UNL     1       4.185   7.461  16.126  0.00  0.00    +0.000 F 
ENDBRANCH   1   4
BRANCH   2  11
ATOM     11  C   UNL     1       4.005   3.317  17.852  0.00  0.00    +0.000 A 
ATOM     12  C   UNL     1       2.766   3.228  17.234  0.00  0.00    +0.000 A 
ATOM     13  S   UNL     1       1.715   2.364  18.275  0.00  0.00    +0.000 S 
ATOM     14  N   UNL     1       2.925   2.042  19.379  0.00  0.00    +0.000 NA
ATOM     15  N   UNL     1       4.085   2.563  19.025  0.00  0.00    +0.000 NA
ENDBRANCH   2  11
BRANCH   1  16
ATOM     16  C   UNL     1       6.517   6.226  17.486  0.00  0.00    +0.000 C 
BRANCH  16  18
ATOM     17  O   UNL     1       7.942   5.460  19.286  0.00  0.00    +0.000 OA
ATOM     18  C   UNL     1       7.604   6.396  18.556  0.00  0.00    +0.000 C 
ATOM     19  N   UNL     1       8.327   7.555  18.593  0.00  0.00    +0.000 N 
ATOM     20  H   UNL     1       9.094   7.543  19.249  0.00  0.00    +0.000 HD
BRANCH  19  21
ATOM     21  C   UNL     1       8.093   8.763  17.819  0.00  0.00    +0.000 C 
BRANCH  21  22
ATOM     22  C   UNL     1       8.701  10.016  18.403  0.00  0.00    +0.000 A 
ATOM     23  C   UNL     1       8.724  11.254  17.744  0.00  0.00    +0.000 A 
ATOM     24  C   UNL     1       9.243  12.390  18.373  0.00  0.00    +0.000 A 
ATOM     25  C   UNL     1       9.761  12.303  19.662  0.00  0.00    +0.000 A 
ATOM     26  C   UNL     1       9.792  11.072  20.312  0.00  0.00    +0.000 A 
ATOM     27  C   UNL     1       9.270   9.939  19.686  0.00  0.00    +0.000 A 
ENDBRANCH  21  22
ENDBRANCH  19  21
ENDBRANCH  16  18
ENDBRANCH   1  16
TORSDOF 6
ENDMDL
MODEL 5
REMARK VINA RESULT:      -7.7      3.859      6.032
REMARK  Name = 
REMARK  6 active torsions:
REMARK  status: ('A' for Active; 'I' for Inactive)
REMARK    1  A    between atoms: C_2  and  C_3
REMARK    2  A    between atoms: C_3  and  N_4
REMARK    3  A    between atoms: N_4  and  C_12
REMARK    4  A    between atoms: C_5  and  C_7
REMARK    5  A    between atoms: N_19  and  C_20
REMARK    6  A    between atoms: C_20  and  C_21
REMARK                            x       y       z     vdW  Elec       q    Type
REMARK                         _______ _______ _______ _____ _____    ______ ____
ROOT
ATOM      1  N   UNL     1       5.642   5.932  17.710  0.00  0.00    +0.000 N 
ATOM      2  C   UNL     1       4.869   5.325  18.711  0.00  0.00    +0.000 C 
ATOM      3  O   UNL     1       5.055   5.565  19.902  0.00  0.00    +0.000 OA
ENDROOT
BRANCH   1   4
ATOM      4  C   UNL     1       5.799   5.323  16.440  0.00  0.00    +0.000 A 
ATOM      5  C   UNL     1       6.428   4.076  16.345  0.00  0.00    +0.000 A 
ATOM      6  C   UNL     1       6.516   3.441  15.117  0.00  0.00    +0.000 A 
ATOM      7  C   UNL     1       5.969   4.044  13.975  0.00  0.00    +0.000 A 
ATOM      8  C   UNL     1       5.343   5.287  14.067  0.00  0.00    +0.000 A 
ATOM      9  C   UNL     1       5.276   5.931  15.298  0.00  0.00    +0.000 A 
ATOM     10  F   UNL     1       4.635   7.109  15.390  0.00  0.00    +0.000 F 
ENDBRANCH   1   4
BRANCH   2  11
ATOM     11  C   UNL     1       3.762   4.429  18.313  0.00  0.00    +0.000 A 
ATOM     12  C   UNL     1       3.770   3.069  18.585  0.00  0.00    +0.000 A 
ATOM     13  S   UNL     1       2.401   2.370  17.830  0.00  0.00    +0.000 S 
ATOM     14  N   UNL     1       1.814   3.846  17.320  0.00  0.00    +0.000 NA
ATOM     15  N   UNL     1       2.598   4.851  17.667  0.00  0.00    +0.000 NA
ENDBRANCH   2  11
BRANCH   1  16
ATOM     16  C   UNL     1       6.540   7.084  17.932  0.00  0.00    +0.000 C 
BRANCH  16  18
ATOM     17  O   UNL     1       8.289   5.902  19.114  0.00  0.00    +0.000 OA
ATOM     18  C   UNL     1       7.879   6.980  18.673  0.00  0.00    +0.000 C 
ATOM     19  N   UNL     1       8.712   8.063  18.702  0.00  0.00    +0.000 N 
ATOM     20  H   UNL     1       9.616   7.878  19.109  0.00  0.00    +0.000 HD
BRANCH  19  21
ATOM     21  C   UNL     1       8.421   9.408  18.236  0.00  0.00    +0.000 C 
BRANCH  21  22
ATOM     22  C   UNL     1       9.346  10.477  18.768  0.00  0.00    +0.000 A 
ATOM     23  C   UNL     1      10.160  11.281  17.958  0.00  0.00    +0.000 A 
ATOM     24  C   UNL     1      10.943  12.297  18.513  0.00  0.00    +0.000 A 
ATOM     25  C   UNL     1      10.935  12.516  19.889  0.00  0.00    +0.000 A 
ATOM     26  C   UNL     1      10.171  11.695  20.713  0.00  0.00    +0.000 A 
ATOM     27  C   UNL     1       9.387  10.682  20.158  0.00  0.00    +0.000 A 
ENDBRANCH  21  22
ENDBRANCH  19  21
ENDBRANCH  16  18
ENDBRANCH   1  16
TORSDOF 6
ENDMDL
MODEL 6
REMARK VINA RESULT:      -7.7      0.943      1.637
REMARK  Name = 
REMARK  6 active torsions:
REMARK  status: ('A' for Active; 'I' for Inactive)
REMARK    1  A    between atoms: C_2  and  C_3
REMARK    2  A    between atoms: C_3  and  N_4
REMARK    3  A    between atoms: N_4  and  C_12
REMARK    4  A    between atoms: C_5  and  C_7
REMARK    5  A    between atoms: N_19  and  C_20
REMARK    6  A    between atoms: C_20  and  C_21
REMARK                            x       y       z     vdW  Elec       q    Type
REMARK                         _______ _______ _______ _____ _____    ______ ____
ROOT
ATOM      1  N   UNL     1       4.842   5.291  18.395  0.00  0.00    +0.000 N 
ATOM      2  C   UNL     1       4.470   4.014  17.946  0.00  0.00    +0.000 C 
ATOM      3  O   UNL     1       5.279   3.261  17.411  0.00  0.00    +0.000 OA
ENDROOT
BRANCH   1   4
ATOM      4  C   UNL     1       3.881   6.324  18.531  0.00  0.00    +0.000 A 
ATOM      5  C   UNL     1       3.684   7.228  17.481  0.00  0.00    +0.000 A 
ATOM      6  C   UNL     1       2.695   8.192  17.578  0.00  0.00    +0.000 A 
ATOM      7  C   UNL     1       1.888   8.256  18.723  0.00  0.00    +0.000 A 
ATOM      8  C   UNL     1       2.082   7.357  19.772  0.00  0.00    +0.000 A 
ATOM      9  C   UNL     1       3.092   6.404  19.680  0.00  0.00    +0.000 A 
ATOM     10  F   UNL     1       3.248   5.514  20.674  0.00  0.00    +0.000 F 
ENDBRANCH   1   4
BRANCH   2  11
ATOM     11  C   UNL     1       3.089   3.548  18.187  0.00  0.00    +0.000 A 
ATOM     12  C   UNL     1       2.758   2.712  19.244  0.00  0.00    +0.000 A 
ATOM     13  S   UNL     1       1.108   2.282  19.083  0.00  0.00    +0.000 S 
ATOM     14  N   UNL     1       0.880   3.283  17.767  0.00  0.00    +0.000 NA
ATOM     15  N   UNL     1       1.983   3.919  17.418  0.00  0.00    +0.000 NA
ENDBRANCH   2  11
BRANCH   1  16
ATOM     16  C   UNL     1       6.237   5.756  18.528  0.00  0.00    +0.000 C 
BRANCH  16  18
ATOM     17  O   UNL     1       8.237   4.398  18.616  0.00  0.00    +0.000 OA
ATOM     18  C   UNL     1       7.435   5.020  17.914  0.00  0.00    +0.000 C 
ATOM     19  N   UNL     1       7.524   4.909  16.555  0.00  0.00    +0.000 N 
ATOM     20  H   UNL     1       8.276   4.315  16.237  0.00  0.00    +0.000 HD
BRANCH  19  21
ATOM     21  C   UNL     1       6.681   5.555  15.563  0.00  0.00    +0.000 C 
BRANCH  21  22
ATOM     22  C   UNL     1       6.571   4.817  14.249  0.00  0.00    +0.000 A 
ATOM     23  C   UNL     1       5.507   3.966  13.917  0.00  0.00    +0.000 A 
ATOM     24  C   UNL     1       5.435   3.369  12.655  0.00  0.00    +0.000 A 
ATOM     25  C   UNL     1       6.433   3.600  11.712  0.00  0.00    +0.000 A 
ATOM     26  C   UNL     1       7.522   4.402  12.042  0.00  0.00    +0.000 A 
ATOM     27  C   UNL     1       7.592   5.001  13.301  0.00  0.00    +0.000 A 
ENDBRANCH  21  22
ENDBRANCH  19  21
ENDBRANCH  16  18
ENDBRANCH   1  16
TORSDOF 6
ENDMDL
MODEL 7
REMARK VINA RESULT:      -7.6      4.003      6.229
REMARK  Name = 
REMARK  6 active torsions:
REMARK  status: ('A' for Active; 'I' for Inactive)
REMARK    1  A    between atoms: C_2  and  C_3
REMARK    2  A    between atoms: C_3  and  N_4
REMARK    3  A    between atoms: N_4  and  C_12
REMARK    4  A    between atoms: C_5  and  C_7
REMARK    5  A    between atoms: N_19  and  C_20
REMARK    6  A    between atoms: C_20  and  C_21
REMARK                            x       y       z     vdW  Elec       q    Type
REMARK                         _______ _______ _______ _____ _____    ______ ____
ROOT
ATOM      1  N   UNL     1       5.725   5.952  17.641  0.00  0.00    +0.000 N 
ATOM      2  C   UNL     1       4.954   5.351  18.647  0.00  0.00    +0.000 C 
ATOM      3  O   UNL     1       5.146   5.595  19.836  0.00  0.00    +0.000 OA
ENDROOT
BRANCH   1   4
ATOM      4  C   UNL     1       5.875   5.338  16.372  0.00  0.00    +0.000 A 
ATOM      5  C   UNL     1       5.061   5.744  15.308  0.00  0.00    +0.000 A 
ATOM      6  C   UNL     1       5.254   5.202  14.048  0.00  0.00    +0.000 A 
ATOM      7  C   UNL     1       6.266   4.255  13.840  0.00  0.00    +0.000 A 
ATOM      8  C   UNL     1       7.078   3.847  14.899  0.00  0.00    +0.000 A 
ATOM      9  C   UNL     1       6.867   4.378  16.167  0.00  0.00    +0.000 A 
ATOM     10  F   UNL     1       7.677   4.014  17.175  0.00  0.00    +0.000 F 
ENDBRANCH   1   4
BRANCH   2  11
ATOM     11  C   UNL     1       3.845   4.456  18.257  0.00  0.00    +0.000 A 
ATOM     12  C   UNL     1       3.926   3.076  18.370  0.00  0.00    +0.000 A 
ATOM     13  S   UNL     1       2.512   2.403  17.674  0.00  0.00    +0.000 S 
ATOM     14  N   UNL     1       1.827   3.899  17.395  0.00  0.00    +0.000 NA
ATOM     15  N   UNL     1       2.608   4.893  17.777  0.00  0.00    +0.000 NA
ENDBRANCH   2  11
BRANCH   1  16
ATOM     16  C   UNL     1       6.626   7.103  17.854  0.00  0.00    +0.000 C 
BRANCH  16  18
ATOM     17  O   UNL     1       8.300   5.960  19.175  0.00  0.00    +0.000 OA
ATOM     18  C   UNL     1       7.911   7.026  18.689  0.00  0.00    +0.000 C 
ATOM     19  N   UNL     1       8.727   8.120  18.760  0.00  0.00    +0.000 N 
ATOM     20  H   UNL     1       9.603   7.951  19.232  0.00  0.00    +0.000 HD
BRANCH  19  21
ATOM     21  C   UNL     1       8.455   9.454  18.254  0.00  0.00    +0.000 C 
BRANCH  21  22
ATOM     22  C   UNL     1       9.345  10.538  18.815  0.00  0.00    +0.000 A 
ATOM     23  C   UNL     1       9.441  10.841  20.181  0.00  0.00    +0.000 A 
ATOM     24  C   UNL     1      10.337  11.812  20.638  0.00  0.00    +0.000 A 
ATOM     25  C   UNL     1      11.139  12.506  19.735  0.00  0.00    +0.000 A 
ATOM     26  C   UNL     1      11.021  12.253  18.371  0.00  0.00    +0.000 A 
ATOM     27  C   UNL     1      10.129  11.281  17.916  0.00  0.00    +0.000 A 
ENDBRANCH  21  22
ENDBRANCH  19  21
ENDBRANCH  16  18
ENDBRANCH   1  16
TORSDOF 6
ENDMDL
MODEL 8
REMARK VINA RESULT:      -7.6      3.744      7.561
REMARK  Name = 
REMARK  6 active torsions:
REMARK  status: ('A' for Active; 'I' for Inactive)
REMARK    1  A    between atoms: C_2  and  C_3
REMARK    2  A    between atoms: C_3  and  N_4
REMARK    3  A    between atoms: N_4  and  C_12
REMARK    4  A    between atoms: C_5  and  C_7
REMARK    5  A    between atoms: N_19  and  C_20
REMARK    6  A    between atoms: C_20  and  C_21
REMARK                            x       y       z     vdW  Elec       q    Type
REMARK                         _______ _______ _______ _____ _____    ______ ____
ROOT
ATOM      1  N   UNL     1       2.205   6.370  19.441  0.00  0.00    +0.000 N 
ATOM      2  C   UNL     1       3.229   6.778  18.573  0.00  0.00    +0.000 C 
ATOM      3  O   UNL     1       3.161   7.834  17.950  0.00  0.00    +0.000 OA
ENDROOT
BRANCH   1   4
ATOM      4  C   UNL     1       2.017   5.001  19.755  0.00  0.00    +0.000 A 
ATOM      5  C   UNL     1       2.251   4.553  21.061  0.00  0.00    +0.000 A 
ATOM      6  C   UNL     1       1.997   3.232  21.391  0.00  0.00    +0.000 A 
ATOM      7  C   UNL     1       1.499   2.350  20.422  0.00  0.00    +0.000 A 
ATOM      8  C   UNL     1       1.266   2.793  19.120  0.00  0.00    +0.000 A 
ATOM      9  C   UNL     1       1.543   4.115  18.786  0.00  0.00    +0.000 A 
ATOM     10  F   UNL     1       1.278   4.548  17.542  0.00  0.00    +0.000 F 
ENDBRANCH   1   4
BRANCH   2  11
ATOM     11  C   UNL     1       4.445   5.944  18.464  0.00  0.00    +0.000 A 
ATOM     12  C   UNL     1       4.898   5.443  17.253  0.00  0.00    +0.000 A 
ATOM     13  S   UNL     1       6.227   4.410  17.571  0.00  0.00    +0.000 S 
ATOM     14  N   UNL     1       6.231   4.765  19.202  0.00  0.00    +0.000 NA
ATOM     15  N   UNL     1       5.273   5.608  19.539  0.00  0.00    +0.000 NA
ENDBRANCH   2  11
BRANCH   1  16
ATOM     16  C   UNL     1       1.106   7.242  19.905  0.00  0.00    +0.000 C 
BRANCH  16  18
ATOM     17  O   UNL     1       1.810   8.807  21.610  0.00  0.00    +0.000 OA
ATOM     18  C   UNL     1       1.329   8.645  20.485  0.00  0.00    +0.000 C 
ATOM     19  N   UNL     1       1.149   9.735  19.682  0.00  0.00    +0.000 N 
ATOM     20  H   UNL     1       1.425  10.609  20.104  0.00  0.00    +0.000 HD
BRANCH  19  21
ATOM     21  C   UNL     1       0.602   9.755  18.336  0.00  0.00    +0.000 C 
BRANCH  21  22
ATOM     22  C   UNL     1      -0.792  10.328  18.228  0.00  0.00    +0.000 A 
ATOM     23  C   UNL     1      -1.741   9.903  17.287  0.00  0.00    +0.000 A 
ATOM     24  C   UNL     1      -3.036  10.430  17.288  0.00  0.00    +0.000 A 
ATOM     25  C   UNL     1      -3.397  11.401  18.219  0.00  0.00    +0.000 A 
ATOM     26  C   UNL     1      -2.453  11.870  19.128  0.00  0.00    +0.000 A 
ATOM     27  C   UNL     1      -1.161  11.342  19.129  0.00  0.00    +0.000 A 
ENDBRANCH  21  22
ENDBRANCH  19  21
ENDBRANCH  16  18
ENDBRANCH   1  16
TORSDOF 6
ENDMDL
MODEL 9
REMARK VINA RESULT:      -7.6      3.398      7.961
REMARK  Name = 
REMARK  6 active torsions:
REMARK  status: ('A' for Active; 'I' for Inactive)
REMARK    1  A    between atoms: C_2  and  C_3
REMARK    2  A    between atoms: C_3  and  N_4
REMARK    3  A    between atoms: N_4  and  C_12
REMARK    4  A    between atoms: C_5  and  C_7
REMARK    5  A    between atoms: N_19  and  C_20
REMARK    6  A    between atoms: C_20  and  C_21
REMARK                            x       y       z     vdW  Elec       q    Type
REMARK                         _______ _______ _______ _____ _____    ______ ____
ROOT
ATOM      1  N   UNL     1       3.146   5.720  18.276  0.00  0.00    +0.000 N 
ATOM      2  C   UNL     1       3.977   6.453  17.415  0.00  0.00    +0.000 C 
ATOM      3  O   UNL     1       3.659   7.569  17.012  0.00  0.00    +0.000 OA
ENDROOT
BRANCH   1   4
ATOM      4  C   UNL     1       3.228   4.306  18.339  0.00  0.00    +0.000 A 
ATOM      5  C   UNL     1       2.438   3.529  17.483  0.00  0.00    +0.000 A 
ATOM      6  C   UNL     1       2.569   2.151  17.487  0.00  0.00    +0.000 A 
ATOM      7  C   UNL     1       3.497   1.537  18.341  0.00  0.00    +0.000 A 
ATOM      8  C   UNL     1       4.285   2.309  19.195  0.00  0.00    +0.000 A 
ATOM      9  C   UNL     1       4.134   3.691  19.204  0.00  0.00    +0.000 A 
ATOM     10  F   UNL     1       4.925   4.433  19.998  0.00  0.00    +0.000 F 
ENDBRANCH   1   4
BRANCH   2  11
ATOM     11  C   UNL     1       5.293   5.892  17.045  0.00  0.00    +0.000 A 
ATOM     12  C   UNL     1       5.491   5.163  15.881  0.00  0.00    +0.000 A 
ATOM     13  S   UNL     1       7.095   4.564  15.898  0.00  0.00    +0.000 S 
ATOM     14  N   UNL     1       7.480   5.371  17.307  0.00  0.00    +0.000 NA
ATOM     15  N   UNL     1       6.463   6.061  17.790  0.00  0.00    +0.000 NA
ENDBRANCH   2  11
BRANCH   1  16
ATOM     16  C   UNL     1       1.980   6.280  18.990  0.00  0.00    +0.000 C 
BRANCH  16  18
ATOM     17  O   UNL     1       2.099   5.351  21.221  0.00  0.00    +0.000 OA
ATOM     18  C   UNL     1       1.878   6.343  20.519  0.00  0.00    +0.000 C 
ATOM     19  N   UNL     1       1.702   7.554  21.127  0.00  0.00    +0.000 N 
ATOM     20  H   UNL     1       1.759   7.523  22.134  0.00  0.00    +0.000 HD
BRANCH  19  21
ATOM     21  C   UNL     1       1.434   8.829  20.484  0.00  0.00    +0.000 C 
BRANCH  21  22
ATOM     22  C   UNL     1       0.614   9.793  21.308  0.00  0.00    +0.000 A 
ATOM     23  C   UNL     1       0.454  11.151  20.994  0.00  0.00    +0.000 A 
ATOM     24  C   UNL     1      -0.376  11.971  21.765  0.00  0.00    +0.000 A 
ATOM     25  C   UNL     1      -1.045  11.451  22.870  0.00  0.00    +0.000 A 
ATOM     26  C   UNL     1      -0.858  10.118  23.226  0.00  0.00    +0.000 A 
ATOM     27  C   UNL     1      -0.033   9.299  22.454  0.00  0.00    +0.000 A 
ENDBRANCH  21  22
ENDBRANCH  19  21
ENDBRANCH  16  18
ENDBRANCH   1  16
TORSDOF 6
ENDMDL
