MODEL 1
REMARK VINA RESULT:      -7.0      0.000      0.000
REMARK  Name = 
REMARK  6 active torsions:
REMARK  status: ('A' for Active; 'I' for Inactive)
REMARK    1  A    between atoms: O_1  and  C_2
REMARK    2  A    between atoms: C_2  and  C_3
REMARK    3  A    between atoms: C_5  and  N_6
REMARK    4  A    between atoms: C_10  and  O_11
REMARK    5  A    between atoms: C_16  and  C_17
REMARK    6  A    between atoms: C_17  and  O_18
REMARK                            x       y       z     vdW  Elec       q    Type
REMARK                         _______ _______ _______ _____ _____    ______ ____
ROOT
ATOM      1  N   UNL     1       4.338   4.660  18.341  0.00  0.00    +0.000 N 
ATOM      2  C   UNL     1       4.377   3.655  17.395  0.00  0.00    +0.000 A 
ATOM      3  N   UNL     1       3.395   2.794  17.545  0.00  0.00    +0.000 NA
ATOM      4  C   UNL     1       2.685   3.270  18.625  0.00  0.00    +0.000 A 
ATOM      5  C   UNL     1       1.563   2.784  19.298  0.00  0.00    +0.000 A 
ATOM      6  N   UNL     1       1.054   3.450  20.350  0.00  0.00    +0.000 NA
ATOM      7  C   UNL     1       1.655   4.605  20.694  0.00  0.00    +0.000 A 
ATOM      8  N   UNL     1       2.727   5.190  20.118  0.00  0.00    +0.000 NA
ATOM      9  C   UNL     1       3.218   4.455  19.107  0.00  0.00    +0.000 A 
ENDROOT
BRANCH   1  12
ATOM     10  C   UNL     1       7.002   5.772  16.796  0.00  0.00    +0.000 C 
ATOM     11  S   UNL     1       5.417   6.676  16.924  0.00  0.00    +0.000 S 
ATOM     12  C   UNL     1       5.379   5.653  18.456  0.00  0.00    +0.000 C 
ATOM     13  C   UNL     1       6.865   5.243  18.262  0.00  0.00    +0.000 C 
BRANCH  10  14
ATOM     14  C   UNL     1       7.020   4.830  15.595  0.00  0.00    +0.000 C 
BRANCH  14  15
ATOM     15  O   UNL     1       7.741   5.436  14.524  0.00  0.00    +0.000 OA
ATOM     16  H   UNL     1       8.007   6.320  14.829  0.00  0.00    +0.000 HD
ENDBRANCH  14  15
ENDBRANCH  10  14
BRANCH  13  17
ATOM     17  C   UNL     1       7.782   5.992  19.243  0.00  0.00    +0.000 C 
BRANCH  17  18
ATOM     18  O   UNL     1       7.924   5.250  20.445  0.00  0.00    +0.000 OA
ATOM     19  H   UNL     1       8.703   5.590  20.921  0.00  0.00    +0.000 HD
ENDBRANCH  17  18
ENDBRANCH  13  17
ENDBRANCH   1  12
BRANCH   5  20
ATOM     20  O   UNL     1       0.941   1.615  18.941  0.00  0.00    +0.000 OA
ATOM     21  H   UNL     1       1.538   1.209  18.287  0.00  0.00    +0.000 HD
ENDBRANCH   5  20
TORSDOF 6
ENDMDL
MODEL 2
REMARK VINA RESULT:      -6.8      2.657      5.985
REMARK  Name = 
REMARK  6 active torsions:
REMARK  status: ('A' for Active; 'I' for Inactive)
REMARK    1  A    between atoms: O_1  and  C_2
REMARK    2  A    between atoms: C_2  and  C_3
REMARK    3  A    between atoms: C_5  and  N_6
REMARK    4  A    between atoms: C_10  and  O_11
REMARK    5  A    between atoms: C_16  and  C_17
REMARK    6  A    between atoms: C_17  and  O_18
REMARK                            x       y       z     vdW  Elec       q    Type
REMARK                         _______ _______ _______ _____ _____    ______ ____
ROOT
ATOM      1  N   UNL     1       3.866   4.877  17.496  0.00  0.00    +0.000 N 
ATOM      2  C   UNL     1       3.406   6.106  17.925  0.00  0.00    +0.000 A 
ATOM      3  N   UNL     1       4.315   7.048  17.797  0.00  0.00    +0.000 NA
ATOM      4  C   UNL     1       5.401   6.403  17.250  0.00  0.00    +0.000 A 
ATOM      5  C   UNL     1       6.682   6.843  16.914  0.00  0.00    +0.000 A 
ATOM      6  N   UNL     1       7.581   5.993  16.385  0.00  0.00    +0.000 NA
ATOM      7  C   UNL     1       7.178   4.727  16.174  0.00  0.00    +0.000 A 
ATOM      8  N   UNL     1       5.970   4.182  16.435  0.00  0.00    +0.000 NA
ATOM      9  C   UNL     1       5.134   5.065  17.005  0.00  0.00    +0.000 A 
ENDROOT
BRANCH   1  12
ATOM     10  C   UNL     1       2.201   3.166  19.736  0.00  0.00    +0.000 C 
ATOM     11  S   UNL     1       1.441   4.083  18.349  0.00  0.00    +0.000 S 
ATOM     12  C   UNL     1       3.095   3.668  17.650  0.00  0.00    +0.000 C 
ATOM     13  C   UNL     1       3.392   2.705  18.833  0.00  0.00    +0.000 C 
BRANCH  10  14
ATOM     14  C   UNL     1       2.412   4.058  20.957  0.00  0.00    +0.000 C 
BRANCH  14  15
ATOM     15  O   UNL     1       2.146   3.314  22.143  0.00  0.00    +0.000 OA
ATOM     16  H   UNL     1       1.217   3.477  22.376  0.00  0.00    +0.000 HD
ENDBRANCH  14  15
ENDBRANCH  10  14
BRANCH  13  17
ATOM     17  C   UNL     1       3.263   1.235  18.400  0.00  0.00    +0.000 C 
BRANCH  17  18
ATOM     18  O   UNL     1       4.469   0.536  18.669  0.00  0.00    +0.000 OA
ATOM     19  H   UNL     1       4.364  -0.382  18.360  0.00  0.00    +0.000 HD
ENDBRANCH  17  18
ENDBRANCH  13  17
ENDBRANCH   1  12
BRANCH   5  20
ATOM     20  O   UNL     1       7.092   8.136  17.115  0.00  0.00    +0.000 OA
ATOM     21  H   UNL     1       6.296   8.674  16.949  0.00  0.00    +0.000 HD
ENDBRANCH   5  20
TORSDOF 6
ENDMDL
MODEL 3
REMARK VINA RESULT:      -6.8      1.298      1.382
REMARK  Name = 
REMARK  6 active torsions:
REMARK  status: ('A' for Active; 'I' for Inactive)
REMARK    1  A    between atoms: O_1  and  C_2
REMARK    2  A    between atoms: C_2  and  C_3
REMARK    3  A    between atoms: C_5  and  N_6
REMARK    4  A    between atoms: C_10  and  O_11
REMARK    5  A    between atoms: C_16  and  C_17
REMARK    6  A    between atoms: C_17  and  O_18
REMARK                            x       y       z     vdW  Elec       q    Type
REMARK                         _______ _______ _______ _____ _____    ______ ____
ROOT
ATOM      1  N   UNL     1       3.804   4.597  17.858  0.00  0.00    +0.000 N 
ATOM      2  C   UNL     1       3.367   3.656  16.948  0.00  0.00    +0.000 A 
ATOM      3  N   UNL     1       2.271   3.049  17.349  0.00  0.00    +0.000 NA
ATOM      4  C   UNL     1       1.982   3.632  18.562  0.00  0.00    +0.000 A 
ATOM      5  C   UNL     1       0.975   3.399  19.499  0.00  0.00    +0.000 A 
ATOM      6  N   UNL     1       0.914   4.119  20.633  0.00  0.00    +0.000 NA
ATOM      7  C   UNL     1       1.842   5.079  20.801  0.00  0.00    +0.000 A 
ATOM      8  N   UNL     1       2.852   5.416  19.969  0.00  0.00    +0.000 NA
ATOM      9  C   UNL     1       2.888   4.631  18.880  0.00  0.00    +0.000 A 
ENDROOT
BRANCH   1  12
ATOM     10  C   UNL     1       6.134   5.216  15.643  0.00  0.00    +0.000 C 
ATOM     11  S   UNL     1       4.925   6.443  16.255  0.00  0.00    +0.000 S 
ATOM     12  C   UNL     1       5.051   5.305  17.698  0.00  0.00    +0.000 C 
ATOM     13  C   UNL     1       6.275   4.585  17.068  0.00  0.00    +0.000 C 
BRANCH  10  14
ATOM     14  C   UNL     1       5.587   4.423  14.459  0.00  0.00    +0.000 C 
BRANCH  14  15
ATOM     15  O   UNL     1       6.616   3.594  13.924  0.00  0.00    +0.000 OA
ATOM     16  H   UNL     1       6.307   2.675  14.003  0.00  0.00    +0.000 HD
ENDBRANCH  14  15
ENDBRANCH  10  14
BRANCH  13  17
ATOM     17  C   UNL     1       7.583   4.997  17.764  0.00  0.00    +0.000 C 
BRANCH  17  18
ATOM     18  O   UNL     1       8.495   3.909  17.780  0.00  0.00    +0.000 OA
ATOM     19  H   UNL     1       8.250   3.318  18.515  0.00  0.00    +0.000 HD
ENDBRANCH  17  18
ENDBRANCH  13  17
ENDBRANCH   1  12
BRANCH   5  20
ATOM     20  O   UNL     1       0.019   2.430  19.325  0.00  0.00    +0.000 OA
ATOM     21  H   UNL     1      -0.623   2.827  18.708  0.00  0.00    +0.000 HD
ENDBRANCH   5  20
TORSDOF 6
ENDMDL
MODEL 4
REMARK VINA RESULT:      -6.8      2.758      5.692
REMARK  Name = 
REMARK  6 active torsions:
REMARK  status: ('A' for Active; 'I' for Inactive)
REMARK    1  A    between atoms: O_1  and  C_2
REMARK    2  A    between atoms: C_2  and  C_3
REMARK    3  A    between atoms: C_5  and  N_6
REMARK    4  A    between atoms: C_10  and  O_11
REMARK    5  A    between atoms: C_16  and  C_17
REMARK    6  A    between atoms: C_17  and  O_18
REMARK                            x       y       z     vdW  Elec       q    Type
REMARK                         _______ _______ _______ _____ _____    ______ ____
ROOT
ATOM      1  N   UNL     1       5.164   4.782  17.346  0.00  0.00    +0.000 N 
ATOM      2  C   UNL     1       4.859   5.569  16.254  0.00  0.00    +0.000 A 
ATOM      3  N   UNL     1       5.651   6.615  16.159  0.00  0.00    +0.000 NA
ATOM      4  C   UNL     1       6.511   6.490  17.227  0.00  0.00    +0.000 A 
ATOM      5  C   UNL     1       7.549   7.296  17.694  0.00  0.00    +0.000 A 
ATOM      6  N   UNL     1       8.250   6.945  18.787  0.00  0.00    +0.000 NA
ATOM      7  C   UNL     1       7.923   5.780  19.378  0.00  0.00    +0.000 A 
ATOM      8  N   UNL     1       6.959   4.906  19.018  0.00  0.00    +0.000 NA
ATOM      9  C   UNL     1       6.265   5.335  17.952  0.00  0.00    +0.000 A 
ENDROOT
BRANCH   1  12
ATOM     10  C   UNL     1       2.677   3.947  19.305  0.00  0.00    +0.000 C 
ATOM     11  S   UNL     1       2.578   4.053  17.482  0.00  0.00    +0.000 S 
ATOM     12  C   UNL     1       4.358   3.648  17.728  0.00  0.00    +0.000 C 
ATOM     13  C   UNL     1       4.117   3.341  19.232  0.00  0.00    +0.000 C 
BRANCH  10  14
ATOM     14  C   UNL     1       2.401   5.295  19.966  0.00  0.00    +0.000 C 
BRANCH  14  15
ATOM     15  O   UNL     1       2.319   5.124  21.380  0.00  0.00    +0.000 OA
ATOM     16  H   UNL     1       1.374   5.102  21.606  0.00  0.00    +0.000 HD
ENDBRANCH  14  15
ENDBRANCH  10  14
BRANCH  13  17
ATOM     17  C   UNL     1       4.129   1.826  19.500  0.00  0.00    +0.000 C 
BRANCH  17  18
ATOM     18  O   UNL     1       5.269   1.472  20.269  0.00  0.00    +0.000 OA
ATOM     19  H   UNL     1       6.037   1.432  19.672  0.00  0.00    +0.000 HD
ENDBRANCH  17  18
ENDBRANCH  13  17
ENDBRANCH   1  12
BRANCH   5  20
ATOM     20  O   UNL     1       7.895   8.476  17.087  0.00  0.00    +0.000 OA
ATOM     21  H   UNL     1       7.334   8.516  16.291  0.00  0.00    +0.000 HD
ENDBRANCH   5  20
TORSDOF 6
ENDMDL
MODEL 5
REMARK VINA RESULT:      -6.7      1.350      1.638
REMARK  Name = 
REMARK  6 active torsions:
REMARK  status: ('A' for Active; 'I' for Inactive)
REMARK    1  A    between atoms: O_1  and  C_2
REMARK    2  A    between atoms: C_2  and  C_3
REMARK    3  A    between atoms: C_5  and  N_6
REMARK    4  A    between atoms: C_10  and  O_11
REMARK    5  A    between atoms: C_16  and  C_17
REMARK    6  A    between atoms: C_17  and  O_18
REMARK                            x       y       z     vdW  Elec       q    Type
REMARK                         _______ _______ _______ _____ _____    ______ ____
ROOT
ATOM      1  N   UNL     1       4.327   5.252  18.443  0.00  0.00    +0.000 N 
ATOM      2  C   UNL     1       3.179   5.706  17.826  0.00  0.00    +0.000 A 
ATOM      3  N   UNL     1       2.240   4.786  17.786  0.00  0.00    +0.000 NA
ATOM      4  C   UNL     1       2.801   3.698  18.416  0.00  0.00    +0.000 A 
ATOM      5  C   UNL     1       2.328   2.408  18.658  0.00  0.00    +0.000 A 
ATOM      6  N   UNL     1       3.091   1.509  19.306  0.00  0.00    +0.000 NA
ATOM      7  C   UNL     1       4.302   1.922  19.727  0.00  0.00    +0.000 A 
ATOM      8  N   UNL     1       4.866   3.139  19.574  0.00  0.00    +0.000 NA
ATOM      9  C   UNL     1       4.077   3.975  18.879  0.00  0.00    +0.000 A 
ENDROOT
BRANCH   1  12
ATOM     10  C   UNL     1       7.118   5.783  16.815  0.00  0.00    +0.000 C 
ATOM     11  S   UNL     1       5.731   6.970  16.921  0.00  0.00    +0.000 S 
ATOM     12  C   UNL     1       5.536   6.038  18.498  0.00  0.00    +0.000 C 
ATOM     13  C   UNL     1       6.916   5.352  18.305  0.00  0.00    +0.000 C 
BRANCH  10  14
ATOM     14  C   UNL     1       6.937   4.803  15.659  0.00  0.00    +0.000 C 
BRANCH  14  15
ATOM     15  O   UNL     1       7.667   5.263  14.524  0.00  0.00    +0.000 OA
ATOM     16  H   UNL     1       7.401   6.186  14.374  0.00  0.00    +0.000 HD
ENDBRANCH  14  15
ENDBRANCH  10  14
BRANCH  13  17
ATOM     17  C   UNL     1       7.976   5.960  19.239  0.00  0.00    +0.000 C 
BRANCH  17  18
ATOM     18  O   UNL     1       8.000   5.261  20.475  0.00  0.00    +0.000 OA
ATOM     19  H   UNL     1       7.205   5.509  20.980  0.00  0.00    +0.000 HD
ENDBRANCH  17  18
ENDBRANCH  13  17
ENDBRANCH   1  12
BRANCH   5  20
ATOM     20  O   UNL     1       1.090   1.988  18.243  0.00  0.00    +0.000 OA
ATOM     21  H   UNL     1       0.464   2.471  18.812  0.00  0.00    +0.000 HD
ENDBRANCH   5  20
TORSDOF 6
ENDMDL
MODEL 6
REMARK VINA RESULT:      -6.5      1.282      1.365
REMARK  Name = 
REMARK  6 active torsions:
REMARK  status: ('A' for Active; 'I' for Inactive)
REMARK    1  A    between atoms: O_1  and  C_2
REMARK    2  A    between atoms: C_2  and  C_3
REMARK    3  A    between atoms: C_5  and  N_6
REMARK    4  A    between atoms: C_10  and  O_11
REMARK    5  A    between atoms: C_16  and  C_17
REMARK    6  A    between atoms: C_17  and  O_18
REMARK                            x       y       z     vdW  Elec       q    Type
REMARK                         _______ _______ _______ _____ _____    ______ ____
ROOT
ATOM      1  N   UNL     1       4.685   4.222  18.871  0.00  0.00    +0.000 N 
ATOM      2  C   UNL     1       5.029   3.005  19.425  0.00  0.00    +0.000 A 
ATOM      3  N   UNL     1       4.023   2.157  19.422  0.00  0.00    +0.000 NA
ATOM      4  C   UNL     1       2.993   2.851  18.830  0.00  0.00    +0.000 A 
ATOM      5  C   UNL     1       1.663   2.516  18.572  0.00  0.00    +0.000 A 
ATOM      6  N   UNL     1       0.840   3.395  17.971  0.00  0.00    +0.000 NA
ATOM      7  C   UNL     1       1.365   4.581  17.611  0.00  0.00    +0.000 A 
ATOM      8  N   UNL     1       2.631   5.018  17.785  0.00  0.00    +0.000 NA
ATOM      9  C   UNL     1       3.389   4.118  18.432  0.00  0.00    +0.000 A 
ENDROOT
BRANCH   1  12
ATOM     10  C   UNL     1       7.001   5.660  17.058  0.00  0.00    +0.000 C 
ATOM     11  S   UNL     1       5.326   6.338  17.339  0.00  0.00    +0.000 S 
ATOM     12  C   UNL     1       5.583   5.351  18.874  0.00  0.00    +0.000 C 
ATOM     13  C   UNL     1       7.085   5.147  18.534  0.00  0.00    +0.000 C 
BRANCH  10  14
ATOM     14  C   UNL     1       7.033   4.704  15.869  0.00  0.00    +0.000 C 
BRANCH  14  15
ATOM     15  O   UNL     1       7.656   5.345  14.758  0.00  0.00    +0.000 OA
ATOM     16  H   UNL     1       8.597   5.444  14.982  0.00  0.00    +0.000 HD
ENDBRANCH  14  15
ENDBRANCH  10  14
BRANCH  13  17
ATOM     17  C   UNL     1       7.980   6.037  19.413  0.00  0.00    +0.000 C 
BRANCH  17  18
ATOM     18  O   UNL     1       8.280   5.377  20.634  0.00  0.00    +0.000 OA
ATOM     19  H   UNL     1       8.138   4.423  20.507  0.00  0.00    +0.000 HD
ENDBRANCH  17  18
ENDBRANCH  13  17
ENDBRANCH   1  12
BRANCH   5  20
ATOM     20  O   UNL     1       1.128   1.304  18.925  0.00  0.00    +0.000 OA
ATOM     21  H   UNL     1       0.207   1.504  19.171  0.00  0.00    +0.000 HD
ENDBRANCH   5  20
TORSDOF 6
ENDMDL
MODEL 7
REMARK VINA RESULT:      -6.5      2.034      3.015
REMARK  Name = 
REMARK  6 active torsions:
REMARK  status: ('A' for Active; 'I' for Inactive)
REMARK    1  A    between atoms: O_1  and  C_2
REMARK    2  A    between atoms: C_2  and  C_3
REMARK    3  A    between atoms: C_5  and  N_6
REMARK    4  A    between atoms: C_10  and  O_11
REMARK    5  A    between atoms: C_16  and  C_17
REMARK    6  A    between atoms: C_17  and  O_18
REMARK                            x       y       z     vdW  Elec       q    Type
REMARK                         _______ _______ _______ _____ _____    ______ ____
ROOT
ATOM      1  N   UNL     1       4.472   4.318  17.899  0.00  0.00    +0.000 N 
ATOM      2  C   UNL     1       3.471   5.193  17.528  0.00  0.00    +0.000 A 
ATOM      3  N   UNL     1       2.414   5.096  18.304  0.00  0.00    +0.000 NA
ATOM      4  C   UNL     1       2.752   4.129  19.223  0.00  0.00    +0.000 A 
ATOM      5  C   UNL     1       2.047   3.550  20.279  0.00  0.00    +0.000 A 
ATOM      6  N   UNL     1       2.615   2.599  21.042  0.00  0.00    +0.000 NA
ATOM      7  C   UNL     1       3.887   2.263  20.758  0.00  0.00    +0.000 A 
ATOM      8  N   UNL     1       4.681   2.756  19.783  0.00  0.00    +0.000 NA
ATOM      9  C   UNL     1       4.043   3.664  19.027  0.00  0.00    +0.000 A 
ENDROOT
BRANCH   1  12
ATOM     10  C   UNL     1       7.031   6.006  16.750  0.00  0.00    +0.000 C 
ATOM     11  S   UNL     1       7.116   4.773  18.098  0.00  0.00    +0.000 S 
ATOM     12  C   UNL     1       5.679   4.153  17.126  0.00  0.00    +0.000 C 
ATOM     13  C   UNL     1       5.995   5.136  15.965  0.00  0.00    +0.000 C 
BRANCH  10  14
ATOM     14  C   UNL     1       6.685   7.396  17.276  0.00  0.00    +0.000 C 
BRANCH  14  15
ATOM     15  O   UNL     1       7.837   8.234  17.204  0.00  0.00    +0.000 OA
ATOM     16  H   UNL     1       8.551   7.697  16.822  0.00  0.00    +0.000 HD
ENDBRANCH  14  15
ENDBRANCH  10  14
BRANCH  13  17
ATOM     17  C   UNL     1       6.630   4.403  14.772  0.00  0.00    +0.000 C 
BRANCH  17  18
ATOM     18  O   UNL     1       5.641   4.095  13.801  0.00  0.00    +0.000 OA
ATOM     19  H   UNL     1       5.571   4.849  13.189  0.00  0.00    +0.000 HD
ENDBRANCH  17  18
ENDBRANCH  13  17
ENDBRANCH   1  12
BRANCH   5  20
ATOM     20  O   UNL     1       0.755   3.900  20.580  0.00  0.00    +0.000 OA
ATOM     21  H   UNL     1       0.713   4.857  20.402  0.00  0.00    +0.000 HD
ENDBRANCH   5  20
TORSDOF 6
ENDMDL
MODEL 8
REMARK VINA RESULT:      -6.4      2.435      5.687
REMARK  Name = 
REMARK  6 active torsions:
REMARK  status: ('A' for Active; 'I' for Inactive)
REMARK    1  A    between atoms: O_1  and  C_2
REMARK    2  A    between atoms: C_2  and  C_3
REMARK    3  A    between atoms: C_5  and  N_6
REMARK    4  A    between atoms: C_10  and  O_11
REMARK    5  A    between atoms: C_16  and  C_17
REMARK    6  A    between atoms: C_17  and  O_18
REMARK                            x       y       z     vdW  Elec       q    Type
REMARK                         _______ _______ _______ _____ _____    ______ ____
ROOT
ATOM      1  N   UNL     1       4.833   4.302  18.287  0.00  0.00    +0.000 N 
ATOM      2  C   UNL     1       4.542   3.502  17.200  0.00  0.00    +0.000 A 
ATOM      3  N   UNL     1       5.281   3.798  16.154  0.00  0.00    +0.000 NA
ATOM      4  C   UNL     1       6.093   4.822  16.588  0.00  0.00    +0.000 A 
ATOM      5  C   UNL     1       7.063   5.588  15.940  0.00  0.00    +0.000 A 
ATOM      6  N   UNL     1       7.727   6.553  16.602  0.00  0.00    +0.000 NA
ATOM      7  C   UNL     1       7.433   6.718  17.905  0.00  0.00    +0.000 A 
ATOM      8  N   UNL     1       6.536   6.036  18.649  0.00  0.00    +0.000 NA
ATOM      9  C   UNL     1       5.873   5.121  17.923  0.00  0.00    +0.000 A 
ENDROOT
BRANCH   1  12
ATOM     10  C   UNL     1       2.153   2.938  19.581  0.00  0.00    +0.000 C 
ATOM     11  S   UNL     1       3.869   2.492  20.028  0.00  0.00    +0.000 S 
ATOM     12  C   UNL     1       4.071   4.249  19.511  0.00  0.00    +0.000 C 
ATOM     13  C   UNL     1       2.531   4.452  19.474  0.00  0.00    +0.000 C 
BRANCH  10  14
ATOM     14  C   UNL     1       1.657   2.143  18.376  0.00  0.00    +0.000 C 
BRANCH  14  15
ATOM     15  O   UNL     1       0.251   1.930  18.492  0.00  0.00    +0.000 OA
ATOM     16  H   UNL     1      -0.024   1.435  17.702  0.00  0.00    +0.000 HD
ENDBRANCH  14  15
ENDBRANCH  10  14
BRANCH  13  17
ATOM     17  C   UNL     1       2.048   5.264  20.688  0.00  0.00    +0.000 C 
BRANCH  17  18
ATOM     18  O   UNL     1       2.161   6.655  20.425  0.00  0.00    +0.000 OA
ATOM     19  H   UNL     1       1.331   6.955  20.015  0.00  0.00    +0.000 HD
ENDBRANCH  17  18
ENDBRANCH  13  17
ENDBRANCH   1  12
BRANCH   5  20
ATOM     20  O   UNL     1       7.375   5.414  14.616  0.00  0.00    +0.000 OA
ATOM     21  H   UNL     1       8.026   4.690  14.611  0.00  0.00    +0.000 HD
ENDBRANCH   5  20
TORSDOF 6
ENDMDL
MODEL 9
REMARK VINA RESULT:      -6.4      2.523      5.509
REMARK  Name = 
REMARK  6 active torsions:
REMARK  status: ('A' for Active; 'I' for Inactive)
REMARK    1  A    between atoms: O_1  and  C_2
REMARK    2  A    between atoms: C_2  and  C_3
REMARK    3  A    between atoms: C_5  and  N_6
REMARK    4  A    between atoms: C_10  and  O_11
REMARK    5  A    between atoms: C_16  and  C_17
REMARK    6  A    between atoms: C_17  and  O_18
REMARK                            x       y       z     vdW  Elec       q    Type
REMARK                         _______ _______ _______ _____ _____    ______ ____
ROOT
ATOM      1  N   UNL     1       4.282   3.910  17.825  0.00  0.00    +0.000 N 
ATOM      2  C   UNL     1       4.222   3.876  16.446  0.00  0.00    +0.000 A 
ATOM      3  N   UNL     1       5.228   4.516  15.890  0.00  0.00    +0.000 NA
ATOM      4  C   UNL     1       5.975   4.969  16.954  0.00  0.00    +0.000 A 
ATOM      5  C   UNL     1       7.135   5.741  17.024  0.00  0.00    +0.000 A 
ATOM      6  N   UNL     1       7.676   6.056  18.214  0.00  0.00    +0.000 NA
ATOM      7  C   UNL     1       7.068   5.572  19.313  0.00  0.00    +0.000 A 
ATOM      8  N   UNL     1       5.959   4.804  19.381  0.00  0.00    +0.000 NA
ATOM      9  C   UNL     1       5.439   4.564  18.166  0.00  0.00    +0.000 A 
ENDROOT
BRANCH   1  12
ATOM     10  C   UNL     1       1.927   4.864  19.890  0.00  0.00    +0.000 C 
ATOM     11  S   UNL     1       1.635   4.199  18.211  0.00  0.00    +0.000 S 
ATOM     12  C   UNL     1       3.226   3.384  18.655  0.00  0.00    +0.000 C 
ATOM     13  C   UNL     1       3.096   3.852  20.131  0.00  0.00    +0.000 C 
BRANCH  10  14
ATOM     14  C   UNL     1       2.157   6.373  19.870  0.00  0.00    +0.000 C 
BRANCH  14  15
ATOM     15  O   UNL     1       1.690   6.942  21.091  0.00  0.00    +0.000 OA
ATOM     16  H   UNL     1       2.216   7.745  21.246  0.00  0.00    +0.000 HD
ENDBRANCH  14  15
ENDBRANCH  10  14
BRANCH  13  17
ATOM     17  C   UNL     1       2.683   2.689  21.049  0.00  0.00    +0.000 C 
BRANCH  17  18
ATOM     18  O   UNL     1       2.407   3.171  22.357  0.00  0.00    +0.000 OA
ATOM     19  H   UNL     1       1.790   3.920  22.280  0.00  0.00    +0.000 HD
ENDBRANCH  17  18
ENDBRANCH  13  17
ENDBRANCH   1  12
BRANCH   5  20
ATOM     20  O   UNL     1       7.765   6.224  15.906  0.00  0.00    +0.000 OA
ATOM     21  H   UNL     1       7.136   6.061  15.180  0.00  0.00    +0.000 HD
ENDBRANCH   5  20
TORSDOF 6
ENDMDL
