MODEL 1
REMARK VINA RESULT:      -9.0      0.000      0.000
REMARK  Name = 
REMARK  5 active torsions:
REMARK  status: ('A' for Active; 'I' for Inactive)
REMARK    1  A    between atoms: C_2  and  C_3
REMARK    2  A    between atoms: C_8  and  S_9
REMARK    3  A    between atoms: S_9  and  N_12
REMARK    4  A    between atoms: N_12  and  C_13
REMARK    5  A    between atoms: C_13  and  C_14
REMARK                            x       y       z     vdW  Elec       q    Type
REMARK                         _______ _______ _______ _____ _____    ______ ____
ROOT
ATOM      1  C   UNL     1       2.397   7.126  18.973  0.00  0.00    +0.000 A 
ATOM      2  C   UNL     1       1.840   6.658  20.165  0.00  0.00    +0.000 A 
ATOM      3  C   UNL     1       2.057   5.345  20.577  0.00  0.00    +0.000 A 
ATOM      4  C   UNL     1       2.947   4.513  19.886  0.00  0.00    +0.000 A 
ATOM      5 CL   UNL     1       3.160   2.955  20.588  0.00  0.00    +0.000 Cl
ATOM      6  C   UNL     1       3.600   5.007  18.751  0.00  0.00    +0.000 A 
ATOM      7  C   UNL     1       3.316   6.315  18.303  0.00  0.00    +0.000 A 
ENDROOT
BRANCH   1   9
ATOM      8  O   UNL     1       2.316   8.668  17.233  0.00  0.00    +0.000 OA
ATOM      9  C   UNL     1       2.080   8.484  18.414  0.00  0.00    +0.000 C 
ATOM     10  N   UNL     1       1.503   9.447  19.232  0.00  0.00    +0.000 N 
ATOM     11  C   UNL     1       1.289  10.811  18.715  0.00  0.00    +0.000 C 
ATOM     12  C   UNL     1      -0.186  11.258  18.834  0.00  0.00    +0.000 C 
ATOM     13  N   UNL     1      -0.716  10.992  20.175  0.00  0.00    +0.000 N 
ATOM     14  C   UNL     1      -1.154  11.980  21.025  0.00  0.00    +0.000 A 
ATOM     15  C   UNL     1      -1.918  13.035  20.535  0.00  0.00    +0.000 A 
ATOM     16  C   UNL     1      -2.415  14.004  21.401  0.00  0.00    +0.000 A 
ATOM     17  C   UNL     1      -2.128  13.912  22.752  0.00  0.00    +0.000 A 
ATOM     18  C   UNL     1      -1.367  12.838  23.176  0.00  0.00    +0.000 A 
ATOM     19  N   UNL     1      -0.891  11.878  22.348  0.00  0.00    +0.000 NA
ATOM     20  C   UNL     1      -0.506   9.656  20.705  0.00  0.00    +0.000 C 
ATOM     21  C   UNL     1       0.959   9.243  20.589  0.00  0.00    +0.000 C 
ENDBRANCH   1   9
BRANCH   6  22
ATOM     22  S   UNL     1       4.894   4.127  17.896  0.00  0.00    +0.000 S 
ATOM     23  O   UNL     1       6.022   4.083  18.797  0.00  0.00    +0.000 OA
ATOM     24  O   UNL     1       4.357   2.925  17.305  0.00  0.00    +0.000 OA
BRANCH  22  25
ATOM     25  N   UNL     1       5.278   5.122  16.598  0.00  0.00    +0.000 NA
ATOM     26  H   UNL     1       4.811   6.026  16.601  0.00  0.00    +0.000 HD
BRANCH  25  27
ATOM     27  C   UNL     1       6.660   5.125  16.111  0.00  0.00    +0.000 C 
BRANCH  27  28
ATOM     28  C   UNL     1       6.719   4.762  14.646  0.00  0.00    +0.000 A 
ATOM     29  C   UNL     1       5.838   3.812  14.108  0.00  0.00    +0.000 A 
ATOM     30  C   UNL     1       5.923   3.451  12.762  0.00  0.00    +0.000 A 
ATOM     31  C   UNL     1       6.881   4.040  11.940  0.00  0.00    +0.000 A 
ATOM     32  C   UNL     1       7.745   5.004  12.457  0.00  0.00    +0.000 A 
ATOM     33  C   UNL     1       7.665   5.364  13.803  0.00  0.00    +0.000 A 
ENDBRANCH  27  28
ENDBRANCH  25  27
ENDBRANCH  22  25
ENDBRANCH   6  22
TORSDOF 5
ENDMDL
MODEL 2
REMARK VINA RESULT:      -9.0      1.730      2.448
REMARK  Name = 
REMARK  5 active torsions:
REMARK  status: ('A' for Active; 'I' for Inactive)
REMARK    1  A    between atoms: C_2  and  C_3
REMARK    2  A    between atoms: C_8  and  S_9
REMARK    3  A    between atoms: S_9  and  N_12
REMARK    4  A    between atoms: N_12  and  C_13
REMARK    5  A    between atoms: C_13  and  C_14
REMARK                            x       y       z     vdW  Elec       q    Type
REMARK                         _______ _______ _______ _____ _____    ______ ____
ROOT
ATOM      1  C   UNL     1       2.170   6.944  19.079  0.00  0.00    +0.000 A 
ATOM      2  C   UNL     1       1.898   6.700  20.427  0.00  0.00    +0.000 A 
ATOM      3  C   UNL     1       1.872   5.396  20.917  0.00  0.00    +0.000 A 
ATOM      4  C   UNL     1       2.255   4.318  20.110  0.00  0.00    +0.000 A 
ATOM      5 CL   UNL     1       2.248   2.791  20.906  0.00  0.00    +0.000 Cl
ATOM      6  C   UNL     1       2.639   4.560  18.786  0.00  0.00    +0.000 A 
ATOM      7  C   UNL     1       2.592   5.877  18.281  0.00  0.00    +0.000 A 
ENDROOT
BRANCH   1   9
ATOM      8  O   UNL     1       2.415   8.433  17.309  0.00  0.00    +0.000 OA
ATOM      9  C   UNL     1       2.072   8.314  18.472  0.00  0.00    +0.000 C 
ATOM     10  N   UNL     1       1.566   9.366  19.225  0.00  0.00    +0.000 N 
ATOM     11  C   UNL     1       1.568  10.730  18.668  0.00  0.00    +0.000 C 
ATOM     12  C   UNL     1       0.158  11.364  18.666  0.00  0.00    +0.000 C 
ATOM     13  N   UNL     1      -0.498  11.206  19.968  0.00  0.00    +0.000 N 
ATOM     14  C   UNL     1      -0.865  12.266  20.764  0.00  0.00    +0.000 A 
ATOM     15  C   UNL     1      -1.450  13.395  20.197  0.00  0.00    +0.000 A 
ATOM     16  C   UNL     1      -1.880  14.443  21.004  0.00  0.00    +0.000 A 
ATOM     17  C   UNL     1      -1.706  14.354  22.375  0.00  0.00    +0.000 A 
ATOM     18  C   UNL     1      -1.122  13.205  22.875  0.00  0.00    +0.000 A 
ATOM     19  N   UNL     1      -0.714  12.169  22.104  0.00  0.00    +0.000 NA
ATOM     20  C   UNL     1      -0.501   9.870  20.538  0.00  0.00    +0.000 C 
ATOM     21  C   UNL     1       0.903   9.272  20.541  0.00  0.00    +0.000 C 
ENDBRANCH   1   9
BRANCH   6  22
ATOM     22  S   UNL     1       3.329   3.312  17.714  0.00  0.00    +0.000 S 
ATOM     23  O   UNL     1       4.323   2.610  18.493  0.00  0.00    +0.000 OA
ATOM     24  O   UNL     1       2.265   2.607  17.042  0.00  0.00    +0.000 OA
BRANCH  22  25
ATOM     25  N   UNL     1       4.106   4.190  16.511  0.00  0.00    +0.000 NA
ATOM     26  H   UNL     1       3.777   5.146  16.401  0.00  0.00    +0.000 HD
BRANCH  25  27
ATOM     27  C   UNL     1       5.546   3.991  16.327  0.00  0.00    +0.000 C 
BRANCH  27  28
ATOM     28  C   UNL     1       6.337   5.053  17.054  0.00  0.00    +0.000 A 
ATOM     29  C   UNL     1       6.248   6.399  16.672  0.00  0.00    +0.000 A 
ATOM     30  C   UNL     1       7.011   7.371  17.322  0.00  0.00    +0.000 A 
ATOM     31  C   UNL     1       7.861   7.010  18.365  0.00  0.00    +0.000 A 
ATOM     32  C   UNL     1       7.938   5.678  18.771  0.00  0.00    +0.000 A 
ATOM     33  C   UNL     1       7.180   4.705  18.120  0.00  0.00    +0.000 A 
ENDBRANCH  27  28
ENDBRANCH  25  27
ENDBRANCH  22  25
ENDBRANCH   6  22
TORSDOF 5
ENDMDL
MODEL 3
REMARK VINA RESULT:      -8.9      2.979      4.668
REMARK  Name = 
REMARK  5 active torsions:
REMARK  status: ('A' for Active; 'I' for Inactive)
REMARK    1  A    between atoms: C_2  and  C_3
REMARK    2  A    between atoms: C_8  and  S_9
REMARK    3  A    between atoms: S_9  and  N_12
REMARK    4  A    between atoms: N_12  and  C_13
REMARK    5  A    between atoms: C_13  and  C_14
REMARK                            x       y       z     vdW  Elec       q    Type
REMARK                         _______ _______ _______ _____ _____    ______ ____
ROOT
ATOM      1  C   UNL     1       2.629   6.941  19.211  0.00  0.00    +0.000 A 
ATOM      2  C   UNL     1       2.479   7.788  18.111  0.00  0.00    +0.000 A 
ATOM      3  C   UNL     1       3.379   7.732  17.049  0.00  0.00    +0.000 A 
ATOM      4  C   UNL     1       4.363   6.737  16.993  0.00  0.00    +0.000 A 
ATOM      5 CL   UNL     1       5.328   6.765  15.567  0.00  0.00    +0.000 Cl
ATOM      6  C   UNL     1       4.454   5.809  18.038  0.00  0.00    +0.000 A 
ATOM      7  C   UNL     1       3.583   5.922  19.142  0.00  0.00    +0.000 A 
ENDROOT
BRANCH   1   9
ATOM      8  O   UNL     1       1.903   6.194  21.291  0.00  0.00    +0.000 OA
ATOM      9  C   UNL     1       1.774   7.057  20.440  0.00  0.00    +0.000 C 
ATOM     10  N   UNL     1       0.916   8.140  20.582  0.00  0.00    +0.000 N 
ATOM     11  C   UNL     1       0.000   8.200  21.736  0.00  0.00    +0.000 C 
ATOM     12  C   UNL     1       0.171   9.501  22.552  0.00  0.00    +0.000 C 
ATOM     13  N   UNL     1       0.178  10.680  21.679  0.00  0.00    +0.000 N 
ATOM     14  C   UNL     1      -0.767  11.676  21.745  0.00  0.00    +0.000 A 
ATOM     15  C   UNL     1      -1.206  12.142  22.981  0.00  0.00    +0.000 A 
ATOM     16  C   UNL     1      -2.116  13.191  23.053  0.00  0.00    +0.000 A 
ATOM     17  C   UNL     1      -2.590  13.755  21.881  0.00  0.00    +0.000 A 
ATOM     18  C   UNL     1      -2.111  13.249  20.686  0.00  0.00    +0.000 A 
ATOM     19  N   UNL     1      -1.213  12.240  20.600  0.00  0.00    +0.000 NA
ATOM     20  C   UNL     1       1.068  10.634  20.532  0.00  0.00    +0.000 C 
ATOM     21  C   UNL     1       0.871   9.347  19.735  0.00  0.00    +0.000 C 
ENDBRANCH   1   9
BRANCH   6  22
ATOM     22  S   UNL     1       5.527   4.384  18.001  0.00  0.00    +0.000 S 
ATOM     23  O   UNL     1       5.026   3.523  16.955  0.00  0.00    +0.000 OA
ATOM     24  O   UNL     1       6.905   4.813  18.027  0.00  0.00    +0.000 OA
BRANCH  22  25
ATOM     25  N   UNL     1       5.269   3.640  19.485  0.00  0.00    +0.000 NA
ATOM     26  H   UNL     1       5.024   4.273  20.242  0.00  0.00    +0.000 HD
BRANCH  25  27
ATOM     27  C   UNL     1       4.591   2.341  19.500  0.00  0.00    +0.000 C 
BRANCH  27  28
ATOM     28  C   UNL     1       3.105   2.508  19.719  0.00  0.00    +0.000 A 
ATOM     29  C   UNL     1       2.210   2.430  18.642  0.00  0.00    +0.000 A 
ATOM     30  C   UNL     1       0.842   2.624  18.844  0.00  0.00    +0.000 A 
ATOM     31  C   UNL     1       0.355   2.889  20.123  0.00  0.00    +0.000 A 
ATOM     32  C   UNL     1       1.233   2.943  21.204  0.00  0.00    +0.000 A 
ATOM     33  C   UNL     1       2.601   2.753  21.004  0.00  0.00    +0.000 A 
ENDBRANCH  27  28
ENDBRANCH  25  27
ENDBRANCH  22  25
ENDBRANCH   6  22
TORSDOF 5
ENDMDL
MODEL 4
REMARK VINA RESULT:      -8.9      1.037      1.166
REMARK  Name = 
REMARK  5 active torsions:
REMARK  status: ('A' for Active; 'I' for Inactive)
REMARK    1  A    between atoms: C_2  and  C_3
REMARK    2  A    between atoms: C_8  and  S_9
REMARK    3  A    between atoms: S_9  and  N_12
REMARK    4  A    between atoms: N_12  and  C_13
REMARK    5  A    between atoms: C_13  and  C_14
REMARK                            x       y       z     vdW  Elec       q    Type
REMARK                         _______ _______ _______ _____ _____    ______ ____
ROOT
ATOM      1  C   UNL     1       2.708   7.236  18.541  0.00  0.00    +0.000 A 
ATOM      2  C   UNL     1       1.973   6.367  19.351  0.00  0.00    +0.000 A 
ATOM      3  C   UNL     1       2.456   5.093  19.639  0.00  0.00    +0.000 A 
ATOM      4  C   UNL     1       3.743   4.705  19.245  0.00  0.00    +0.000 A 
ATOM      5 CL   UNL     1       4.205   3.130  19.762  0.00  0.00    +0.000 Cl
ATOM      6  C   UNL     1       4.536   5.609  18.527  0.00  0.00    +0.000 A 
ATOM      7  C   UNL     1       4.008   6.871  18.180  0.00  0.00    +0.000 A 
ENDROOT
BRANCH   1   9
ATOM      8  O   UNL     1       2.277   8.830  16.903  0.00  0.00    +0.000 OA
ATOM      9  C   UNL     1       2.171   8.563  18.087  0.00  0.00    +0.000 C 
ATOM     10  N   UNL     1       1.550   9.404  19.001  0.00  0.00    +0.000 N 
ATOM     11  C   UNL     1       1.119  10.749  18.581  0.00  0.00    +0.000 C 
ATOM     12  C   UNL     1      -0.386  10.991  18.845  0.00  0.00    +0.000 C 
ATOM     13  N   UNL     1      -0.757  10.597  20.208  0.00  0.00    +0.000 N 
ATOM     14  C   UNL     1      -1.241  11.479  21.145  0.00  0.00    +0.000 A 
ATOM     15  C   UNL     1      -2.175  12.444  20.778  0.00  0.00    +0.000 A 
ATOM     16  C   UNL     1      -2.713  13.299  21.735  0.00  0.00    +0.000 A 
ATOM     17  C   UNL     1      -2.299  13.185  23.050  0.00  0.00    +0.000 A 
ATOM     18  C   UNL     1      -1.372  12.204  23.350  0.00  0.00    +0.000 A 
ATOM     19  N   UNL     1      -0.851  11.354  22.433  0.00  0.00    +0.000 NA
ATOM     20  C   UNL     1      -0.331   9.278  20.643  0.00  0.00    +0.000 C 
ATOM     21  C   UNL     1       1.159   9.069  20.385  0.00  0.00    +0.000 C 
ENDBRANCH   1   9
BRANCH   6  22
ATOM     22  S   UNL     1       6.251   5.318  18.133  0.00  0.00    +0.000 S 
ATOM     23  O   UNL     1       6.754   6.549  17.566  0.00  0.00    +0.000 OA
ATOM     24  O   UNL     1       6.906   4.685  19.252  0.00  0.00    +0.000 OA
BRANCH  22  25
ATOM     25  N   UNL     1       6.203   4.147  16.930  0.00  0.00    +0.000 NA
ATOM     26  H   UNL     1       6.344   3.195  17.257  0.00  0.00    +0.000 HD
BRANCH  25  27
ATOM     27  C   UNL     1       5.230   4.307  15.846  0.00  0.00    +0.000 C 
BRANCH  27  28
ATOM     28  C   UNL     1       5.912   4.282  14.498  0.00  0.00    +0.000 A 
ATOM     29  C   UNL     1       5.433   3.457  13.469  0.00  0.00    +0.000 A 
ATOM     30  C   UNL     1       6.090   3.408  12.239  0.00  0.00    +0.000 A 
ATOM     31  C   UNL     1       7.224   4.187  12.021  0.00  0.00    +0.000 A 
ATOM     32  C   UNL     1       7.694   5.030  13.027  0.00  0.00    +0.000 A 
ATOM     33  C   UNL     1       7.041   5.078  14.259  0.00  0.00    +0.000 A 
ENDBRANCH  27  28
ENDBRANCH  25  27
ENDBRANCH  22  25
ENDBRANCH   6  22
TORSDOF 5
ENDMDL
MODEL 5
REMARK VINA RESULT:      -8.8      5.416      9.926
REMARK  Name = 
REMARK  5 active torsions:
REMARK  status: ('A' for Active; 'I' for Inactive)
REMARK    1  A    between atoms: C_2  and  C_3
REMARK    2  A    between atoms: C_8  and  S_9
REMARK    3  A    between atoms: S_9  and  N_12
REMARK    4  A    between atoms: N_12  and  C_13
REMARK    5  A    between atoms: C_13  and  C_14
REMARK                            x       y       z     vdW  Elec       q    Type
REMARK                         _______ _______ _______ _____ _____    ______ ____
ROOT
ATOM      1  C   UNL     1      -0.888  11.954  20.575  0.00  0.00    +0.000 A 
ATOM      2  C   UNL     1      -0.390  12.110  21.870  0.00  0.00    +0.000 A 
ATOM      3  C   UNL     1      -1.135  12.781  22.837  0.00  0.00    +0.000 A 
ATOM      4  C   UNL     1      -2.450  13.188  22.576  0.00  0.00    +0.000 A 
ATOM      5 CL   UNL     1      -3.249  13.922  23.913  0.00  0.00    +0.000 Cl
ATOM      6  C   UNL     1      -3.003  12.938  21.315  0.00  0.00    +0.000 A 
ATOM      7  C   UNL     1      -2.212  12.321  20.321  0.00  0.00    +0.000 A 
ENDROOT
BRANCH   1   9
ATOM      8  O   UNL     1       0.315  12.125  18.591  0.00  0.00    +0.000 OA
ATOM      9  C   UNL     1      -0.070  11.364  19.462  0.00  0.00    +0.000 C 
ATOM     10  N   UNL     1       0.249  10.013  19.483  0.00  0.00    +0.000 N 
ATOM     11  C   UNL     1       0.960   9.412  18.340  0.00  0.00    +0.000 C 
ATOM     12  C   UNL     1       2.267   8.706  18.769  0.00  0.00    +0.000 C 
ATOM     13  N   UNL     1       2.043   7.824  19.919  0.00  0.00    +0.000 N 
ATOM     14  C   UNL     1       2.231   6.462  19.876  0.00  0.00    +0.000 A 
ATOM     15  C   UNL     1       3.339   5.931  19.220  0.00  0.00    +0.000 A 
ATOM     16  C   UNL     1       3.567   4.559  19.226  0.00  0.00    +0.000 A 
ATOM     17  C   UNL     1       2.672   3.730  19.880  0.00  0.00    +0.000 A 
ATOM     18  C   UNL     1       1.595   4.320  20.515  0.00  0.00    +0.000 A 
ATOM     19  N   UNL     1       1.369   5.655  20.532  0.00  0.00    +0.000 NA
ATOM     20  C   UNL     1       1.335   8.396  21.050  0.00  0.00    +0.000 C 
ATOM     21  C   UNL     1       0.042   9.074  20.603  0.00  0.00    +0.000 C 
ENDBRANCH   1   9
BRANCH   6  22
ATOM     22  S   UNL     1      -4.717  13.227  20.914  0.00  0.00    +0.000 S 
ATOM     23  O   UNL     1      -5.473  12.196  21.587  0.00  0.00    +0.000 OA
ATOM     24  O   UNL     1      -5.028  14.625  21.093  0.00  0.00    +0.000 OA
BRANCH  22  25
ATOM     25  N   UNL     1      -4.800  12.965  19.257  0.00  0.00    +0.000 NA
ATOM     26  H   UNL     1      -4.028  13.359  18.724  0.00  0.00    +0.000 HD
BRANCH  25  27
ATOM     27  C   UNL     1      -5.302  11.672  18.784  0.00  0.00    +0.000 C 
BRANCH  27  28
ATOM     28  C   UNL     1      -4.391  11.091  17.728  0.00  0.00    +0.000 A 
ATOM     29  C   UNL     1      -3.390  10.171  18.073  0.00  0.00    +0.000 A 
ATOM     30  C   UNL     1      -2.526   9.667  17.100  0.00  0.00    +0.000 A 
ATOM     31  C   UNL     1      -2.658  10.069  15.772  0.00  0.00    +0.000 A 
ATOM     32  C   UNL     1      -3.665  10.963  15.413  0.00  0.00    +0.000 A 
ATOM     33  C   UNL     1      -4.528  11.471  16.385  0.00  0.00    +0.000 A 
ENDBRANCH  27  28
ENDBRANCH  25  27
ENDBRANCH  22  25
ENDBRANCH   6  22
TORSDOF 5
ENDMDL
MODEL 6
REMARK VINA RESULT:      -8.4      2.005      2.574
REMARK  Name = 
REMARK  5 active torsions:
REMARK  status: ('A' for Active; 'I' for Inactive)
REMARK    1  A    between atoms: C_2  and  C_3
REMARK    2  A    between atoms: C_8  and  S_9
REMARK    3  A    between atoms: S_9  and  N_12
REMARK    4  A    between atoms: N_12  and  C_13
REMARK    5  A    between atoms: C_13  and  C_14
REMARK                            x       y       z     vdW  Elec       q    Type
REMARK                         _______ _______ _______ _____ _____    ______ ____
ROOT
ATOM      1  C   UNL     1       2.088   6.729  19.201  0.00  0.00    +0.000 A 
ATOM      2  C   UNL     1       2.049   6.558  20.587  0.00  0.00    +0.000 A 
ATOM      3  C   UNL     1       1.952   5.283  21.138  0.00  0.00    +0.000 A 
ATOM      4  C   UNL     1       2.034   4.142  20.330  0.00  0.00    +0.000 A 
ATOM      5 CL   UNL     1       1.986   2.652  21.190  0.00  0.00    +0.000 Cl
ATOM      6  C   UNL     1       2.186   4.297  18.946  0.00  0.00    +0.000 A 
ATOM      7  C   UNL     1       2.210   5.595  18.393  0.00  0.00    +0.000 A 
ENDROOT
BRANCH   1   9
ATOM      8  O   UNL     1       2.421   8.158  17.396  0.00  0.00    +0.000 OA
ATOM      9  C   UNL     1       2.050   8.084  18.554  0.00  0.00    +0.000 C 
ATOM     10  N   UNL     1       1.565   9.173  19.267  0.00  0.00    +0.000 N 
ATOM     11  C   UNL     1       1.626  10.520  18.672  0.00  0.00    +0.000 C 
ATOM     12  C   UNL     1       0.240  11.202  18.622  0.00  0.00    +0.000 C 
ATOM     13  N   UNL     1      -0.448  11.104  19.913  0.00  0.00    +0.000 N 
ATOM     14  C   UNL     1      -0.795  12.198  20.671  0.00  0.00    +0.000 A 
ATOM     15  C   UNL     1      -1.328  13.330  20.061  0.00  0.00    +0.000 A 
ATOM     16  C   UNL     1      -1.737  14.414  20.829  0.00  0.00    +0.000 A 
ATOM     17  C   UNL     1      -1.595  14.359  22.205  0.00  0.00    +0.000 A 
ATOM     18  C   UNL     1      -1.062  13.205  22.749  0.00  0.00    +0.000 A 
ATOM     19  N   UNL     1      -0.675  12.134  22.016  0.00  0.00    +0.000 NA
ATOM     20  C   UNL     1      -0.509   9.785  20.519  0.00  0.00    +0.000 C 
ATOM     21  C   UNL     1       0.873   9.139  20.569  0.00  0.00    +0.000 C 
ENDBRANCH   1   9
BRANCH   6  22
ATOM     22  S   UNL     1       2.495   2.941  17.830  0.00  0.00    +0.000 S 
ATOM     23  O   UNL     1       1.753   1.812  18.343  0.00  0.00    +0.000 OA
ATOM     24  O   UNL     1       2.336   3.387  16.467  0.00  0.00    +0.000 OA
BRANCH  22  25
ATOM     25  N   UNL     1       4.138   2.634  18.004  0.00  0.00    +0.000 NA
ATOM     26  H   UNL     1       4.628   2.434  17.136  0.00  0.00    +0.000 HD
BRANCH  25  27
ATOM     27  C   UNL     1       4.888   3.416  18.991  0.00  0.00    +0.000 C 
BRANCH  27  28
ATOM     28  C   UNL     1       5.723   4.479  18.317  0.00  0.00    +0.000 A 
ATOM     29  C   UNL     1       5.728   4.607  16.921  0.00  0.00    +0.000 A 
ATOM     30  C   UNL     1       6.532   5.566  16.301  0.00  0.00    +0.000 A 
ATOM     31  C   UNL     1       7.331   6.410  17.069  0.00  0.00    +0.000 A 
ATOM     32  C   UNL     1       7.315   6.309  18.460  0.00  0.00    +0.000 A 
ATOM     33  C   UNL     1       6.515   5.349  19.081  0.00  0.00    +0.000 A 
ENDBRANCH  27  28
ENDBRANCH  25  27
ENDBRANCH  22  25
ENDBRANCH   6  22
TORSDOF 5
ENDMDL
MODEL 7
REMARK VINA RESULT:      -8.4      2.468      3.734
REMARK  Name = 
REMARK  5 active torsions:
REMARK  status: ('A' for Active; 'I' for Inactive)
REMARK    1  A    between atoms: C_2  and  C_3
REMARK    2  A    between atoms: C_8  and  S_9
REMARK    3  A    between atoms: S_9  and  N_12
REMARK    4  A    between atoms: N_12  and  C_13
REMARK    5  A    between atoms: C_13  and  C_14
REMARK                            x       y       z     vdW  Elec       q    Type
REMARK                         _______ _______ _______ _____ _____    ______ ____
ROOT
ATOM      1  C   UNL     1       1.270   8.985  20.669  0.00  0.00    +0.000 A 
ATOM      2  C   UNL     1       1.430   9.655  19.454  0.00  0.00    +0.000 A 
ATOM      3  C   UNL     1       2.111   9.051  18.399  0.00  0.00    +0.000 A 
ATOM      4  C   UNL     1       2.525   7.715  18.482  0.00  0.00    +0.000 A 
ATOM      5 CL   UNL     1       3.271   7.108  17.054  0.00  0.00    +0.000 Cl
ATOM      6  C   UNL     1       2.272   6.995  19.656  0.00  0.00    +0.000 A 
ATOM      7  C   UNL     1       1.645   7.641  20.743  0.00  0.00    +0.000 A 
ENDROOT
BRANCH   1   9
ATOM      8  O   UNL     1       1.263   9.512  22.935  0.00  0.00    +0.000 OA
ATOM      9  C   UNL     1       0.670   9.642  21.879  0.00  0.00    +0.000 C 
ATOM     10  N   UNL     1      -0.491  10.394  21.749  0.00  0.00    +0.000 N 
ATOM     11  C   UNL     1      -1.139  10.950  22.950  0.00  0.00    +0.000 C 
ATOM     12  C   UNL     1      -1.325  12.483  22.859  0.00  0.00    +0.000 C 
ATOM     13  N   UNL     1      -1.916  12.871  21.575  0.00  0.00    +0.000 N 
ATOM     14  C   UNL     1      -3.138  13.493  21.462  0.00  0.00    +0.000 A 
ATOM     15  C   UNL     1      -3.489  14.509  22.347  0.00  0.00    +0.000 A 
ATOM     16  C   UNL     1      -4.698  15.181  22.198  0.00  0.00    +0.000 A 
ATOM     17  C   UNL     1      -5.550  14.819  21.170  0.00  0.00    +0.000 A 
ATOM     18  C   UNL     1      -5.140  13.805  20.323  0.00  0.00    +0.000 A 
ATOM     19  N   UNL     1      -3.960  13.152  20.444  0.00  0.00    +0.000 NA
ATOM     20  C   UNL     1      -1.296  12.325  20.380  0.00  0.00    +0.000 C 
ATOM     21  C   UNL     1      -1.137  10.811  20.489  0.00  0.00    +0.000 C 
ENDBRANCH   1   9
BRANCH   6  22
ATOM     22  S   UNL     1       2.570   5.245  19.823  0.00  0.00    +0.000 S 
ATOM     23  O   UNL     1       2.225   4.900  21.183  0.00  0.00    +0.000 OA
ATOM     24  O   UNL     1       1.993   4.545  18.701  0.00  0.00    +0.000 OA
BRANCH  22  25
ATOM     25  N   UNL     1       4.232   5.092  19.631  0.00  0.00    +0.000 NA
ATOM     26  H   UNL     1       4.784   5.423  20.418  0.00  0.00    +0.000 HD
BRANCH  25  27
ATOM     27  C   UNL     1       4.744   3.897  18.955  0.00  0.00    +0.000 C 
BRANCH  27  28
ATOM     28  C   UNL     1       5.412   4.257  17.649  0.00  0.00    +0.000 A 
ATOM     29  C   UNL     1       6.652   4.913  17.636  0.00  0.00    +0.000 A 
ATOM     30  C   UNL     1       7.247   5.279  16.427  0.00  0.00    +0.000 A 
ATOM     31  C   UNL     1       6.614   4.986  15.221  0.00  0.00    +0.000 A 
ATOM     32  C   UNL     1       5.394   4.312  15.220  0.00  0.00    +0.000 A 
ATOM     33  C   UNL     1       4.796   3.948  16.428  0.00  0.00    +0.000 A 
ENDBRANCH  27  28
ENDBRANCH  25  27
ENDBRANCH  22  25
ENDBRANCH   6  22
TORSDOF 5
ENDMDL
MODEL 8
REMARK VINA RESULT:      -8.3      2.770      4.114
REMARK  Name = 
REMARK  5 active torsions:
REMARK  status: ('A' for Active; 'I' for Inactive)
REMARK    1  A    between atoms: C_2  and  C_3
REMARK    2  A    between atoms: C_8  and  S_9
REMARK    3  A    between atoms: S_9  and  N_12
REMARK    4  A    between atoms: N_12  and  C_13
REMARK    5  A    between atoms: C_13  and  C_14
REMARK                            x       y       z     vdW  Elec       q    Type
REMARK                         _______ _______ _______ _____ _____    ______ ____
ROOT
ATOM      1  C   UNL     1       2.545   7.024  19.315  0.00  0.00    +0.000 A 
ATOM      2  C   UNL     1       2.366   7.743  18.132  0.00  0.00    +0.000 A 
ATOM      3  C   UNL     1       3.334   7.707  17.130  0.00  0.00    +0.000 A 
ATOM      4  C   UNL     1       4.434   6.845  17.225  0.00  0.00    +0.000 A 
ATOM      5 CL   UNL     1       5.480   6.868  15.858  0.00  0.00    +0.000 Cl
ATOM      6  C   UNL     1       4.568   6.033  18.358  0.00  0.00    +0.000 A 
ATOM      7  C   UNL     1       3.618   6.132  19.397  0.00  0.00    +0.000 A 
ENDROOT
BRANCH   1   9
ATOM      8  O   UNL     1       1.615   6.235  21.296  0.00  0.00    +0.000 OA
ATOM      9  C   UNL     1       1.603   7.139  20.479  0.00  0.00    +0.000 C 
ATOM     10  N   UNL     1       0.800   8.265  20.605  0.00  0.00    +0.000 N 
ATOM     11  C   UNL     1      -0.200   8.331  21.686  0.00  0.00    +0.000 C 
ATOM     12  C   UNL     1      -0.020   9.585  22.574  0.00  0.00    +0.000 C 
ATOM     13  N   UNL     1       0.123  10.796  21.760  0.00  0.00    +0.000 N 
ATOM     14  C   UNL     1      -0.766  11.844  21.799  0.00  0.00    +0.000 A 
ATOM     15  C   UNL     1      -1.274  12.283  23.019  0.00  0.00    +0.000 A 
ATOM     16  C   UNL     1      -2.127  13.381  23.070  0.00  0.00    +0.000 A 
ATOM     17  C   UNL     1      -2.472  14.022  21.892  0.00  0.00    +0.000 A 
ATOM     18  C   UNL     1      -1.930  13.539  20.715  0.00  0.00    +0.000 A 
ATOM     19  N   UNL     1      -1.087  12.482  20.651  0.00  0.00    +0.000 NA
ATOM     20  C   UNL     1       1.097  10.746  20.684  0.00  0.00    +0.000 C 
ATOM     21  C   UNL     1       0.891   9.508  19.814  0.00  0.00    +0.000 C 
ENDBRANCH   1   9
BRANCH   6  22
ATOM     22  S   UNL     1       5.807   4.759  18.518  0.00  0.00    +0.000 S 
ATOM     23  O   UNL     1       7.075   5.383  18.217  0.00  0.00    +0.000 OA
ATOM     24  O   UNL     1       5.599   4.032  19.747  0.00  0.00    +0.000 OA
BRANCH  22  25
ATOM     25  N   UNL     1       5.434   3.671  17.294  0.00  0.00    +0.000 NA
ATOM     26  H   UNL     1       5.755   2.720  17.457  0.00  0.00    +0.000 HD
BRANCH  25  27
ATOM     27  C   UNL     1       4.135   3.796  16.627  0.00  0.00    +0.000 C 
BRANCH  27  28
ATOM     28  C   UNL     1       3.024   3.260  17.501  0.00  0.00    +0.000 A 
ATOM     29  C   UNL     1       3.196   2.074  18.230  0.00  0.00    +0.000 A 
ATOM     30  C   UNL     1       2.153   1.563  19.005  0.00  0.00    +0.000 A 
ATOM     31  C   UNL     1       0.934   2.235  19.066  0.00  0.00    +0.000 A 
ATOM     32  C   UNL     1       0.761   3.429  18.367  0.00  0.00    +0.000 A 
ATOM     33  C   UNL     1       1.800   3.939  17.589  0.00  0.00    +0.000 A 
ENDBRANCH  27  28
ENDBRANCH  25  27
ENDBRANCH  22  25
ENDBRANCH   6  22
TORSDOF 5
ENDMDL
MODEL 9
REMARK VINA RESULT:      -8.3      3.485      4.972
REMARK  Name = 
REMARK  5 active torsions:
REMARK  status: ('A' for Active; 'I' for Inactive)
REMARK    1  A    between atoms: C_2  and  C_3
REMARK    2  A    between atoms: C_8  and  S_9
REMARK    3  A    between atoms: S_9  and  N_12
REMARK    4  A    between atoms: N_12  and  C_13
REMARK    5  A    between atoms: C_13  and  C_14
REMARK                            x       y       z     vdW  Elec       q    Type
REMARK                         _______ _______ _______ _____ _____    ______ ____
ROOT
ATOM      1  C   UNL     1       3.641   4.958  18.694  0.00  0.00    +0.000 A 
ATOM      2  C   UNL     1       3.131   3.987  17.830  0.00  0.00    +0.000 A 
ATOM      3  C   UNL     1       3.830   3.629  16.679  0.00  0.00    +0.000 A 
ATOM      4  C   UNL     1       5.117   4.126  16.436  0.00  0.00    +0.000 A 
ATOM      5 CL   UNL     1       5.865   3.509  15.014  0.00  0.00    +0.000 Cl
ATOM      6  C   UNL     1       5.687   5.017  17.354  0.00  0.00    +0.000 A 
ATOM      7  C   UNL     1       4.940   5.427  18.478  0.00  0.00    +0.000 A 
ENDROOT
BRANCH   1   9
ATOM      8  O   UNL     1       3.089   4.973  20.954  0.00  0.00    +0.000 OA
ATOM      9  C   UNL     1       2.864   5.480  19.869  0.00  0.00    +0.000 C 
ATOM     10  N   UNL     1       1.968   6.526  19.692  0.00  0.00    +0.000 N 
ATOM     11  C   UNL     1       1.128   6.967  20.820  0.00  0.00    +0.000 C 
ATOM     12  C   UNL     1       1.292   8.476  21.116  0.00  0.00    +0.000 C 
ATOM     13  N   UNL     1       1.186   9.274  19.890  0.00  0.00    +0.000 N 
ATOM     14  C   UNL     1       0.202  10.210  19.679  0.00  0.00    +0.000 A 
ATOM     15  C   UNL     1      -0.175  11.071  20.706  0.00  0.00    +0.000 A 
ATOM     16  C   UNL     1      -1.127  12.059  20.479  0.00  0.00    +0.000 A 
ATOM     17  C   UNL     1      -1.702  12.167  19.225  0.00  0.00    +0.000 A 
ATOM     18  C   UNL     1      -1.281  11.284  18.247  0.00  0.00    +0.000 A 
ATOM     19  N   UNL     1      -0.344  10.328  18.448  0.00  0.00    +0.000 NA
ATOM     20  C   UNL     1       2.000   8.847  18.765  0.00  0.00    +0.000 C 
ATOM     21  C   UNL     1       1.810   7.359  18.484  0.00  0.00    +0.000 C 
ENDBRANCH   1   9
BRANCH   6  22
ATOM     22  S   UNL     1       7.380   5.572  17.267  0.00  0.00    +0.000 S 
ATOM     23  O   UNL     1       8.161   4.618  18.021  0.00  0.00    +0.000 OA
ATOM     24  O   UNL     1       7.713   5.906  15.903  0.00  0.00    +0.000 OA
BRANCH  22  25
ATOM     25  N   UNL     1       7.373   7.037  18.090  0.00  0.00    +0.000 NA
ATOM     26  H   UNL     1       7.978   7.070  18.906  0.00  0.00    +0.000 HD
BRANCH  25  27
ATOM     27  C   UNL     1       7.300   8.272  17.305  0.00  0.00    +0.000 C 
BRANCH  27  28
ATOM     28  C   UNL     1       8.108   9.373  17.951  0.00  0.00    +0.000 A 
ATOM     29  C   UNL     1       8.902   9.111  19.078  0.00  0.00    +0.000 A 
ATOM     30  C   UNL     1       9.616  10.140  19.695  0.00  0.00    +0.000 A 
ATOM     31  C   UNL     1       9.551  11.437  19.189  0.00  0.00    +0.000 A 
ATOM     32  C   UNL     1       8.786  11.704  18.055  0.00  0.00    +0.000 A 
ATOM     33  C   UNL     1       8.069  10.678  17.438  0.00  0.00    +0.000 A 
ENDBRANCH  27  28
ENDBRANCH  25  27
ENDBRANCH  22  25
ENDBRANCH   6  22
TORSDOF 5
ENDMDL
