MODEL 1
REMARK VINA RESULT:      -8.3      0.000      0.000
REMARK  Name = 
REMARK  8 active torsions:
REMARK  status: ('A' for Active; 'I' for Inactive)
REMARK    1  A    between atoms: C_1  and  C_2
REMARK    2  A    between atoms: C_6  and  C_7
REMARK    3  A    between atoms: C_7  and  N_8
REMARK    4  A    between atoms: C_11  and  C_12
REMARK    5  A    between atoms: N_14  and  C_15
REMARK    6  A    between atoms: C_15  and  C_16
REMARK    7  A    between atoms: C_16  and  C_17
REMARK    8  A    between atoms: C_16  and  C_18
REMARK                            x       y       z     vdW  Elec       q    Type
REMARK                         _______ _______ _______ _____ _____    ______ ____
ROOT
ATOM      1  N   UNL     1       3.205   6.562  18.931  0.00  0.00    +0.000 NA
ATOM      2  C   UNL     1       4.513   6.272  18.321  0.00  0.00    +0.000 C 
ATOM      3  C   UNL     1       4.766   4.756  18.518  0.00  0.00    +0.000 C 
ATOM      4  C   UNL     1       4.478   3.966  17.210  0.00  0.00    +0.000 C 
ATOM      5  C   UNL     1       4.139   2.469  17.368  0.00  0.00    +0.000 C 
ATOM      6  C   UNL     1       3.047   2.174  18.375  0.00  0.00    +0.000 C 
ATOM      7  S   UNL     1       3.500   2.770  19.983  0.00  0.00    +0.000 S 
ATOM      8  O   UNL     1       2.341   2.662  20.841  0.00  0.00    +0.000 OA
ATOM      9  O   UNL     1       4.759   2.138  20.345  0.00  0.00    +0.000 OA
ATOM     10  C   UNL     1       3.827   4.467  19.688  0.00  0.00    +0.000 C 
ATOM     11  C   UNL     1       2.602   5.301  19.370  0.00  0.00    +0.000 C 
ENDROOT
BRANCH   4  12
ATOM     12  C   UNL     1       5.658   4.102  16.232  0.00  0.00    +0.000 C 
ATOM     13  O   UNL     1       6.812   4.195  16.639  0.00  0.00    +0.000 OA
ATOM     14  N   UNL     1       5.331   4.104  14.891  0.00  0.00    +0.000 N 
ATOM     15  H   UNL     1       4.419   3.776  14.600  0.00  0.00    +0.000 HD
BRANCH  14  16
ATOM     16  C   UNL     1       6.340   4.290  13.860  0.00  0.00    +0.000 C 
BRANCH  16  17
ATOM     17  C   UNL     1       6.135   3.364  12.647  0.00  0.00    +0.000 C 
ATOM     18  C   UNL     1       4.734   3.499  12.043  0.00  0.00    +0.000 C 
ATOM     19  C   UNL     1       7.185   3.653  11.572  0.00  0.00    +0.000 C 
ENDBRANCH  16  17
ENDBRANCH  14  16
ENDBRANCH   4  12
BRANCH   1  20
ATOM     20  C   UNL     1       2.311   7.392  18.119  0.00  0.00    +0.000 C 
BRANCH  20  26
ATOM     21  C   UNL     1       0.649   9.244  22.488  0.00  0.00    +0.000 C 
ATOM     22  C   UNL     1       0.862   9.431  21.016  0.00  0.00    +0.000 A 
ATOM     23  C   UNL     1       0.267  10.494  20.334  0.00  0.00    +0.000 A 
ATOM     24  C   UNL     1       0.386  10.593  18.945  0.00  0.00    +0.000 A 
ATOM     25  C   UNL     1       1.076   9.612  18.225  0.00  0.00    +0.000 A 
ATOM     26  C   UNL     1       1.676   8.533  18.887  0.00  0.00    +0.000 A 
ATOM     27  C   UNL     1       1.581   8.467  20.288  0.00  0.00    +0.000 A 
ENDBRANCH  20  26
ENDBRANCH   1  20
TORSDOF 5
ENDMDL
MODEL 2
REMARK VINA RESULT:      -7.9      0.438      1.360
REMARK  Name = 
REMARK  8 active torsions:
REMARK  status: ('A' for Active; 'I' for Inactive)
REMARK    1  A    between atoms: C_1  and  C_2
REMARK    2  A    between atoms: C_6  and  C_7
REMARK    3  A    between atoms: C_7  and  N_8
REMARK    4  A    between atoms: C_11  and  C_12
REMARK    5  A    between atoms: N_14  and  C_15
REMARK    6  A    between atoms: C_15  and  C_16
REMARK    7  A    between atoms: C_16  and  C_17
REMARK    8  A    between atoms: C_16  and  C_18
REMARK                            x       y       z     vdW  Elec       q    Type
REMARK                         _______ _______ _______ _____ _____    ______ ____
ROOT
ATOM      1  N   UNL     1       3.116   6.574  19.073  0.00  0.00    +0.000 NA
ATOM      2  C   UNL     1       4.426   6.262  18.480  0.00  0.00    +0.000 C 
ATOM      3  C   UNL     1       4.600   4.725  18.576  0.00  0.00    +0.000 C 
ATOM      4  C   UNL     1       4.314   4.043  17.207  0.00  0.00    +0.000 C 
ATOM      5  C   UNL     1       3.898   2.558  17.249  0.00  0.00    +0.000 C 
ATOM      6  C   UNL     1       2.763   2.248  18.202  0.00  0.00    +0.000 C 
ATOM      7  S   UNL     1       3.195   2.707  19.860  0.00  0.00    +0.000 S 
ATOM      8  O   UNL     1       2.006   2.598  20.676  0.00  0.00    +0.000 OA
ATOM      9  O   UNL     1       4.409   1.989  20.210  0.00  0.00    +0.000 OA
ATOM     10  C   UNL     1       3.612   4.402  19.696  0.00  0.00    +0.000 C 
ATOM     11  C   UNL     1       2.439   5.317  19.404  0.00  0.00    +0.000 C 
ENDROOT
BRANCH   4  12
ATOM     12  C   UNL     1       5.529   4.187  16.274  0.00  0.00    +0.000 C 
ATOM     13  O   UNL     1       6.673   4.198  16.719  0.00  0.00    +0.000 OA
ATOM     14  N   UNL     1       5.245   4.295  14.928  0.00  0.00    +0.000 N 
ATOM     15  H   UNL     1       4.328   4.031  14.590  0.00  0.00    +0.000 HD
BRANCH  14  16
ATOM     16  C   UNL     1       6.293   4.500  13.941  0.00  0.00    +0.000 C 
BRANCH  16  17
ATOM     17  C   UNL     1       6.217   3.503  12.770  0.00  0.00    +0.000 C 
ATOM     18  C   UNL     1       4.823   3.452  12.138  0.00  0.00    +0.000 C 
ATOM     19  C   UNL     1       7.251   3.859  11.699  0.00  0.00    +0.000 C 
ENDBRANCH  16  17
ENDBRANCH  14  16
ENDBRANCH   4  12
BRANCH   1  20
ATOM     20  C   UNL     1       2.288   7.502  18.298  0.00  0.00    +0.000 C 
BRANCH  20  26
ATOM     21  C   UNL     1       0.593  12.214  18.742  0.00  0.00    +0.000 C 
ATOM     22  C   UNL     1       0.792  10.861  19.357  0.00  0.00    +0.000 A 
ATOM     23  C   UNL     1       0.606  10.661  20.725  0.00  0.00    +0.000 A 
ATOM     24  C   UNL     1       0.900   9.422  21.301  0.00  0.00    +0.000 A 
ATOM     25  C   UNL     1       1.411   8.384  20.516  0.00  0.00    +0.000 A 
ATOM     26  C   UNL     1       1.612   8.563  19.141  0.00  0.00    +0.000 A 
ATOM     27  C   UNL     1       1.275   9.802  18.569  0.00  0.00    +0.000 A 
ENDBRANCH  20  26
ENDBRANCH   1  20
TORSDOF 5
ENDMDL
MODEL 3
REMARK VINA RESULT:      -7.9      1.969      7.812
REMARK  Name = 
REMARK  8 active torsions:
REMARK  status: ('A' for Active; 'I' for Inactive)
REMARK    1  A    between atoms: C_1  and  C_2
REMARK    2  A    between atoms: C_6  and  C_7
REMARK    3  A    between atoms: C_7  and  N_8
REMARK    4  A    between atoms: C_11  and  C_12
REMARK    5  A    between atoms: N_14  and  C_15
REMARK    6  A    between atoms: C_15  and  C_16
REMARK    7  A    between atoms: C_16  and  C_17
REMARK    8  A    between atoms: C_16  and  C_18
REMARK                            x       y       z     vdW  Elec       q    Type
REMARK                         _______ _______ _______ _____ _____    ______ ____
ROOT
ATOM      1  N   UNL     1       4.212   4.311  16.766  0.00  0.00    +0.000 NA
ATOM      2  C   UNL     1       3.340   5.461  17.059  0.00  0.00    +0.000 C 
ATOM      3  C   UNL     1       2.391   5.015  18.200  0.00  0.00    +0.000 C 
ATOM      4  C   UNL     1       2.858   5.584  19.570  0.00  0.00    +0.000 C 
ATOM      5  C   UNL     1       2.396   4.820  20.829  0.00  0.00    +0.000 C 
ATOM      6  C   UNL     1       2.666   3.330  20.796  0.00  0.00    +0.000 C 
ATOM      7  S   UNL     1       1.852   2.578  19.411  0.00  0.00    +0.000 S 
ATOM      8  O   UNL     1       2.322   1.214  19.305  0.00  0.00    +0.000 OA
ATOM      9  O   UNL     1       0.432   2.870  19.527  0.00  0.00    +0.000 OA
ATOM     10  C   UNL     1       2.472   3.496  18.052  0.00  0.00    +0.000 C 
ATOM     11  C   UNL     1       3.934   3.251  17.737  0.00  0.00    +0.000 C 
ENDROOT
BRANCH   4  12
ATOM     12  C   UNL     1       2.437   7.058  19.709  0.00  0.00    +0.000 C 
ATOM     13  O   UNL     1       2.656   7.866  18.812  0.00  0.00    +0.000 OA
ATOM     14  N   UNL     1       1.803   7.395  20.887  0.00  0.00    +0.000 N 
ATOM     15  H   UNL     1       1.423   6.663  21.475  0.00  0.00    +0.000 HD
BRANCH  14  16
ATOM     16  C   UNL     1       1.409   8.764  21.176  0.00  0.00    +0.000 C 
BRANCH  16  17
ATOM     17  C   UNL     1      -0.115   8.933  21.316  0.00  0.00    +0.000 C 
ATOM     18  C   UNL     1      -0.530   9.317  22.739  0.00  0.00    +0.000 C 
ATOM     19  C   UNL     1      -0.628   9.987  20.332  0.00  0.00    +0.000 C 
ENDBRANCH  16  17
ENDBRANCH  14  16
ENDBRANCH   4  12
BRANCH   1  20
ATOM     20  C   UNL     1       5.636   4.630  16.634  0.00  0.00    +0.000 C 
BRANCH  20  26
ATOM     21  C   UNL     1       5.096   3.071  11.884  0.00  0.00    +0.000 C 
ATOM     22  C   UNL     1       5.864   3.878  12.888  0.00  0.00    +0.000 A 
ATOM     23  C   UNL     1       7.119   4.404  12.577  0.00  0.00    +0.000 A 
ATOM     24  C   UNL     1       7.869   5.060  13.557  0.00  0.00    +0.000 A 
ATOM     25  C   UNL     1       7.380   5.168  14.863  0.00  0.00    +0.000 A 
ATOM     26  C   UNL     1       6.126   4.643  15.200  0.00  0.00    +0.000 A 
ATOM     27  C   UNL     1       5.366   4.020  14.195  0.00  0.00    +0.000 A 
ENDBRANCH  20  26
ENDBRANCH   1  20
TORSDOF 5
ENDMDL
MODEL 4
REMARK VINA RESULT:      -7.8      0.886      1.181
REMARK  Name = 
REMARK  8 active torsions:
REMARK  status: ('A' for Active; 'I' for Inactive)
REMARK    1  A    between atoms: C_1  and  C_2
REMARK    2  A    between atoms: C_6  and  C_7
REMARK    3  A    between atoms: C_7  and  N_8
REMARK    4  A    between atoms: C_11  and  C_12
REMARK    5  A    between atoms: N_14  and  C_15
REMARK    6  A    between atoms: C_15  and  C_16
REMARK    7  A    between atoms: C_16  and  C_17
REMARK    8  A    between atoms: C_16  and  C_18
REMARK                            x       y       z     vdW  Elec       q    Type
REMARK                         _______ _______ _______ _____ _____    ______ ____
ROOT
ATOM      1  N   UNL     1       2.792   6.728  19.403  0.00  0.00    +0.000 NA
ATOM      2  C   UNL     1       4.193   6.383  19.111  0.00  0.00    +0.000 C 
ATOM      3  C   UNL     1       4.311   4.846  19.270  0.00  0.00    +0.000 C 
ATOM      4  C   UNL     1       4.313   4.140  17.884  0.00  0.00    +0.000 C 
ATOM      5  C   UNL     1       3.868   2.662  17.862  0.00  0.00    +0.000 C 
ATOM      6  C   UNL     1       2.549   2.390  18.554  0.00  0.00    +0.000 C 
ATOM      7  S   UNL     1       2.623   2.879  20.257  0.00  0.00    +0.000 S 
ATOM      8  O   UNL     1       1.285   2.805  20.800  0.00  0.00    +0.000 OA
ATOM      9  O   UNL     1       3.720   2.149  20.874  0.00  0.00    +0.000 OA
ATOM     10  C   UNL     1       3.100   4.563  20.157  0.00  0.00    +0.000 C 
ATOM     11  C   UNL     1       2.035   5.489  19.603  0.00  0.00    +0.000 C 
ENDROOT
BRANCH   4  12
ATOM     12  C   UNL     1       5.702   4.244  17.232  0.00  0.00    +0.000 C 
ATOM     13  O   UNL     1       6.723   4.247  17.912  0.00  0.00    +0.000 OA
ATOM     14  N   UNL     1       5.716   4.327  15.855  0.00  0.00    +0.000 N 
ATOM     15  H   UNL     1       4.888   4.069  15.332  0.00  0.00    +0.000 HD
BRANCH  14  16
ATOM     16  C   UNL     1       6.956   4.494  15.112  0.00  0.00    +0.000 C 
BRANCH  16  17
ATOM     17  C   UNL     1       6.725   4.806  13.623  0.00  0.00    +0.000 C 
ATOM     18  C   UNL     1       8.004   5.272  12.921  0.00  0.00    +0.000 C 
ATOM     19  C   UNL     1       6.164   3.578  12.901  0.00  0.00    +0.000 C 
ENDBRANCH  16  17
ENDBRANCH  14  16
ENDBRANCH   4  12
BRANCH   1  20
ATOM     20  C   UNL     1       2.168   7.652  18.452  0.00  0.00    +0.000 C 
BRANCH  20  26
ATOM     21  C   UNL     1       0.018   9.606  22.555  0.00  0.00    +0.000 C 
ATOM     22  C   UNL     1       0.392   9.755  21.110  0.00  0.00    +0.000 A 
ATOM     23  C   UNL     1      -0.131  10.793  20.337  0.00  0.00    +0.000 A 
ATOM     24  C   UNL     1       0.141  10.855  18.967  0.00  0.00    +0.000 A 
ATOM     25  C   UNL     1       0.914   9.861  18.357  0.00  0.00    +0.000 A 
ATOM     26  C   UNL     1       1.444   8.807  19.112  0.00  0.00    +0.000 A 
ATOM     27  C   UNL     1       1.195   8.779  20.495  0.00  0.00    +0.000 A 
ENDBRANCH  20  26
ENDBRANCH   1  20
TORSDOF 5
ENDMDL
MODEL 5
REMARK VINA RESULT:      -7.8      1.133      1.808
REMARK  Name = 
REMARK  8 active torsions:
REMARK  status: ('A' for Active; 'I' for Inactive)
REMARK    1  A    between atoms: C_1  and  C_2
REMARK    2  A    between atoms: C_6  and  C_7
REMARK    3  A    between atoms: C_7  and  N_8
REMARK    4  A    between atoms: C_11  and  C_12
REMARK    5  A    between atoms: N_14  and  C_15
REMARK    6  A    between atoms: C_15  and  C_16
REMARK    7  A    between atoms: C_16  and  C_17
REMARK    8  A    between atoms: C_16  and  C_18
REMARK                            x       y       z     vdW  Elec       q    Type
REMARK                         _______ _______ _______ _____ _____    ______ ____
ROOT
ATOM      1  N   UNL     1       2.973   7.362  18.636  0.00  0.00    +0.000 NA
ATOM      2  C   UNL     1       4.282   6.826  18.228  0.00  0.00    +0.000 C 
ATOM      3  C   UNL     1       4.229   5.297  18.473  0.00  0.00    +0.000 C 
ATOM      4  C   UNL     1       3.995   4.525  17.143  0.00  0.00    +0.000 C 
ATOM      5  C   UNL     1       3.374   3.118  17.262  0.00  0.00    +0.000 C 
ATOM      6  C   UNL     1       2.114   3.053  18.098  0.00  0.00    +0.000 C 
ATOM      7  S   UNL     1       2.429   3.615  19.750  0.00  0.00    +0.000 S 
ATOM      8  O   UNL     1       1.158   3.742  20.428  0.00  0.00    +0.000 OA
ATOM      9  O   UNL     1       3.488   2.784  20.299  0.00  0.00    +0.000 OA
ATOM     10  C   UNL     1       3.094   5.218  19.494  0.00  0.00    +0.000 C 
ATOM     11  C   UNL     1       2.097   6.242  18.990  0.00  0.00    +0.000 C 
ENDROOT
BRANCH   4  12
ATOM     12  C   UNL     1       5.309   4.418  16.350  0.00  0.00    +0.000 C 
ATOM     13  O   UNL     1       6.388   4.297  16.923  0.00  0.00    +0.000 OA
ATOM     14  N   UNL     1       5.188   4.459  14.976  0.00  0.00    +0.000 N 
ATOM     15  H   UNL     1       4.282   4.305  14.551  0.00  0.00    +0.000 HD
BRANCH  14  16
ATOM     16  C   UNL     1       6.353   4.432  14.106  0.00  0.00    +0.000 C 
BRANCH  16  17
ATOM     17  C   UNL     1       6.175   3.499  12.895  0.00  0.00    +0.000 C 
ATOM     18  C   UNL     1       4.753   3.547  12.327  0.00  0.00    +0.000 C 
ATOM     19  C   UNL     1       7.177   3.857  11.794  0.00  0.00    +0.000 C 
ENDBRANCH  16  17
ENDBRANCH  14  16
ENDBRANCH   4  12
BRANCH   1  20
ATOM     20  C   UNL     1       2.368   8.307  17.694  0.00  0.00    +0.000 C 
BRANCH  20  26
ATOM     21  C   UNL     1      -2.147  10.428  17.064  0.00  0.00    +0.000 C 
ATOM     22  C   UNL     1      -0.988  10.127  17.967  0.00  0.00    +0.000 A 
ATOM     23  C   UNL     1      -0.859  10.760  19.204  0.00  0.00    +0.000 A 
ATOM     24  C   UNL     1       0.282  10.551  19.985  0.00  0.00    +0.000 A 
ATOM     25  C   UNL     1       1.314   9.731  19.518  0.00  0.00    +0.000 A 
ATOM     26  C   UNL     1       1.210   9.090  18.277  0.00  0.00    +0.000 A 
ATOM     27  C   UNL     1       0.040   9.278  17.520  0.00  0.00    +0.000 A 
ENDBRANCH  20  26
ENDBRANCH   1  20
TORSDOF 5
ENDMDL
MODEL 6
REMARK VINA RESULT:      -7.6      1.095      1.828
REMARK  Name = 
REMARK  8 active torsions:
REMARK  status: ('A' for Active; 'I' for Inactive)
REMARK    1  A    between atoms: C_1  and  C_2
REMARK    2  A    between atoms: C_6  and  C_7
REMARK    3  A    between atoms: C_7  and  N_8
REMARK    4  A    between atoms: C_11  and  C_12
REMARK    5  A    between atoms: N_14  and  C_15
REMARK    6  A    between atoms: C_15  and  C_16
REMARK    7  A    between atoms: C_16  and  C_17
REMARK    8  A    between atoms: C_16  and  C_18
REMARK                            x       y       z     vdW  Elec       q    Type
REMARK                         _______ _______ _______ _____ _____    ______ ____
ROOT
ATOM      1  N   UNL     1       3.294   7.195  18.410  0.00  0.00    +0.000 NA
ATOM      2  C   UNL     1       4.602   6.899  17.801  0.00  0.00    +0.000 C 
ATOM      3  C   UNL     1       4.866   5.390  18.035  0.00  0.00    +0.000 C 
ATOM      4  C   UNL     1       4.578   4.566  16.749  0.00  0.00    +0.000 C 
ATOM      5  C   UNL     1       4.249   3.071  16.945  0.00  0.00    +0.000 C 
ATOM      6  C   UNL     1       3.164   2.793  17.964  0.00  0.00    +0.000 C 
ATOM      7  S   UNL     1       3.619   3.433  19.554  0.00  0.00    +0.000 S 
ATOM      8  O   UNL     1       2.464   3.338  20.420  0.00  0.00    +0.000 OA
ATOM      9  O   UNL     1       4.884   2.818  19.927  0.00  0.00    +0.000 OA
ATOM     10  C   UNL     1       3.933   5.124  19.216  0.00  0.00    +0.000 C 
ATOM     11  C   UNL     1       2.702   5.941  18.882  0.00  0.00    +0.000 C 
ENDROOT
BRANCH   4  12
ATOM     12  C   UNL     1       5.753   4.685  15.762  0.00  0.00    +0.000 C 
ATOM     13  O   UNL     1       6.797   5.242  16.085  0.00  0.00    +0.000 OA
ATOM     14  N   UNL     1       5.552   4.125  14.517  0.00  0.00    +0.000 N 
ATOM     15  H   UNL     1       4.794   3.468  14.382  0.00  0.00    +0.000 HD
BRANCH  14  16
ATOM     16  C   UNL     1       6.555   4.221  13.467  0.00  0.00    +0.000 C 
BRANCH  16  17
ATOM     17  C   UNL     1       6.055   3.689  12.112  0.00  0.00    +0.000 C 
ATOM     18  C   UNL     1       6.826   2.448  11.654  0.00  0.00    +0.000 C 
ATOM     19  C   UNL     1       4.561   3.365  12.184  0.00  0.00    +0.000 C 
ENDBRANCH  16  17
ENDBRANCH  14  16
ENDBRANCH   4  12
BRANCH   1  20
ATOM     20  C   UNL     1       2.391   7.998  17.581  0.00  0.00    +0.000 C 
BRANCH  20  26
ATOM     21  C   UNL     1       2.308  12.988  18.188  0.00  0.00    +0.000 C 
ATOM     22  C   UNL     1       1.791  11.640  18.592  0.00  0.00    +0.000 A 
ATOM     23  C   UNL     1       1.024  11.483  19.748  0.00  0.00    +0.000 A 
ATOM     24  C   UNL     1       0.642  10.206  20.170  0.00  0.00    +0.000 A 
ATOM     25  C   UNL     1       1.051   9.076  19.454  0.00  0.00    +0.000 A 
ATOM     26  C   UNL     1       1.826   9.209  18.295  0.00  0.00    +0.000 A 
ATOM     27  C   UNL     1       2.170  10.501  17.861  0.00  0.00    +0.000 A 
ENDBRANCH  20  26
ENDBRANCH   1  20
TORSDOF 5
ENDMDL
MODEL 7
REMARK VINA RESULT:      -7.6      1.004      1.596
REMARK  Name = 
REMARK  8 active torsions:
REMARK  status: ('A' for Active; 'I' for Inactive)
REMARK    1  A    between atoms: C_1  and  C_2
REMARK    2  A    between atoms: C_6  and  C_7
REMARK    3  A    between atoms: C_7  and  N_8
REMARK    4  A    between atoms: C_11  and  C_12
REMARK    5  A    between atoms: N_14  and  C_15
REMARK    6  A    between atoms: C_15  and  C_16
REMARK    7  A    between atoms: C_16  and  C_17
REMARK    8  A    between atoms: C_16  and  C_18
REMARK                            x       y       z     vdW  Elec       q    Type
REMARK                         _______ _______ _______ _____ _____    ______ ____
ROOT
ATOM      1  N   UNL     1       3.059   7.242  19.012  0.00  0.00    +0.000 NA
ATOM      2  C   UNL     1       4.252   7.113  18.160  0.00  0.00    +0.000 C 
ATOM      3  C   UNL     1       4.629   5.610  18.152  0.00  0.00    +0.000 C 
ATOM      4  C   UNL     1       4.161   4.923  16.838  0.00  0.00    +0.000 C 
ATOM      5  C   UNL     1       3.947   3.396  16.895  0.00  0.00    +0.000 C 
ATOM      6  C   UNL     1       3.072   2.924  18.037  0.00  0.00    +0.000 C 
ATOM      7  S   UNL     1       3.767   3.404  19.597  0.00  0.00    +0.000 S 
ATOM      8  O   UNL     1       2.788   3.127  20.624  0.00  0.00    +0.000 OA
ATOM      9  O   UNL     1       5.106   2.841  19.670  0.00  0.00    +0.000 OA
ATOM     10  C   UNL     1       3.932   5.142  19.429  0.00  0.00    +0.000 C 
ATOM     11  C   UNL     1       2.622   5.903  19.413  0.00  0.00    +0.000 C 
ENDROOT
BRANCH   4  12
ATOM     12  C   UNL     1       5.137   5.240  15.691  0.00  0.00    +0.000 C 
ATOM     13  O   UNL     1       5.423   6.399  15.405  0.00  0.00    +0.000 OA
ATOM     14  N   UNL     1       5.661   4.150  15.028  0.00  0.00    +0.000 N 
ATOM     15  H   UNL     1       5.599   3.232  15.451  0.00  0.00    +0.000 HD
BRANCH  14  16
ATOM     16  C   UNL     1       6.546   4.305  13.884  0.00  0.00    +0.000 C 
BRANCH  16  17
ATOM     17  C   UNL     1       6.206   3.347  12.728  0.00  0.00    +0.000 C 
ATOM     18  C   UNL     1       4.778   3.542  12.211  0.00  0.00    +0.000 C 
ATOM     19  C   UNL     1       7.197   3.528  11.576  0.00  0.00    +0.000 C 
ENDBRANCH  16  17
ENDBRANCH  14  16
ENDBRANCH   4  12
BRANCH   1  20
ATOM     20  C   UNL     1       1.985   8.070  18.456  0.00  0.00    +0.000 C 
BRANCH  20  26
ATOM     21  C   UNL     1      -0.980  11.947  19.664  0.00  0.00    +0.000 C 
ATOM     22  C   UNL     1      -0.255  10.706  20.093  0.00  0.00    +0.000 A 
ATOM     23  C   UNL     1      -0.105  10.395  21.445  0.00  0.00    +0.000 A 
ATOM     24  C   UNL     1       0.666   9.295  21.832  0.00  0.00    +0.000 A 
ATOM     25  C   UNL     1       1.316   8.516  20.868  0.00  0.00    +0.000 A 
ATOM     26  C   UNL     1       1.185   8.814  19.506  0.00  0.00    +0.000 A 
ATOM     27  C   UNL     1       0.375   9.900  19.130  0.00  0.00    +0.000 A 
ENDBRANCH  20  26
ENDBRANCH   1  20
TORSDOF 5
ENDMDL
MODEL 8
REMARK VINA RESULT:      -7.5      1.129      1.384
REMARK  Name = 
REMARK  8 active torsions:
REMARK  status: ('A' for Active; 'I' for Inactive)
REMARK    1  A    between atoms: C_1  and  C_2
REMARK    2  A    between atoms: C_6  and  C_7
REMARK    3  A    between atoms: C_7  and  N_8
REMARK    4  A    between atoms: C_11  and  C_12
REMARK    5  A    between atoms: N_14  and  C_15
REMARK    6  A    between atoms: C_15  and  C_16
REMARK    7  A    between atoms: C_16  and  C_17
REMARK    8  A    between atoms: C_16  and  C_18
REMARK                            x       y       z     vdW  Elec       q    Type
REMARK                         _______ _______ _______ _____ _____    ______ ____
ROOT
ATOM      1  N   UNL     1       2.793   7.385  18.910  0.00  0.00    +0.000 NA
ATOM      2  C   UNL     1       4.077   7.290  18.195  0.00  0.00    +0.000 C 
ATOM      3  C   UNL     1       4.499   5.799  18.244  0.00  0.00    +0.000 C 
ATOM      4  C   UNL     1       4.201   5.089  16.893  0.00  0.00    +0.000 C 
ATOM      5  C   UNL     1       4.030   3.557  16.942  0.00  0.00    +0.000 C 
ATOM      6  C   UNL     1       3.051   3.064  17.985  0.00  0.00    +0.000 C 
ATOM      7  S   UNL     1       3.553   3.576  19.607  0.00  0.00    +0.000 S 
ATOM      8  O   UNL     1       2.476   3.274  20.524  0.00  0.00    +0.000 OA
ATOM      9  O   UNL     1       4.893   3.058  19.833  0.00  0.00    +0.000 OA
ATOM     10  C   UNL     1       3.681   5.317  19.441  0.00  0.00    +0.000 C 
ATOM     11  C   UNL     1       2.357   6.035  19.274  0.00  0.00    +0.000 C 
ENDROOT
BRANCH   4  12
ATOM     12  C   UNL     1       5.287   5.430  15.858  0.00  0.00    +0.000 C 
ATOM     13  O   UNL     1       5.288   6.509  15.273  0.00  0.00    +0.000 OA
ATOM     14  N   UNL     1       6.243   4.458  15.646  0.00  0.00    +0.000 N 
ATOM     15  H   UNL     1       6.349   3.708  16.318  0.00  0.00    +0.000 HD
BRANCH  14  16
ATOM     16  C   UNL     1       7.290   4.622  14.650  0.00  0.00    +0.000 C 
BRANCH  16  17
ATOM     17  C   UNL     1       6.738   4.784  13.221  0.00  0.00    +0.000 C 
ATOM     18  C   UNL     1       7.800   5.291  12.241  0.00  0.00    +0.000 C 
ATOM     19  C   UNL     1       6.169   3.456  12.716  0.00  0.00    +0.000 C 
ENDBRANCH  16  17
ENDBRANCH  14  16
ENDBRANCH   4  12
BRANCH   1  20
ATOM     20  C   UNL     1       1.762   8.174  18.230  0.00  0.00    +0.000 C 
BRANCH  20  26
ATOM     21  C   UNL     1       0.187   9.443  22.834  0.00  0.00    +0.000 C 
ATOM     22  C   UNL     1       0.293   9.783  21.377  0.00  0.00    +0.000 A 
ATOM     23  C   UNL     1      -0.444  10.835  20.831  0.00  0.00    +0.000 A 
ATOM     24  C   UNL     1      -0.419  11.070  19.454  0.00  0.00    +0.000 A 
ATOM     25  C   UNL     1       0.321  10.235  18.609  0.00  0.00    +0.000 A 
ATOM     26  C   UNL     1       1.064   9.169  19.134  0.00  0.00    +0.000 A 
ATOM     27  C   UNL     1       1.060   8.969  20.526  0.00  0.00    +0.000 A 
ENDBRANCH  20  26
ENDBRANCH   1  20
TORSDOF 5
ENDMDL
MODEL 9
REMARK VINA RESULT:      -7.5      2.004      7.818
REMARK  Name = 
REMARK  8 active torsions:
REMARK  status: ('A' for Active; 'I' for Inactive)
REMARK    1  A    between atoms: C_1  and  C_2
REMARK    2  A    between atoms: C_6  and  C_7
REMARK    3  A    between atoms: C_7  and  N_8
REMARK    4  A    between atoms: C_11  and  C_12
REMARK    5  A    between atoms: N_14  and  C_15
REMARK    6  A    between atoms: C_15  and  C_16
REMARK    7  A    between atoms: C_16  and  C_17
REMARK    8  A    between atoms: C_16  and  C_18
REMARK                            x       y       z     vdW  Elec       q    Type
REMARK                         _______ _______ _______ _____ _____    ______ ____
ROOT
ATOM      1  N   UNL     1       4.101   4.284  16.739  0.00  0.00    +0.000 NA
ATOM      2  C   UNL     1       3.237   5.429  17.069  0.00  0.00    +0.000 C 
ATOM      3  C   UNL     1       2.317   4.968  18.228  0.00  0.00    +0.000 C 
ATOM      4  C   UNL     1       2.818   5.521  19.592  0.00  0.00    +0.000 C 
ATOM      5  C   UNL     1       2.389   4.741  20.853  0.00  0.00    +0.000 C 
ATOM      6  C   UNL     1       2.658   3.252  20.794  0.00  0.00    +0.000 C 
ATOM      7  S   UNL     1       1.810   2.516  19.421  0.00  0.00    +0.000 S 
ATOM      8  O   UNL     1       2.279   1.154  19.287  0.00  0.00    +0.000 OA
ATOM      9  O   UNL     1       0.393   2.806  19.577  0.00  0.00    +0.000 OA
ATOM     10  C   UNL     1       2.395   3.451  18.058  0.00  0.00    +0.000 C 
ATOM     11  C   UNL     1       3.848   3.211  17.704  0.00  0.00    +0.000 C 
ENDROOT
BRANCH   4  12
ATOM     12  C   UNL     1       2.399   6.993  19.760  0.00  0.00    +0.000 C 
ATOM     13  O   UNL     1       2.531   7.797  18.842  0.00  0.00    +0.000 OA
ATOM     14  N   UNL     1       1.872   7.333  20.988  0.00  0.00    +0.000 N 
ATOM     15  H   UNL     1       1.552   6.603  21.612  0.00  0.00    +0.000 HD
BRANCH  14  16
ATOM     16  C   UNL     1       1.495   8.701  21.304  0.00  0.00    +0.000 C 
BRANCH  16  17
ATOM     17  C   UNL     1      -0.030   8.902  21.373  0.00  0.00    +0.000 C 
ATOM     18  C   UNL     1      -0.499   9.328  22.767  0.00  0.00    +0.000 C 
ATOM     19  C   UNL     1      -0.478   9.942  20.343  0.00  0.00    +0.000 C 
ENDBRANCH  16  17
ENDBRANCH  14  16
ENDBRANCH   4  12
BRANCH   1  20
ATOM     20  C   UNL     1       5.522   4.606  16.575  0.00  0.00    +0.000 C 
BRANCH  20  26
ATOM     21  C   UNL     1       8.704   5.897  12.903  0.00  0.00    +0.000 C 
ATOM     22  C   UNL     1       7.585   5.020  13.378  0.00  0.00    +0.000 A 
ATOM     23  C   UNL     1       6.871   4.221  12.484  0.00  0.00    +0.000 A 
ATOM     24  C   UNL     1       5.761   3.493  12.922  0.00  0.00    +0.000 A 
ATOM     25  C   UNL     1       5.340   3.585  14.253  0.00  0.00    +0.000 A 
ATOM     26  C   UNL     1       6.036   4.386  15.167  0.00  0.00    +0.000 A 
ATOM     27  C   UNL     1       7.174   5.081  14.721  0.00  0.00    +0.000 A 
ENDBRANCH  20  26
ENDBRANCH   1  20
TORSDOF 5
ENDMDL
