MODEL 1
REMARK VINA RESULT:      -7.7      0.000      0.000
REMARK  Name = 
REMARK  8 active torsions:
REMARK  status: ('A' for Active; 'I' for Inactive)
REMARK    1  A    between atoms: C_1  and  C_2
REMARK    2  A    between atoms: C_5  and  C_6
REMARK    3  A    between atoms: C_6  and  CA_7
REMARK    4  A    between atoms: CA_7  and  N_8
REMARK    5  A    between atoms: CA_7  and  C_18
REMARK    6  A    between atoms: C_9  and  C_11
REMARK    7  A    between atoms: C_14  and  C_15
REMARK    8  A    between atoms: C_18  and  OXT_20
REMARK                            x       y       z     vdW  Elec       q    Type
REMARK                         _______ _______ _______ _____ _____    ______ ____
ROOT
ATOM      1  CA  UNL     1       3.212   3.679  18.353  0.00  0.00    +0.000 C 
ENDROOT
BRANCH   1   2
ATOM      2  N   UNL     1       2.609   5.009  18.298  0.00  0.00    +0.000 N 
ATOM      3  C   UNL     1       2.984   5.981  19.210  0.00  0.00    +0.000 C 
ATOM      4  O   UNL     1       3.854   5.758  20.047  0.00  0.00    +0.000 OA
ATOM      5  H   UNL     1       1.678   5.057  17.909  0.00  0.00    +0.000 HD
BRANCH   3   6
ATOM      6  C   UNL     1       2.208   7.265  19.211  0.00  0.00    +0.000 A 
ATOM      7  C   UNL     1       1.601   7.780  20.362  0.00  0.00    +0.000 A 
ATOM      8  C   UNL     1       1.048   9.065  20.355  0.00  0.00    +0.000 A 
ATOM      9  C   UNL     1       1.064   9.839  19.191  0.00  0.00    +0.000 A 
ATOM     10  C   UNL     1       0.623  11.273  19.222  0.00  0.00    +0.000 C 
ATOM     11  C   UNL     1       1.581   9.285  18.015  0.00  0.00    +0.000 A 
ATOM     12  C   UNL     1       2.149   8.007  18.024  0.00  0.00    +0.000 A 
ENDBRANCH   3   6
ENDBRANCH   1   2
BRANCH   1  13
ATOM     13  C   UNL     1       2.090   2.657  18.119  0.00  0.00    +0.000 C 
ATOM     14  O   UNL     1       0.903   2.928  17.988  0.00  0.00    +0.000 OA
BRANCH  13  15
ATOM     15  OXT UNL     1       2.537   1.371  18.158  0.00  0.00    +0.000 OA
ATOM     16  HXT UNL     1       2.500   0.991  19.068  0.00  0.00    +0.000 HD
ENDBRANCH  13  15
ENDBRANCH   1  13
BRANCH   1  17
ATOM     17  C   UNL     1       4.299   3.487  17.287  0.00  0.00    +0.000 C 
BRANCH  17  22
ATOM     18  C   UNL     1       7.863   8.059  17.572  0.00  0.00    +0.000 C 
ATOM     19  C   UNL     1       7.049   6.817  17.363  0.00  0.00    +0.000 A 
ATOM     20  C   UNL     1       6.052   6.763  16.383  0.00  0.00    +0.000 A 
ATOM     21  C   UNL     1       5.207   5.651  16.290  0.00  0.00    +0.000 A 
ATOM     22  C   UNL     1       5.352   4.570  17.169  0.00  0.00    +0.000 A 
ATOM     23  C   UNL     1       6.417   4.589  18.081  0.00  0.00    +0.000 A 
ATOM     24  C   UNL     1       7.259   5.698  18.174  0.00  0.00    +0.000 A 
ENDBRANCH  17  22
ENDBRANCH   1  17
TORSDOF 6
ENDMDL
MODEL 2
REMARK VINA RESULT:      -7.6      0.627      1.202
REMARK  Name = 
REMARK  8 active torsions:
REMARK  status: ('A' for Active; 'I' for Inactive)
REMARK    1  A    between atoms: C_1  and  C_2
REMARK    2  A    between atoms: C_5  and  C_6
REMARK    3  A    between atoms: C_6  and  CA_7
REMARK    4  A    between atoms: CA_7  and  N_8
REMARK    5  A    between atoms: CA_7  and  C_18
REMARK    6  A    between atoms: C_9  and  C_11
REMARK    7  A    between atoms: C_14  and  C_15
REMARK    8  A    between atoms: C_18  and  OXT_20
REMARK                            x       y       z     vdW  Elec       q    Type
REMARK                         _______ _______ _______ _____ _____    ______ ____
ROOT
ATOM      1  CA  UNL     1       3.180   3.934  18.570  0.00  0.00    +0.000 C 
ENDROOT
BRANCH   1   2
ATOM      2  N   UNL     1       2.930   5.375  18.538  0.00  0.00    +0.000 N 
ATOM      3  C   UNL     1       2.473   6.028  19.669  0.00  0.00    +0.000 C 
ATOM      4  O   UNL     1       2.313   5.421  20.725  0.00  0.00    +0.000 OA
ATOM      5  H   UNL     1       2.688   5.761  17.636  0.00  0.00    +0.000 HD
BRANCH   3   6
ATOM      6  C   UNL     1       2.074   7.466  19.525  0.00  0.00    +0.000 A 
ATOM      7  C   UNL     1       2.211   8.172  18.324  0.00  0.00    +0.000 A 
ATOM      8  C   UNL     1       1.657   9.449  18.188  0.00  0.00    +0.000 A 
ATOM      9  C   UNL     1       0.990  10.052  19.257  0.00  0.00    +0.000 A 
ATOM     10  C   UNL     1       0.254  11.346  19.066  0.00  0.00    +0.000 C 
ATOM     11  C   UNL     1       0.938   9.387  20.488  0.00  0.00    +0.000 A 
ATOM     12  C   UNL     1       1.478   8.104  20.621  0.00  0.00    +0.000 A 
ENDBRANCH   3   6
ENDBRANCH   1   2
BRANCH   1  13
ATOM     13  C   UNL     1       1.971   3.245  17.920  0.00  0.00    +0.000 C 
ATOM     14  O   UNL     1       1.103   3.808  17.266  0.00  0.00    +0.000 OA
BRANCH  13  15
ATOM     15  OXT UNL     1       1.902   1.918  18.219  0.00  0.00    +0.000 OA
ATOM     16  HXT UNL     1       1.669   1.762  19.165  0.00  0.00    +0.000 HD
ENDBRANCH  13  15
ENDBRANCH   1  13
BRANCH   1  17
ATOM     17  C   UNL     1       4.453   3.547  17.807  0.00  0.00    +0.000 C 
BRANCH  17  22
ATOM     18  C   UNL     1       7.909   8.207  17.661  0.00  0.00    +0.000 C 
ATOM     19  C   UNL     1       7.139   6.921  17.592  0.00  0.00    +0.000 A 
ATOM     20  C   UNL     1       6.275   6.653  16.525  0.00  0.00    +0.000 A 
ATOM     21  C   UNL     1       5.459   5.517  16.540  0.00  0.00    +0.000 A 
ATOM     22  C   UNL     1       5.502   4.623  17.618  0.00  0.00    +0.000 A 
ATOM     23  C   UNL     1       6.443   4.845  18.633  0.00  0.00    +0.000 A 
ATOM     24  C   UNL     1       7.256   5.980  18.618  0.00  0.00    +0.000 A 
ENDBRANCH  17  22
ENDBRANCH   1  17
TORSDOF 6
ENDMDL
MODEL 3
REMARK VINA RESULT:      -7.5      3.195      5.569
REMARK  Name = 
REMARK  8 active torsions:
REMARK  status: ('A' for Active; 'I' for Inactive)
REMARK    1  A    between atoms: C_1  and  C_2
REMARK    2  A    between atoms: C_5  and  C_6
REMARK    3  A    between atoms: C_6  and  CA_7
REMARK    4  A    between atoms: CA_7  and  N_8
REMARK    5  A    between atoms: CA_7  and  C_18
REMARK    6  A    between atoms: C_9  and  C_11
REMARK    7  A    between atoms: C_14  and  C_15
REMARK    8  A    between atoms: C_18  and  OXT_20
REMARK                            x       y       z     vdW  Elec       q    Type
REMARK                         _______ _______ _______ _____ _____    ______ ____
ROOT
ATOM      1  CA  UNL     1       6.582   6.213  16.827  0.00  0.00    +0.000 C 
ENDROOT
BRANCH   1   2
ATOM      2  N   UNL     1       5.816   5.436  17.802  0.00  0.00    +0.000 N 
ATOM      3  C   UNL     1       4.464   5.676  17.974  0.00  0.00    +0.000 C 
ATOM      4  O   UNL     1       3.879   6.509  17.287  0.00  0.00    +0.000 OA
ATOM      5  H   UNL     1       6.339   5.074  18.587  0.00  0.00    +0.000 HD
BRANCH   3   6
ATOM      6  C   UNL     1       3.774   4.970  19.104  0.00  0.00    +0.000 A 
ATOM      7  C   UNL     1       2.771   5.573  19.872  0.00  0.00    +0.000 A 
ATOM      8  C   UNL     1       2.033   4.818  20.789  0.00  0.00    +0.000 A 
ATOM      9  C   UNL     1       2.310   3.461  20.977  0.00  0.00    +0.000 A 
ATOM     10  C   UNL     1       1.417   2.612  21.835  0.00  0.00    +0.000 C 
ATOM     11  C   UNL     1       3.377   2.882  20.282  0.00  0.00    +0.000 A 
ATOM     12  C   UNL     1       4.106   3.632  19.353  0.00  0.00    +0.000 A 
ENDBRANCH   3   6
ENDBRANCH   1   2
BRANCH   1  13
ATOM     13  C   UNL     1       7.501   7.157  17.616  0.00  0.00    +0.000 C 
ATOM     14  O   UNL     1       7.834   8.281  17.260  0.00  0.00    +0.000 OA
BRANCH  13  15
ATOM     15  OXT UNL     1       8.000   6.580  18.744  0.00  0.00    +0.000 OA
ATOM     16  HXT UNL     1       8.827   6.072  18.568  0.00  0.00    +0.000 HD
ENDBRANCH  13  15
ENDBRANCH   1  13
BRANCH   1  17
ATOM     17  C   UNL     1       7.435   5.323  15.915  0.00  0.00    +0.000 C 
BRANCH  17  22
ATOM     18  C   UNL     1       5.270   2.582  11.280  0.00  0.00    +0.000 C 
ATOM     19  C   UNL     1       5.766   3.444  12.402  0.00  0.00    +0.000 A 
ATOM     20  C   UNL     1       6.998   4.102  12.318  0.00  0.00    +0.000 A 
ATOM     21  C   UNL     1       7.514   4.788  13.423  0.00  0.00    +0.000 A 
ATOM     22  C   UNL     1       6.800   4.839  14.628  0.00  0.00    +0.000 A 
ATOM     23  C   UNL     1       5.522   4.264  14.671  0.00  0.00    +0.000 A 
ATOM     24  C   UNL     1       5.009   3.578  13.569  0.00  0.00    +0.000 A 
ENDBRANCH  17  22
ENDBRANCH   1  17
TORSDOF 6
ENDMDL
MODEL 4
REMARK VINA RESULT:      -7.3      3.290      5.457
REMARK  Name = 
REMARK  8 active torsions:
REMARK  status: ('A' for Active; 'I' for Inactive)
REMARK    1  A    between atoms: C_1  and  C_2
REMARK    2  A    between atoms: C_5  and  C_6
REMARK    3  A    between atoms: C_6  and  CA_7
REMARK    4  A    between atoms: CA_7  and  N_8
REMARK    5  A    between atoms: CA_7  and  C_18
REMARK    6  A    between atoms: C_9  and  C_11
REMARK    7  A    between atoms: C_14  and  C_15
REMARK    8  A    between atoms: C_18  and  OXT_20
REMARK                            x       y       z     vdW  Elec       q    Type
REMARK                         _______ _______ _______ _____ _____    ______ ____
ROOT
ATOM      1  CA  UNL     1       6.445   6.356  16.519  0.00  0.00    +0.000 C 
ENDROOT
BRANCH   1   2
ATOM      2  N   UNL     1       5.427   5.623  17.271  0.00  0.00    +0.000 N 
ATOM      3  C   UNL     1       4.166   6.166  17.446  0.00  0.00    +0.000 C 
ATOM      4  O   UNL     1       3.869   7.245  16.941  0.00  0.00    +0.000 OA
ATOM      5  H   UNL     1       5.772   4.984  17.974  0.00  0.00    +0.000 HD
BRANCH   3   6
ATOM      6  C   UNL     1       3.226   5.448  18.368  0.00  0.00    +0.000 A 
ATOM      7  C   UNL     1       2.163   4.664  17.904  0.00  0.00    +0.000 A 
ATOM      8  C   UNL     1       1.429   3.870  18.791  0.00  0.00    +0.000 A 
ATOM      9  C   UNL     1       1.723   3.876  20.158  0.00  0.00    +0.000 A 
ATOM     10  C   UNL     1       1.051   2.906  21.086  0.00  0.00    +0.000 C 
ATOM     11  C   UNL     1       2.719   4.735  20.635  0.00  0.00    +0.000 A 
ATOM     12  C   UNL     1       3.464   5.517  19.747  0.00  0.00    +0.000 A 
ENDBRANCH   3   6
ENDBRANCH   1   2
BRANCH   1  13
ATOM     13  C   UNL     1       7.310   7.112  17.537  0.00  0.00    +0.000 C 
ATOM     14  O   UNL     1       7.647   8.286  17.446  0.00  0.00    +0.000 OA
BRANCH  13  15
ATOM     15  OXT UNL     1       7.756   6.310  18.544  0.00  0.00    +0.000 OA
ATOM     16  HXT UNL     1       8.638   5.914  18.341  0.00  0.00    +0.000 HD
ENDBRANCH  13  15
ENDBRANCH   1  13
BRANCH   1  17
ATOM     17  C   UNL     1       7.339   5.425  15.690  0.00  0.00    +0.000 C 
BRANCH  17  22
ATOM     18  C   UNL     1       5.348   2.361  11.180  0.00  0.00    +0.000 C 
ATOM     19  C   UNL     1       5.801   3.301  12.258  0.00  0.00    +0.000 A 
ATOM     20  C   UNL     1       7.030   3.964  12.170  0.00  0.00    +0.000 A 
ATOM     21  C   UNL     1       7.504   4.727  13.243  0.00  0.00    +0.000 A 
ATOM     22  C   UNL     1       6.750   4.850  14.418  0.00  0.00    +0.000 A 
ATOM     23  C   UNL     1       5.476   4.267  14.458  0.00  0.00    +0.000 A 
ATOM     24  C   UNL     1       5.004   3.505  13.389  0.00  0.00    +0.000 A 
ENDBRANCH  17  22
ENDBRANCH   1  17
TORSDOF 6
ENDMDL
MODEL 5
REMARK VINA RESULT:      -7.3      2.302      4.382
REMARK  Name = 
REMARK  8 active torsions:
REMARK  status: ('A' for Active; 'I' for Inactive)
REMARK    1  A    between atoms: C_1  and  C_2
REMARK    2  A    between atoms: C_5  and  C_6
REMARK    3  A    between atoms: C_6  and  CA_7
REMARK    4  A    between atoms: CA_7  and  N_8
REMARK    5  A    between atoms: CA_7  and  C_18
REMARK    6  A    between atoms: C_9  and  C_11
REMARK    7  A    between atoms: C_14  and  C_15
REMARK    8  A    between atoms: C_18  and  OXT_20
REMARK                            x       y       z     vdW  Elec       q    Type
REMARK                         _______ _______ _______ _____ _____    ______ ____
ROOT
ATOM      1  CA  UNL     1       5.998   5.696  17.870  0.00  0.00    +0.000 C 
ENDROOT
BRANCH   1   2
ATOM      2  N   UNL     1       4.782   6.266  18.450  0.00  0.00    +0.000 N 
ATOM      3  C   UNL     1       3.925   7.019  17.667  0.00  0.00    +0.000 C 
ATOM      4  O   UNL     1       4.146   7.185  16.471  0.00  0.00    +0.000 OA
ATOM      5  H   UNL     1       4.813   6.458  19.441  0.00  0.00    +0.000 HD
BRANCH   3   6
ATOM      6  C   UNL     1       2.790   7.716  18.357  0.00  0.00    +0.000 A 
ATOM      7  C   UNL     1       2.347   7.357  19.635  0.00  0.00    +0.000 A 
ATOM      8  C   UNL     1       1.412   8.151  20.308  0.00  0.00    +0.000 A 
ATOM      9  C   UNL     1       0.882   9.293  19.702  0.00  0.00    +0.000 A 
ATOM     10  C   UNL     1       0.009  10.234  20.479  0.00  0.00    +0.000 C 
ATOM     11  C   UNL     1       1.250   9.596  18.386  0.00  0.00    +0.000 A 
ATOM     12  C   UNL     1       2.196   8.813  17.717  0.00  0.00    +0.000 A 
ENDBRANCH   3   6
ENDBRANCH   1   2
BRANCH   1  13
ATOM     13  C   UNL     1       7.115   5.846  18.912  0.00  0.00    +0.000 C 
ATOM     14  O   UNL     1       7.145   5.291  20.003  0.00  0.00    +0.000 OA
BRANCH  13  15
ATOM     15  OXT UNL     1       8.062   6.752  18.538  0.00  0.00    +0.000 OA
ATOM     16  HXT UNL     1       8.891   6.664  19.066  0.00  0.00    +0.000 HD
ENDBRANCH  13  15
ENDBRANCH   1  13
BRANCH   1  17
ATOM     17  C   UNL     1       5.834   4.213  17.515  0.00  0.00    +0.000 C 
BRANCH  17  22
ATOM     18  C   UNL     1       0.608   2.504  19.373  0.00  0.00    +0.000 C 
ATOM     19  C   UNL     1       1.995   2.768  18.866  0.00  0.00    +0.000 A 
ATOM     20  C   UNL     1       3.102   2.697  19.718  0.00  0.00    +0.000 A 
ATOM     21  C   UNL     1       4.370   3.082  19.269  0.00  0.00    +0.000 A 
ATOM     22  C   UNL     1       4.555   3.532  17.955  0.00  0.00    +0.000 A 
ATOM     23  C   UNL     1       3.461   3.503  17.080  0.00  0.00    +0.000 A 
ATOM     24  C   UNL     1       2.195   3.121  17.528  0.00  0.00    +0.000 A 
ENDBRANCH  17  22
ENDBRANCH   1  17
TORSDOF 6
ENDMDL
MODEL 6
REMARK VINA RESULT:      -7.1      2.317      4.582
REMARK  Name = 
REMARK  8 active torsions:
REMARK  status: ('A' for Active; 'I' for Inactive)
REMARK    1  A    between atoms: C_1  and  C_2
REMARK    2  A    between atoms: C_5  and  C_6
REMARK    3  A    between atoms: C_6  and  CA_7
REMARK    4  A    between atoms: CA_7  and  N_8
REMARK    5  A    between atoms: CA_7  and  C_18
REMARK    6  A    between atoms: C_9  and  C_11
REMARK    7  A    between atoms: C_14  and  C_15
REMARK    8  A    between atoms: C_18  and  OXT_20
REMARK                            x       y       z     vdW  Elec       q    Type
REMARK                         _______ _______ _______ _____ _____    ______ ____
ROOT
ATOM      1  CA  UNL     1       4.169   6.144  17.193  0.00  0.00    +0.000 C 
ENDROOT
BRANCH   1   2
ATOM      2  N   UNL     1       3.349   6.680  18.279  0.00  0.00    +0.000 N 
ATOM      3  C   UNL     1       2.598   7.826  18.083  0.00  0.00    +0.000 C 
ATOM      4  O   UNL     1       2.574   8.384  16.990  0.00  0.00    +0.000 OA
ATOM      5  H   UNL     1       3.666   6.473  19.215  0.00  0.00    +0.000 HD
BRANCH   3   6
ATOM      6  C   UNL     1       1.916   8.419  19.280  0.00  0.00    +0.000 A 
ATOM      7  C   UNL     1       1.264   9.658  19.243  0.00  0.00    +0.000 A 
ATOM      8  C   UNL     1       0.490  10.082  20.327  0.00  0.00    +0.000 A 
ATOM      9  C   UNL     1       0.383   9.293  21.476  0.00  0.00    +0.000 A 
ATOM     10  C   UNL     1      -0.574   9.664  22.570  0.00  0.00    +0.000 C 
ATOM     11  C   UNL     1       1.114   8.102  21.552  0.00  0.00    +0.000 A 
ATOM     12  C   UNL     1       1.877   7.669  20.463  0.00  0.00    +0.000 A 
ENDBRANCH   3   6
ENDBRANCH   1   2
BRANCH   1  13
ATOM     13  C   UNL     1       5.639   6.371  17.576  0.00  0.00    +0.000 C 
ATOM     14  O   UNL     1       6.174   5.965  18.599  0.00  0.00    +0.000 OA
BRANCH  13  15
ATOM     15  OXT UNL     1       6.295   7.165  16.684  0.00  0.00    +0.000 OA
ATOM     16  HXT UNL     1       6.802   7.884  17.131  0.00  0.00    +0.000 HD
ENDBRANCH  13  15
ENDBRANCH   1  13
BRANCH   1  17
ATOM     17  C   UNL     1       3.931   4.646  16.967  0.00  0.00    +0.000 C 
BRANCH  17  22
ATOM     18  C   UNL     1       1.326   2.545  21.709  0.00  0.00    +0.000 C 
ATOM     19  C   UNL     1       1.997   2.917  20.420  0.00  0.00    +0.000 A 
ATOM     20  C   UNL     1       3.381   2.787  20.263  0.00  0.00    +0.000 A 
ATOM     21  C   UNL     1       4.013   3.267  19.110  0.00  0.00    +0.000 A 
ATOM     22  C   UNL     1       3.269   3.872  18.089  0.00  0.00    +0.000 A 
ATOM     23  C   UNL     1       1.873   3.906  18.210  0.00  0.00    +0.000 A 
ATOM     24  C   UNL     1       1.243   3.429  19.361  0.00  0.00    +0.000 A 
ENDBRANCH  17  22
ENDBRANCH   1  17
TORSDOF 6
ENDMDL
MODEL 7
REMARK VINA RESULT:      -7.1      1.928      5.316
REMARK  Name = 
REMARK  8 active torsions:
REMARK  status: ('A' for Active; 'I' for Inactive)
REMARK    1  A    between atoms: C_1  and  C_2
REMARK    2  A    between atoms: C_5  and  C_6
REMARK    3  A    between atoms: C_6  and  CA_7
REMARK    4  A    between atoms: CA_7  and  N_8
REMARK    5  A    between atoms: CA_7  and  C_18
REMARK    6  A    between atoms: C_9  and  C_11
REMARK    7  A    between atoms: C_14  and  C_15
REMARK    8  A    between atoms: C_18  and  OXT_20
REMARK                            x       y       z     vdW  Elec       q    Type
REMARK                         _______ _______ _______ _____ _____    ______ ____
ROOT
ATOM      1  CA  UNL     1       3.885   2.873  17.921  0.00  0.00    +0.000 C 
ENDROOT
BRANCH   1   2
ATOM      2  N   UNL     1       4.688   4.087  18.059  0.00  0.00    +0.000 N 
ATOM      3  C   UNL     1       5.627   4.413  17.097  0.00  0.00    +0.000 C 
ATOM      4  O   UNL     1       5.772   3.716  16.096  0.00  0.00    +0.000 OA
ATOM      5  H   UNL     1       4.844   4.408  19.004  0.00  0.00    +0.000 HD
BRANCH   3   6
ATOM      6  C   UNL     1       6.535   5.573  17.380  0.00  0.00    +0.000 A 
ATOM      7  C   UNL     1       6.434   6.795  16.703  0.00  0.00    +0.000 A 
ATOM      8  C   UNL     1       7.177   7.901  17.127  0.00  0.00    +0.000 A 
ATOM      9  C   UNL     1       8.055   7.795  18.209  0.00  0.00    +0.000 A 
ATOM     10  C   UNL     1       8.727   9.014  18.769  0.00  0.00    +0.000 C 
ATOM     11  C   UNL     1       8.229   6.549  18.822  0.00  0.00    +0.000 A 
ATOM     12  C   UNL     1       7.476   5.446  18.410  0.00  0.00    +0.000 A 
ENDBRANCH   3   6
ENDBRANCH   1   2
BRANCH   1  13
ATOM     13  C   UNL     1       4.310   1.913  19.043  0.00  0.00    +0.000 C 
ATOM     14  O   UNL     1       4.694   2.251  20.155  0.00  0.00    +0.000 OA
BRANCH  13  15
ATOM     15  OXT UNL     1       4.304   0.610  18.647  0.00  0.00    +0.000 OA
ATOM     16  HXT UNL     1       4.899   0.050  19.200  0.00  0.00    +0.000 HD
ENDBRANCH  13  15
ENDBRANCH   1  13
BRANCH   1  17
ATOM     17  C   UNL     1       2.381   3.152  18.038  0.00  0.00    +0.000 C 
BRANCH  17  22
ATOM     18  C   UNL     1       1.730   8.110  20.984  0.00  0.00    +0.000 C 
ATOM     19  C   UNL     1       1.719   6.837  20.190  0.00  0.00    +0.000 A 
ATOM     20  C   UNL     1       1.387   5.616  20.787  0.00  0.00    +0.000 A 
ATOM     21  C   UNL     1       1.515   4.418  20.073  0.00  0.00    +0.000 A 
ATOM     22  C   UNL     1       1.966   4.424  18.747  0.00  0.00    +0.000 A 
ATOM     23  C   UNL     1       2.198   5.659  18.126  0.00  0.00    +0.000 A 
ATOM     24  C   UNL     1       2.072   6.853  18.837  0.00  0.00    +0.000 A 
ENDBRANCH  17  22
ENDBRANCH   1  17
TORSDOF 6
ENDMDL
MODEL 8
REMARK VINA RESULT:      -7.1      1.101      1.277
REMARK  Name = 
REMARK  8 active torsions:
REMARK  status: ('A' for Active; 'I' for Inactive)
REMARK    1  A    between atoms: C_1  and  C_2
REMARK    2  A    between atoms: C_5  and  C_6
REMARK    3  A    between atoms: C_6  and  CA_7
REMARK    4  A    between atoms: CA_7  and  N_8
REMARK    5  A    between atoms: CA_7  and  C_18
REMARK    6  A    between atoms: C_9  and  C_11
REMARK    7  A    between atoms: C_14  and  C_15
REMARK    8  A    between atoms: C_18  and  OXT_20
REMARK                            x       y       z     vdW  Elec       q    Type
REMARK                         _______ _______ _______ _____ _____    ______ ____
ROOT
ATOM      1  CA  UNL     1       2.744   4.351  19.245  0.00  0.00    +0.000 C 
ENDROOT
BRANCH   1   2
ATOM      2  N   UNL     1       2.558   5.778  18.985  0.00  0.00    +0.000 N 
ATOM      3  C   UNL     1       1.974   6.589  19.943  0.00  0.00    +0.000 C 
ATOM      4  O   UNL     1       1.643   6.137  21.035  0.00  0.00    +0.000 OA
ATOM      5  H   UNL     1       2.460   6.042  18.015  0.00  0.00    +0.000 HD
BRANCH   3   6
ATOM      6  C   UNL     1       1.655   8.002  19.552  0.00  0.00    +0.000 A 
ATOM      7  C   UNL     1       1.030   8.904  20.421  0.00  0.00    +0.000 A 
ATOM      8  C   UNL     1       0.921  10.255  20.079  0.00  0.00    +0.000 A 
ATOM      9  C   UNL     1       1.402  10.718  18.851  0.00  0.00    +0.000 A 
ATOM     10  C   UNL     1       1.437  12.188  18.549  0.00  0.00    +0.000 C 
ATOM     11  C   UNL     1       1.937   9.799  17.941  0.00  0.00    +0.000 A 
ATOM     12  C   UNL     1       2.061   8.450  18.288  0.00  0.00    +0.000 A 
ENDBRANCH   3   6
ENDBRANCH   1   2
BRANCH   1  13
ATOM     13  C   UNL     1       1.433   3.644  18.870  0.00  0.00    +0.000 C 
ATOM     14  O   UNL     1       1.087   3.352  17.732  0.00  0.00    +0.000 OA
BRANCH  13  15
ATOM     15  OXT UNL     1       0.622   3.439  19.946  0.00  0.00    +0.000 OA
ATOM     16  HXT UNL     1       1.118   3.477  20.798  0.00  0.00    +0.000 HD
ENDBRANCH  13  15
ENDBRANCH   1  13
BRANCH   1  17
ATOM     17  C   UNL     1       3.893   3.754  18.423  0.00  0.00    +0.000 C 
BRANCH  17  22
ATOM     18  C   UNL     1       7.809   7.946  17.542  0.00  0.00    +0.000 C 
ATOM     19  C   UNL     1       6.892   6.763  17.650  0.00  0.00    +0.000 A 
ATOM     20  C   UNL     1       5.852   6.570  16.735  0.00  0.00    +0.000 A 
ATOM     21  C   UNL     1       4.920   5.544  16.926  0.00  0.00    +0.000 A 
ATOM     22  C   UNL     1       5.020   4.686  18.029  0.00  0.00    +0.000 A 
ATOM     23  C   UNL     1       6.123   4.823  18.884  0.00  0.00    +0.000 A 
ATOM     24  C   UNL     1       7.052   5.848  18.694  0.00  0.00    +0.000 A 
ENDBRANCH  17  22
ENDBRANCH   1  17
TORSDOF 6
ENDMDL
MODEL 9
REMARK VINA RESULT:      -7.1      3.094      5.497
REMARK  Name = 
REMARK  8 active torsions:
REMARK  status: ('A' for Active; 'I' for Inactive)
REMARK    1  A    between atoms: C_1  and  C_2
REMARK    2  A    between atoms: C_5  and  C_6
REMARK    3  A    between atoms: C_6  and  CA_7
REMARK    4  A    between atoms: CA_7  and  N_8
REMARK    5  A    between atoms: CA_7  and  C_18
REMARK    6  A    between atoms: C_9  and  C_11
REMARK    7  A    between atoms: C_14  and  C_15
REMARK    8  A    between atoms: C_18  and  OXT_20
REMARK                            x       y       z     vdW  Elec       q    Type
REMARK                         _______ _______ _______ _____ _____    ______ ____
ROOT
ATOM      1  CA  UNL     1       6.564   6.310  16.790  0.00  0.00    +0.000 C 
ENDROOT
BRANCH   1   2
ATOM      2  N   UNL     1       5.766   5.524  17.731  0.00  0.00    +0.000 N 
ATOM      3  C   UNL     1       4.456   5.881  17.999  0.00  0.00    +0.000 C 
ATOM      4  O   UNL     1       3.932   6.831  17.425  0.00  0.00    +0.000 OA
ATOM      5  H   UNL     1       6.283   5.037  18.449  0.00  0.00    +0.000 HD
BRANCH   3   6
ATOM      6  C   UNL     1       3.748   5.142  19.096  0.00  0.00    +0.000 A 
ATOM      7  C   UNL     1       2.685   5.698  19.817  0.00  0.00    +0.000 A 
ATOM      8  C   UNL     1       1.941   4.908  20.700  0.00  0.00    +0.000 A 
ATOM      9  C   UNL     1       2.269   3.564  20.900  0.00  0.00    +0.000 A 
ATOM     10  C   UNL     1       1.378   2.674  21.716  0.00  0.00    +0.000 C 
ATOM     11  C   UNL     1       3.393   3.036  20.254  0.00  0.00    +0.000 A 
ATOM     12  C   UNL     1       4.128   3.820  19.360  0.00  0.00    +0.000 A 
ENDBRANCH   3   6
ENDBRANCH   1   2
BRANCH   1  13
ATOM     13  C   UNL     1       7.427   7.274  17.618  0.00  0.00    +0.000 C 
ATOM     14  O   UNL     1       7.643   8.447  17.340  0.00  0.00    +0.000 OA
BRANCH  13  15
ATOM     15  OXT UNL     1       8.023   6.663  18.679  0.00  0.00    +0.000 OA
ATOM     16  HXT UNL     1       7.666   5.756  18.836  0.00  0.00    +0.000 HD
ENDBRANCH  13  15
ENDBRANCH   1  13
BRANCH   1  17
ATOM     17  C   UNL     1       7.476   5.432  15.924  0.00  0.00    +0.000 C 
BRANCH  17  22
ATOM     18  C   UNL     1       4.621   3.235  11.374  0.00  0.00    +0.000 C 
ATOM     19  C   UNL     1       5.414   3.632  12.584  0.00  0.00    +0.000 A 
ATOM     20  C   UNL     1       4.867   3.539  13.868  0.00  0.00    +0.000 A 
ATOM     21  C   UNL     1       5.562   4.042  14.974  0.00  0.00    +0.000 A 
ATOM     22  C   UNL     1       6.821   4.635  14.815  0.00  0.00    +0.000 A 
ATOM     23  C   UNL     1       7.405   4.632  13.541  0.00  0.00    +0.000 A 
ATOM     24  C   UNL     1       6.711   4.132  12.437  0.00  0.00    +0.000 A 
ENDBRANCH  17  22
ENDBRANCH   1  17
TORSDOF 6
ENDMDL
