MODEL 1
REMARK VINA RESULT:      -8.9      0.000      0.000
REMARK  Name = 
REMARK  8 active torsions:
REMARK  status: ('A' for Active; 'I' for Inactive)
REMARK    1  A    between atoms: C_1  and  O_2
REMARK    2  A    between atoms: O_2  and  C_3
REMARK    3  A    between atoms: C_8  and  C_9
REMARK    4  A    between atoms: N_11  and  C_12
REMARK    5  A    between atoms: C_17  and  O_18
REMARK    6  A    between atoms: O_18  and  C_19
REMARK    7  A    between atoms: C_19  and  C_20
REMARK    8  A    between atoms: C_26  and  C_27
REMARK                            x       y       z     vdW  Elec       q    Type
REMARK                         _______ _______ _______ _____ _____    ______ ____
ROOT
ATOM      1  C   UNL     1       3.049   3.671  19.102  0.00  0.00    +0.000 A 
ATOM      2  C   UNL     1       3.148   2.541  19.933  0.00  0.00    +0.000 A 
ATOM      3  C   UNL     1       2.398   2.411  21.100  0.00  0.00    +0.000 A 
ATOM      4  C   UNL     1       1.511   3.406  21.462  0.00  0.00    +0.000 A 
ATOM      5  C   UNL     1       1.396   4.542  20.664  0.00  0.00    +0.000 A 
ATOM      6  C   UNL     1       2.184   4.712  19.505  0.00  0.00    +0.000 A 
ENDROOT
BRANCH   1   9
ATOM      7  C   UNL     1       5.184   4.146  17.881  0.00  0.00    +0.000 C 
ATOM      8  O   UNL     1       5.891   4.268  18.883  0.00  0.00    +0.000 OA
ATOM      9  N   UNL     1       3.841   3.772  17.917  0.00  0.00    +0.000 N 
ATOM     10  H   UNL     1       3.397   3.501  17.045  0.00  0.00    +0.000 HD
BRANCH   7  16
ATOM     11  C   UNL     1       7.003   5.179  16.358  0.00  0.00    +0.000 A 
ATOM     12  C   UNL     1       7.521   5.308  15.054  0.00  0.00    +0.000 A 
ATOM     13  C   UNL     1       6.909   4.688  13.961  0.00  0.00    +0.000 A 
ATOM     14  C   UNL     1       5.786   3.901  14.155  0.00  0.00    +0.000 A 
ATOM     15  C   UNL     1       5.277   3.748  15.444  0.00  0.00    +0.000 A 
ATOM     16  C   UNL     1       5.864   4.386  16.563  0.00  0.00    +0.000 A 
BRANCH  11  18
ATOM     17  C   UNL     1       7.429   7.178  17.544  0.00  0.00    +0.000 C 
ATOM     18  O   UNL     1       7.595   5.766  17.447  0.00  0.00    +0.000 OA
ENDBRANCH  11  18
ENDBRANCH   7  16
ENDBRANCH   1   9
BRANCH   6  19
ATOM     19  O   UNL     1       2.130   5.867  18.745  0.00  0.00    +0.000 OA
BRANCH  19  20
ATOM     20  C   UNL     1       2.783   7.004  19.348  0.00  0.00    +0.000 C 
BRANCH  20  21
ATOM     21  C   UNL     1       1.829   8.137  19.667  0.00  0.00    +0.000 A 
ATOM     22  C   UNL     1       1.442   9.023  18.737  0.00  0.00    +0.000 A 
ATOM     23  C   UNL     1       0.568  10.146  19.119  0.00  0.00    +0.000 A 
ATOM     24  O   UNL     1       0.238  10.975  18.277  0.00  0.00    +0.000 OA
ATOM     25  N   UNL     1       0.205  10.160  20.444  0.00  0.00    +0.000 N 
ATOM     26  C   UNL     1      -0.614  11.097  21.028  0.00  0.00    +0.000 A 
ATOM     27  C   UNL     1      -0.844  10.890  22.332  0.00  0.00    +0.000 A 
ATOM     28  C   UNL     1      -1.716  11.695  23.226  0.00  0.00    +0.000 C 
ATOM     29  S   UNL     1       0.004   9.468  22.902  0.00  0.00    +0.000 S 
ATOM     30  C   UNL     1       0.654   9.177  21.297  0.00  0.00    +0.000 A 
ATOM     31  N   UNL     1       1.423   8.194  20.986  0.00  0.00    +0.000 NA
ENDBRANCH  20  21
ENDBRANCH  19  20
ENDBRANCH   6  19
TORSDOF 6
ENDMDL
MODEL 2
REMARK VINA RESULT:      -8.7      1.881      5.185
REMARK  Name = 
REMARK  8 active torsions:
REMARK  status: ('A' for Active; 'I' for Inactive)
REMARK    1  A    between atoms: C_1  and  O_2
REMARK    2  A    between atoms: O_2  and  C_3
REMARK    3  A    between atoms: C_8  and  C_9
REMARK    4  A    between atoms: N_11  and  C_12
REMARK    5  A    between atoms: C_17  and  O_18
REMARK    6  A    between atoms: O_18  and  C_19
REMARK    7  A    between atoms: C_19  and  C_20
REMARK    8  A    between atoms: C_26  and  C_27
REMARK                            x       y       z     vdW  Elec       q    Type
REMARK                         _______ _______ _______ _____ _____    ______ ____
ROOT
ATOM      1  C   UNL     1       5.333   4.239  16.591  0.00  0.00    +0.000 A 
ATOM      2  C   UNL     1       5.751   3.306  15.626  0.00  0.00    +0.000 A 
ATOM      3  C   UNL     1       6.373   3.693  14.440  0.00  0.00    +0.000 A 
ATOM      4  C   UNL     1       6.610   5.031  14.193  0.00  0.00    +0.000 A 
ATOM      5  C   UNL     1       6.201   5.982  15.127  0.00  0.00    +0.000 A 
ATOM      6  C   UNL     1       5.526   5.610  16.310  0.00  0.00    +0.000 A 
ENDROOT
BRANCH   1   9
ATOM      7  C   UNL     1       3.355   3.419  17.890  0.00  0.00    +0.000 C 
ATOM      8  O   UNL     1       2.616   3.245  16.920  0.00  0.00    +0.000 OA
ATOM      9  N   UNL     1       4.692   3.804  17.791  0.00  0.00    +0.000 N 
ATOM     10  H   UNL     1       5.274   3.727  18.620  0.00  0.00    +0.000 HD
BRANCH   7  16
ATOM     11  C   UNL     1       3.411   2.599  20.344  0.00  0.00    +0.000 A 
ATOM     12  C   UNL     1       2.697   2.402  21.542  0.00  0.00    +0.000 A 
ATOM     13  C   UNL     1       1.338   2.715  21.641  0.00  0.00    +0.000 A 
ATOM     14  C   UNL     1       0.675   3.260  20.554  0.00  0.00    +0.000 A 
ATOM     15  C   UNL     1       1.377   3.480  19.369  0.00  0.00    +0.000 A 
ATOM     16  C   UNL     1       2.747   3.148  19.237  0.00  0.00    +0.000 A 
BRANCH  11  18
ATOM     17  C   UNL     1       5.187   1.155  20.932  0.00  0.00    +0.000 C 
ATOM     18  O   UNL     1       4.747   2.314  20.229  0.00  0.00    +0.000 OA
ENDBRANCH  11  18
ENDBRANCH   7  16
ENDBRANCH   1   9
BRANCH   6  19
ATOM     19  O   UNL     1       5.052   6.549  17.209  0.00  0.00    +0.000 OA
BRANCH  19  20
ATOM     20  C   UNL     1       3.852   7.226  16.781  0.00  0.00    +0.000 C 
BRANCH  20  21
ATOM     21  C   UNL     1       2.986   7.689  17.935  0.00  0.00    +0.000 A 
ATOM     22  C   UNL     1       2.745   6.910  19.000  0.00  0.00    +0.000 A 
ATOM     23  C   UNL     1       1.840   7.384  20.061  0.00  0.00    +0.000 A 
ATOM     24  O   UNL     1       1.593   6.660  21.020  0.00  0.00    +0.000 OA
ATOM     25  N   UNL     1       1.330   8.643  19.854  0.00  0.00    +0.000 N 
ATOM     26  C   UNL     1       0.480   9.301  20.710  0.00  0.00    +0.000 A 
ATOM     27  C   UNL     1       0.134  10.530  20.305  0.00  0.00    +0.000 A 
ATOM     28  C   UNL     1      -0.729  11.502  21.027  0.00  0.00    +0.000 C 
ATOM     29  S   UNL     1       0.875  10.917  18.766  0.00  0.00    +0.000 S 
ATOM     30  C   UNL     1       1.673   9.354  18.726  0.00  0.00    +0.000 A 
ATOM     31  N   UNL     1       2.454   8.955  17.784  0.00  0.00    +0.000 NA
ENDBRANCH  20  21
ENDBRANCH  19  20
ENDBRANCH   6  19
TORSDOF 6
ENDMDL
MODEL 3
REMARK VINA RESULT:      -8.5      1.453      1.744
REMARK  Name = 
REMARK  8 active torsions:
REMARK  status: ('A' for Active; 'I' for Inactive)
REMARK    1  A    between atoms: C_1  and  O_2
REMARK    2  A    between atoms: O_2  and  C_3
REMARK    3  A    between atoms: C_8  and  C_9
REMARK    4  A    between atoms: N_11  and  C_12
REMARK    5  A    between atoms: C_17  and  O_18
REMARK    6  A    between atoms: O_18  and  C_19
REMARK    7  A    between atoms: C_19  and  C_20
REMARK    8  A    between atoms: C_26  and  C_27
REMARK                            x       y       z     vdW  Elec       q    Type
REMARK                         _______ _______ _______ _____ _____    ______ ____
ROOT
ATOM      1  C   UNL     1       3.105   3.604  19.239  0.00  0.00    +0.000 A 
ATOM      2  C   UNL     1       3.297   2.511  20.102  0.00  0.00    +0.000 A 
ATOM      3  C   UNL     1       2.568   2.359  21.280  0.00  0.00    +0.000 A 
ATOM      4  C   UNL     1       1.609   3.293  21.620  0.00  0.00    +0.000 A 
ATOM      5  C   UNL     1       1.400   4.392  20.790  0.00  0.00    +0.000 A 
ATOM      6  C   UNL     1       2.164   4.587  19.618  0.00  0.00    +0.000 A 
ENDROOT
BRANCH   1   9
ATOM      7  C   UNL     1       5.203   4.160  17.989  0.00  0.00    +0.000 C 
ATOM      8  O   UNL     1       5.916   4.319  18.981  0.00  0.00    +0.000 OA
ATOM      9  N   UNL     1       3.878   3.730  18.043  0.00  0.00    +0.000 N 
ATOM     10  H   UNL     1       3.436   3.434  17.178  0.00  0.00    +0.000 HD
BRANCH   7  16
ATOM     11  C   UNL     1       7.025   5.167  16.452  0.00  0.00    +0.000 A 
ATOM     12  C   UNL     1       7.513   5.322  15.139  0.00  0.00    +0.000 A 
ATOM     13  C   UNL     1       6.843   4.771  14.043  0.00  0.00    +0.000 A 
ATOM     14  C   UNL     1       5.691   4.029  14.241  0.00  0.00    +0.000 A 
ATOM     15  C   UNL     1       5.211   3.850  15.537  0.00  0.00    +0.000 A 
ATOM     16  C   UNL     1       5.857   4.419  16.661  0.00  0.00    +0.000 A 
BRANCH  11  18
ATOM     17  C   UNL     1       7.606   7.103  17.677  0.00  0.00    +0.000 C 
ATOM     18  O   UNL     1       7.673   5.686  17.544  0.00  0.00    +0.000 OA
ENDBRANCH  11  18
ENDBRANCH   7  16
ENDBRANCH   1   9
BRANCH   6  19
ATOM     19  O   UNL     1       2.015   5.710  18.824  0.00  0.00    +0.000 OA
BRANCH  19  20
ATOM     20  C   UNL     1       2.756   6.860  19.281  0.00  0.00    +0.000 C 
BRANCH  20  21
ATOM     21  C   UNL     1       1.872   7.943  19.867  0.00  0.00    +0.000 A 
ATOM     22  C   UNL     1       1.490   7.928  21.153  0.00  0.00    +0.000 A 
ATOM     23  C   UNL     1       0.573   8.967  21.654  0.00  0.00    +0.000 A 
ATOM     24  O   UNL     1       0.197   8.938  22.821  0.00  0.00    +0.000 OA
ATOM     25  N   UNL     1       0.204   9.900  20.714  0.00  0.00    +0.000 N 
ATOM     26  C   UNL     1      -0.628  10.970  20.949  0.00  0.00    +0.000 A 
ATOM     27  C   UNL     1      -0.825  11.757  19.883  0.00  0.00    +0.000 A 
ATOM     28  C   UNL     1      -1.629  13.006  19.829  0.00  0.00    +0.000 C 
ATOM     29  S   UNL     1       0.044  11.155  18.487  0.00  0.00    +0.000 S 
ATOM     30  C   UNL     1       0.684   9.818  19.427  0.00  0.00    +0.000 A 
ATOM     31  N   UNL     1       1.477   8.915  18.969  0.00  0.00    +0.000 NA
ENDBRANCH  20  21
ENDBRANCH  19  20
ENDBRANCH   6  19
TORSDOF 6
ENDMDL
MODEL 4
REMARK VINA RESULT:      -8.4      2.051      2.889
REMARK  Name = 
REMARK  8 active torsions:
REMARK  status: ('A' for Active; 'I' for Inactive)
REMARK    1  A    between atoms: C_1  and  O_2
REMARK    2  A    between atoms: O_2  and  C_3
REMARK    3  A    between atoms: C_8  and  C_9
REMARK    4  A    between atoms: N_11  and  C_12
REMARK    5  A    between atoms: C_17  and  O_18
REMARK    6  A    between atoms: O_18  and  C_19
REMARK    7  A    between atoms: C_19  and  C_20
REMARK    8  A    between atoms: C_26  and  C_27
REMARK                            x       y       z     vdW  Elec       q    Type
REMARK                         _______ _______ _______ _____ _____    ______ ____
ROOT
ATOM      1  C   UNL     1       2.703   4.214  18.839  0.00  0.00    +0.000 A 
ATOM      2  C   UNL     1       2.485   2.968  18.227  0.00  0.00    +0.000 A 
ATOM      3  C   UNL     1       1.424   2.139  18.588  0.00  0.00    +0.000 A 
ATOM      4  C   UNL     1       0.537   2.545  19.565  0.00  0.00    +0.000 A 
ATOM      5  C   UNL     1       0.730   3.771  20.197  0.00  0.00    +0.000 A 
ATOM      6  C   UNL     1       1.828   4.601  19.878  0.00  0.00    +0.000 A 
ENDROOT
BRANCH   1   9
ATOM      7  C   UNL     1       5.138   4.798  18.790  0.00  0.00    +0.000 C 
ATOM      8  O   UNL     1       5.538   3.764  19.327  0.00  0.00    +0.000 OA
ATOM      9  N   UNL     1       3.807   5.032  18.447  0.00  0.00    +0.000 N 
ATOM     10  H   UNL     1       3.603   5.814  17.832  0.00  0.00    +0.000 HD
BRANCH   7  16
ATOM     11  C   UNL     1       6.166   6.713  17.385  0.00  0.00    +0.000 A 
ATOM     12  C   UNL     1       7.236   7.614  17.216  0.00  0.00    +0.000 A 
ATOM     13  C   UNL     1       8.330   7.617  18.085  0.00  0.00    +0.000 A 
ATOM     14  C   UNL     1       8.361   6.742  19.158  0.00  0.00    +0.000 A 
ATOM     15  C   UNL     1       7.298   5.860  19.348  0.00  0.00    +0.000 A 
ATOM     16  C   UNL     1       6.190   5.821  18.467  0.00  0.00    +0.000 A 
BRANCH  11  18
ATOM     17  C   UNL     1       5.252   6.003  15.324  0.00  0.00    +0.000 C 
ATOM     18  O   UNL     1       5.075   6.702  16.554  0.00  0.00    +0.000 OA
ENDBRANCH  11  18
ENDBRANCH   7  16
ENDBRANCH   1   9
BRANCH   6  19
ATOM     19  O   UNL     1       2.069   5.787  20.548  0.00  0.00    +0.000 OA
BRANCH  19  20
ATOM     20  C   UNL     1       2.141   6.946  19.692  0.00  0.00    +0.000 C 
BRANCH  20  21
ATOM     21  C   UNL     1       1.567   8.194  20.333  0.00  0.00    +0.000 A 
ATOM     22  C   UNL     1       1.402   8.300  21.660  0.00  0.00    +0.000 A 
ATOM     23  C   UNL     1       0.775   9.508  22.223  0.00  0.00    +0.000 A 
ATOM     24  O   UNL     1       0.594   9.594  23.433  0.00  0.00    +0.000 OA
ATOM     25  N   UNL     1       0.426  10.456  21.291  0.00  0.00    +0.000 N 
ATOM     26  C   UNL     1      -0.157  11.668  21.577  0.00  0.00    +0.000 A 
ATOM     27  C   UNL     1      -0.384  12.435  20.503  0.00  0.00    +0.000 A 
ATOM     28  C   UNL     1      -0.956  13.807  20.488  0.00  0.00    +0.000 C 
ATOM     29  S   UNL     1       0.127  11.631  19.034  0.00  0.00    +0.000 S 
ATOM     30  C   UNL     1       0.669  10.236  19.953  0.00  0.00    +0.000 A 
ATOM     31  N   UNL     1       1.207   9.186  19.441  0.00  0.00    +0.000 NA
ENDBRANCH  20  21
ENDBRANCH  19  20
ENDBRANCH   6  19
TORSDOF 6
ENDMDL
MODEL 5
REMARK VINA RESULT:      -8.3      1.466      1.697
REMARK  Name = 
REMARK  8 active torsions:
REMARK  status: ('A' for Active; 'I' for Inactive)
REMARK    1  A    between atoms: C_1  and  O_2
REMARK    2  A    between atoms: O_2  and  C_3
REMARK    3  A    between atoms: C_8  and  C_9
REMARK    4  A    between atoms: N_11  and  C_12
REMARK    5  A    between atoms: C_17  and  O_18
REMARK    6  A    between atoms: O_18  and  C_19
REMARK    7  A    between atoms: C_19  and  C_20
REMARK    8  A    between atoms: C_26  and  C_27
REMARK                            x       y       z     vdW  Elec       q    Type
REMARK                         _______ _______ _______ _____ _____    ______ ____
ROOT
ATOM      1  C   UNL     1       3.387   3.662  19.884  0.00  0.00    +0.000 A 
ATOM      2  C   UNL     1       3.560   2.420  20.517  0.00  0.00    +0.000 A 
ATOM      3  C   UNL     1       2.677   1.953  21.490  0.00  0.00    +0.000 A 
ATOM      4  C   UNL     1       1.581   2.715  21.846  0.00  0.00    +0.000 A 
ATOM      5  C   UNL     1       1.386   3.956  21.242  0.00  0.00    +0.000 A 
ATOM      6  C   UNL     1       2.297   4.464  20.291  0.00  0.00    +0.000 A 
ENDROOT
BRANCH   1   9
ATOM      7  C   UNL     1       4.190   3.904  17.524  0.00  0.00    +0.000 C 
ATOM      8  O   UNL     1       3.173   3.460  16.987  0.00  0.00    +0.000 OA
ATOM      9  N   UNL     1       4.318   4.110  18.897  0.00  0.00    +0.000 N 
ATOM     10  H   UNL     1       5.104   4.662  19.226  0.00  0.00    +0.000 HD
BRANCH   7  16
ATOM     11  C   UNL     1       6.631   4.570  16.984  0.00  0.00    +0.000 A 
ATOM     12  C   UNL     1       7.577   4.897  15.992  0.00  0.00    +0.000 A 
ATOM     13  C   UNL     1       7.226   4.951  14.640  0.00  0.00    +0.000 A 
ATOM     14  C   UNL     1       5.931   4.651  14.251  0.00  0.00    +0.000 A 
ATOM     15  C   UNL     1       4.992   4.305  15.221  0.00  0.00    +0.000 A 
ATOM     16  C   UNL     1       5.316   4.267  16.599  0.00  0.00    +0.000 A 
BRANCH  11  18
ATOM     17  C   UNL     1       7.581   5.656  18.856  0.00  0.00    +0.000 C 
ATOM     18  O   UNL     1       6.956   4.495  18.314  0.00  0.00    +0.000 OA
ENDBRANCH  11  18
ENDBRANCH   7  16
ENDBRANCH   1   9
BRANCH   6  19
ATOM     19  O   UNL     1       2.152   5.724  19.738  0.00  0.00    +0.000 OA
BRANCH  19  20
ATOM     20  C   UNL     1       1.883   6.765  20.700  0.00  0.00    +0.000 C 
BRANCH  20  21
ATOM     21  C   UNL     1       1.549   8.097  20.058  0.00  0.00    +0.000 A 
ATOM     22  C   UNL     1       2.027   8.444  18.854  0.00  0.00    +0.000 A 
ATOM     23  C   UNL     1       1.728   9.779  18.307  0.00  0.00    +0.000 A 
ATOM     24  O   UNL     1       2.191  10.112  17.221  0.00  0.00    +0.000 OA
ATOM     25  N   UNL     1       0.934  10.559  19.114  0.00  0.00    +0.000 N 
ATOM     26  C   UNL     1       0.510  11.831  18.810  0.00  0.00    +0.000 A 
ATOM     27  C   UNL     1      -0.276  12.385  19.743  0.00  0.00    +0.000 A 
ATOM     28  C   UNL     1      -0.926  13.721  19.688  0.00  0.00    +0.000 C 
ATOM     29  S   UNL     1      -0.509  11.299  21.097  0.00  0.00    +0.000 S 
ATOM     30  C   UNL     1       0.486  10.077  20.323  0.00  0.00    +0.000 A 
ATOM     31  N   UNL     1       0.744   8.919  20.821  0.00  0.00    +0.000 NA
ENDBRANCH  20  21
ENDBRANCH  19  20
ENDBRANCH   6  19
TORSDOF 6
ENDMDL
MODEL 6
REMARK VINA RESULT:      -8.0      2.072      3.119
REMARK  Name = 
REMARK  8 active torsions:
REMARK  status: ('A' for Active; 'I' for Inactive)
REMARK    1  A    between atoms: C_1  and  O_2
REMARK    2  A    between atoms: O_2  and  C_3
REMARK    3  A    between atoms: C_8  and  C_9
REMARK    4  A    between atoms: N_11  and  C_12
REMARK    5  A    between atoms: C_17  and  O_18
REMARK    6  A    between atoms: O_18  and  C_19
REMARK    7  A    between atoms: C_19  and  C_20
REMARK    8  A    between atoms: C_26  and  C_27
REMARK                            x       y       z     vdW  Elec       q    Type
REMARK                         _______ _______ _______ _____ _____    ______ ____
ROOT
ATOM      1  C   UNL     1       2.735   4.239  18.719  0.00  0.00    +0.000 A 
ATOM      2  C   UNL     1       2.476   2.995  18.118  0.00  0.00    +0.000 A 
ATOM      3  C   UNL     1       1.420   2.180  18.524  0.00  0.00    +0.000 A 
ATOM      4  C   UNL     1       0.580   2.598  19.537  0.00  0.00    +0.000 A 
ATOM      5  C   UNL     1       0.815   3.823  20.159  0.00  0.00    +0.000 A 
ATOM      6  C   UNL     1       1.909   4.638  19.793  0.00  0.00    +0.000 A 
ENDROOT
BRANCH   1   9
ATOM      7  C   UNL     1       5.161   4.861  18.664  0.00  0.00    +0.000 C 
ATOM      8  O   UNL     1       5.568   3.881  19.291  0.00  0.00    +0.000 OA
ATOM      9  N   UNL     1       3.832   5.042  18.281  0.00  0.00    +0.000 N 
ATOM     10  H   UNL     1       3.626   5.767  17.600  0.00  0.00    +0.000 HD
BRANCH   7  16
ATOM     11  C   UNL     1       6.206   6.640  17.102  0.00  0.00    +0.000 A 
ATOM     12  C   UNL     1       7.261   7.548  16.882  0.00  0.00    +0.000 A 
ATOM     13  C   UNL     1       8.312   7.680  17.794  0.00  0.00    +0.000 A 
ATOM     14  C   UNL     1       8.313   6.929  18.957  0.00  0.00    +0.000 A 
ATOM     15  C   UNL     1       7.264   6.043  19.197  0.00  0.00    +0.000 A 
ATOM     16  C   UNL     1       6.201   5.873  18.277  0.00  0.00    +0.000 A 
BRANCH  11  18
ATOM     17  C   UNL     1       5.416   5.695  15.085  0.00  0.00    +0.000 C 
ATOM     18  O   UNL     1       5.157   6.504  16.229  0.00  0.00    +0.000 OA
ENDBRANCH  11  18
ENDBRANCH   7  16
ENDBRANCH   1   9
BRANCH   6  19
ATOM     19  O   UNL     1       2.193   5.821  20.451  0.00  0.00    +0.000 OA
BRANCH  19  20
ATOM     20  C   UNL     1       1.056   6.423  21.105  0.00  0.00    +0.000 C 
BRANCH  20  21
ATOM     21  C   UNL     1       1.036   7.934  20.991  0.00  0.00    +0.000 A 
ATOM     22  C   UNL     1       0.607   8.716  21.993  0.00  0.00    +0.000 A 
ATOM     23  C   UNL     1       0.542  10.175  21.803  0.00  0.00    +0.000 A 
ATOM     24  O   UNL     1       0.120  10.890  22.706  0.00  0.00    +0.000 OA
ATOM     25  N   UNL     1       0.968  10.608  20.570  0.00  0.00    +0.000 N 
ATOM     26  C   UNL     1       1.015  11.922  20.168  0.00  0.00    +0.000 A 
ATOM     27  C   UNL     1       1.489  12.100  18.928  0.00  0.00    +0.000 A 
ATOM     28  C   UNL     1       1.703  13.394  18.228  0.00  0.00    +0.000 C 
ATOM     29  S   UNL     1       1.894  10.568  18.182  0.00  0.00    +0.000 S 
ATOM     30  C   UNL     1       1.408   9.703  19.631  0.00  0.00    +0.000 A 
ATOM     31  N   UNL     1       1.464   8.426  19.774  0.00  0.00    +0.000 NA
ENDBRANCH  20  21
ENDBRANCH  19  20
ENDBRANCH   6  19
TORSDOF 6
ENDMDL
MODEL 7
REMARK VINA RESULT:      -8.0      1.680      1.948
REMARK  Name = 
REMARK  8 active torsions:
REMARK  status: ('A' for Active; 'I' for Inactive)
REMARK    1  A    between atoms: C_1  and  O_2
REMARK    2  A    between atoms: O_2  and  C_3
REMARK    3  A    between atoms: C_8  and  C_9
REMARK    4  A    between atoms: N_11  and  C_12
REMARK    5  A    between atoms: C_17  and  O_18
REMARK    6  A    between atoms: O_18  and  C_19
REMARK    7  A    between atoms: C_19  and  C_20
REMARK    8  A    between atoms: C_26  and  C_27
REMARK                            x       y       z     vdW  Elec       q    Type
REMARK                         _______ _______ _______ _____ _____    ______ ____
ROOT
ATOM      1  C   UNL     1       2.782   4.057  18.582  0.00  0.00    +0.000 A 
ATOM      2  C   UNL     1       2.280   2.804  18.976  0.00  0.00    +0.000 A 
ATOM      3  C   UNL     1       1.453   2.653  20.087  0.00  0.00    +0.000 A 
ATOM      4  C   UNL     1       1.089   3.760  20.829  0.00  0.00    +0.000 A 
ATOM      5  C   UNL     1       1.577   5.014  20.469  0.00  0.00    +0.000 A 
ATOM      6  C   UNL     1       2.455   5.178  19.376  0.00  0.00    +0.000 A 
ENDROOT
BRANCH   1   9
ATOM      7  C   UNL     1       5.028   4.115  17.474  0.00  0.00    +0.000 C 
ATOM      8  O   UNL     1       5.680   3.791  18.468  0.00  0.00    +0.000 OA
ATOM      9  N   UNL     1       3.635   4.171  17.441  0.00  0.00    +0.000 N 
ATOM     10  H   UNL     1       3.181   4.248  16.535  0.00  0.00    +0.000 HD
BRANCH   7  16
ATOM     11  C   UNL     1       7.029   5.138  16.190  0.00  0.00    +0.000 A 
ATOM     12  C   UNL     1       7.654   5.346  14.945  0.00  0.00    +0.000 A 
ATOM     13  C   UNL     1       7.087   4.878  13.757  0.00  0.00    +0.000 A 
ATOM     14  C   UNL     1       5.899   4.167  13.794  0.00  0.00    +0.000 A 
ATOM     15  C   UNL     1       5.281   3.936  15.022  0.00  0.00    +0.000 A 
ATOM     16  C   UNL     1       5.824   4.421  16.237  0.00  0.00    +0.000 A 
BRANCH  11  18
ATOM     17  C   UNL     1       7.461   6.975  17.614  0.00  0.00    +0.000 C 
ATOM     18  O   UNL     1       7.575   5.575  17.370  0.00  0.00    +0.000 OA
ENDBRANCH  11  18
ENDBRANCH   7  16
ENDBRANCH   1   9
BRANCH   6  19
ATOM     19  O   UNL     1       3.002   6.408  19.053  0.00  0.00    +0.000 OA
BRANCH  19  20
ATOM     20  C   UNL     1       2.089   7.304  18.386  0.00  0.00    +0.000 C 
BRANCH  20  21
ATOM     21  C   UNL     1       1.695   8.493  19.238  0.00  0.00    +0.000 A 
ATOM     22  C   UNL     1       1.506   8.387  20.562  0.00  0.00    +0.000 A 
ATOM     23  C   UNL     1       1.055   9.559  21.332  0.00  0.00    +0.000 A 
ATOM     24  O   UNL     1       0.851   9.456  22.537  0.00  0.00    +0.000 OA
ATOM     25  N   UNL     1       0.887  10.700  20.584  0.00  0.00    +0.000 N 
ATOM     26  C   UNL     1       0.491  11.919  21.082  0.00  0.00    +0.000 A 
ATOM     27  C   UNL     1       0.419  12.891  20.164  0.00  0.00    +0.000 A 
ATOM     28  C   UNL     1       0.067  14.316  20.394  0.00  0.00    +0.000 C 
ATOM     29  S   UNL     1       0.847  12.289  18.576  0.00  0.00    +0.000 S 
ATOM     30  C   UNL     1       1.136  10.686  19.230  0.00  0.00    +0.000 A 
ATOM     31  N   UNL     1       1.522   9.672  18.539  0.00  0.00    +0.000 NA
ENDBRANCH  20  21
ENDBRANCH  19  20
ENDBRANCH   6  19
TORSDOF 6
ENDMDL
MODEL 8
REMARK VINA RESULT:      -7.9      6.624     10.688
REMARK  Name = 
REMARK  8 active torsions:
REMARK  status: ('A' for Active; 'I' for Inactive)
REMARK    1  A    between atoms: C_1  and  O_2
REMARK    2  A    between atoms: O_2  and  C_3
REMARK    3  A    between atoms: C_8  and  C_9
REMARK    4  A    between atoms: N_11  and  C_12
REMARK    5  A    between atoms: C_17  and  O_18
REMARK    6  A    between atoms: O_18  and  C_19
REMARK    7  A    between atoms: C_19  and  C_20
REMARK    8  A    between atoms: C_26  and  C_27
REMARK                            x       y       z     vdW  Elec       q    Type
REMARK                         _______ _______ _______ _____ _____    ______ ____
ROOT
ATOM      1  C   UNL     1      10.364  11.989  20.263  0.00  0.00    +0.000 A 
ATOM      2  C   UNL     1      11.503  12.809  20.200  0.00  0.00    +0.000 A 
ATOM      3  C   UNL     1      12.288  12.901  19.052  0.00  0.00    +0.000 A 
ATOM      4  C   UNL     1      11.943  12.184  17.923  0.00  0.00    +0.000 A 
ATOM      5  C   UNL     1      10.823  11.355  17.956  0.00  0.00    +0.000 A 
ATOM      6  C   UNL     1      10.045  11.212  19.126  0.00  0.00    +0.000 A 
ENDROOT
BRANCH   1   9
ATOM      7  C   UNL     1       8.726  12.909  21.920  0.00  0.00    +0.000 C 
ATOM      8  O   UNL     1       8.403  13.897  21.259  0.00  0.00    +0.000 OA
ATOM      9  N   UNL     1       9.588  11.914  21.461  0.00  0.00    +0.000 N 
ATOM     10  H   UNL     1       9.638  11.046  21.986  0.00  0.00    +0.000 HD
BRANCH   7  16
ATOM     11  C   UNL     1       8.322  13.654  24.365  0.00  0.00    +0.000 A 
ATOM     12  C   UNL     1       7.656  13.408  25.582  0.00  0.00    +0.000 A 
ATOM     13  C   UNL     1       6.802  12.312  25.738  0.00  0.00    +0.000 A 
ATOM     14  C   UNL     1       6.574  11.460  24.671  0.00  0.00    +0.000 A 
ATOM     15  C   UNL     1       7.210  11.705  23.455  0.00  0.00    +0.000 A 
ATOM     16  C   UNL     1       8.098  12.794  23.280  0.00  0.00    +0.000 A 
BRANCH  11  18
ATOM     17  C   UNL     1       9.233  15.630  25.288  0.00  0.00    +0.000 C 
ATOM     18  O   UNL     1       9.152  14.731  24.185  0.00  0.00    +0.000 OA
ENDBRANCH  11  18
ENDBRANCH   7  16
ENDBRANCH   1   9
BRANCH   6  19
ATOM     19  O   UNL     1       8.974  10.339  19.193  0.00  0.00    +0.000 OA
BRANCH  19  20
ATOM     20  C   UNL     1       8.601   9.763  17.923  0.00  0.00    +0.000 C 
BRANCH  20  21
ATOM     21  C   UNL     1       7.985   8.385  18.054  0.00  0.00    +0.000 A 
ATOM     22  C   UNL     1       8.455   7.477  18.922  0.00  0.00    +0.000 A 
ATOM     23  C   UNL     1       7.863   6.128  18.958  0.00  0.00    +0.000 A 
ATOM     24  O   UNL     1       8.312   5.285  19.729  0.00  0.00    +0.000 OA
ATOM     25  N   UNL     1       6.829   5.936  18.074  0.00  0.00    +0.000 N 
ATOM     26  C   UNL     1       6.113   4.770  17.937  0.00  0.00    +0.000 A 
ATOM     27  C   UNL     1       5.136   4.830  17.023  0.00  0.00    +0.000 A 
ATOM     28  C   UNL     1       4.166   3.757  16.678  0.00  0.00    +0.000 C 
ATOM     29  S   UNL     1       5.083   6.404  16.258  0.00  0.00    +0.000 S 
ATOM     30  C   UNL     1       6.424   6.960  17.246  0.00  0.00    +0.000 A 
ATOM     31  N   UNL     1       6.932   8.140  17.193  0.00  0.00    +0.000 NA
ENDBRANCH  20  21
ENDBRANCH  19  20
ENDBRANCH   6  19
TORSDOF 6
ENDMDL
MODEL 9
REMARK VINA RESULT:      -7.9      1.137      1.194
REMARK  Name = 
REMARK  8 active torsions:
REMARK  status: ('A' for Active; 'I' for Inactive)
REMARK    1  A    between atoms: C_1  and  O_2
REMARK    2  A    between atoms: O_2  and  C_3
REMARK    3  A    between atoms: C_8  and  C_9
REMARK    4  A    between atoms: N_11  and  C_12
REMARK    5  A    between atoms: C_17  and  O_18
REMARK    6  A    between atoms: O_18  and  C_19
REMARK    7  A    between atoms: C_19  and  C_20
REMARK    8  A    between atoms: C_26  and  C_27
REMARK                            x       y       z     vdW  Elec       q    Type
REMARK                         _______ _______ _______ _____ _____    ______ ____
ROOT
ATOM      1  C   UNL     1       2.861   4.590  18.635  0.00  0.00    +0.000 A 
ATOM      2  C   UNL     1       2.383   3.295  18.899  0.00  0.00    +0.000 A 
ATOM      3  C   UNL     1       1.520   3.024  19.960  0.00  0.00    +0.000 A 
ATOM      4  C   UNL     1       1.096   4.052  20.780  0.00  0.00    +0.000 A 
ATOM      5  C   UNL     1       1.559   5.346  20.549  0.00  0.00    +0.000 A 
ATOM      6  C   UNL     1       2.471   5.628  19.509  0.00  0.00    +0.000 A 
ENDROOT
BRANCH   1   9
ATOM      7  C   UNL     1       4.512   3.848  16.903  0.00  0.00    +0.000 C 
ATOM      8  O   UNL     1       4.375   2.638  17.093  0.00  0.00    +0.000 OA
ATOM      9  N   UNL     1       3.751   4.826  17.542  0.00  0.00    +0.000 N 
ATOM     10  H   UNL     1       3.790   5.774  17.179  0.00  0.00    +0.000 HD
BRANCH   7  16
ATOM     11  C   UNL     1       6.650   5.069  16.110  0.00  0.00    +0.000 A 
ATOM     12  C   UNL     1       7.527   5.348  15.044  0.00  0.00    +0.000 A 
ATOM     13  C   UNL     1       7.300   4.841  13.761  0.00  0.00    +0.000 A 
ATOM     14  C   UNL     1       6.210   4.020  13.528  0.00  0.00    +0.000 A 
ATOM     15  C   UNL     1       5.347   3.719  14.581  0.00  0.00    +0.000 A 
ATOM     16  C   UNL     1       5.542   4.241  15.882  0.00  0.00    +0.000 A 
BRANCH  11  18
ATOM     17  C   UNL     1       7.312   6.894  17.460  0.00  0.00    +0.000 C 
ATOM     18  O   UNL     1       6.862   5.544  17.380  0.00  0.00    +0.000 OA
ENDBRANCH  11  18
ENDBRANCH   7  16
ENDBRANCH   1   9
BRANCH   6  19
ATOM     19  O   UNL     1       2.992   6.896  19.316  0.00  0.00    +0.000 OA
BRANCH  19  20
ATOM     20  C   UNL     1       2.295   7.677  18.323  0.00  0.00    +0.000 C 
BRANCH  20  21
ATOM     21  C   UNL     1       1.704   8.956  18.881  0.00  0.00    +0.000 A 
ATOM     22  C   UNL     1       1.816  10.129  18.239  0.00  0.00    +0.000 A 
ATOM     23  C   UNL     1       1.283  11.354  18.860  0.00  0.00    +0.000 A 
ATOM     24  O   UNL     1       1.412  12.432  18.291  0.00  0.00    +0.000 OA
ATOM     25  N   UNL     1       0.678  11.157  20.079  0.00  0.00    +0.000 N 
ATOM     26  C   UNL     1       0.095  12.144  20.838  0.00  0.00    +0.000 A 
ATOM     27  C   UNL     1      -0.451  11.706  21.981  0.00  0.00    +0.000 A 
ATOM     28  C   UNL     1      -1.189  12.514  22.987  0.00  0.00    +0.000 C 
ATOM     29  S   UNL     1      -0.232   9.979  22.163  0.00  0.00    +0.000 S 
ATOM     30  C   UNL     1       0.607   9.895  20.623  0.00  0.00    +0.000 A 
ATOM     31  N   UNL     1       1.073   8.815  20.102  0.00  0.00    +0.000 NA
ENDBRANCH  20  21
ENDBRANCH  19  20
ENDBRANCH   6  19
TORSDOF 6
ENDMDL
