MODEL 1
REMARK VINA RESULT:      -8.0      0.000      0.000
REMARK  Name = 
REMARK  10 active torsions:
REMARK  status: ('A' for Active; 'I' for Inactive)
REMARK    1  A    between atoms: C_1  and  O_2
REMARK    2  A    between atoms: O_2  and  C_3
REMARK    3  A    between atoms: C_6  and  C_7
REMARK    4  A    between atoms: C_7  and  O_9
REMARK    5  A    between atoms: O_9  and  C_10
REMARK    6  A    between atoms: C_10  and  C_11
REMARK    7  A    between atoms: C_11  and  O_12
REMARK    8  A    between atoms: O_12  and  C_13
REMARK    9  A    between atoms: C_21  and  S_22
REMARK   10  A    between atoms: S_22  and  N_25
REMARK                            x       y       z     vdW  Elec       q    Type
REMARK                         _______ _______ _______ _____ _____    ______ ____
ROOT
ATOM      1  C   UNL     1       2.819   4.425  20.120  0.00  0.00    +0.000 A 
ATOM      2  C   UNL     1       1.854   5.177  20.824  0.00  0.00    +0.000 A 
ATOM      3  C   UNL     1       1.523   6.482  20.478  0.00  0.00    +0.000 A 
ATOM      4  C   UNL     1       2.181   7.101  19.419  0.00  0.00    +0.000 A 
ATOM      5  C   UNL     1       3.147   6.378  18.700  0.00  0.00    +0.000 A 
ATOM      6  C   UNL     1       3.449   5.030  19.018  0.00  0.00    +0.000 A 
ENDROOT
BRANCH   6   7
ATOM      7  S   UNL     1       4.638   4.158  18.015  0.00  0.00    +0.000 S 
ATOM      8  O   UNL     1       5.857   4.111  18.796  0.00  0.00    +0.000 OA
ATOM      9  O   UNL     1       4.009   2.962  17.499  0.00  0.00    +0.000 OA
BRANCH   7  10
ATOM     10  N   UNL     1       4.976   5.105  16.644  0.00  0.00    +0.000 NA
ATOM     11  C   UNL     1       5.242   4.398  15.351  0.00  0.00    +0.000 C 
ATOM     12  C   UNL     1       6.725   4.195  15.032  0.00  0.00    +0.000 C 
ATOM     13  O   UNL     1       7.482   5.396  15.182  0.00  0.00    +0.000 OA
ATOM     14  C   UNL     1       7.391   5.874  16.525  0.00  0.00    +0.000 C 
ATOM     15  C   UNL     1       5.949   6.229  16.889  0.00  0.00    +0.000 C 
ENDBRANCH   7  10
ENDBRANCH   6   7
BRANCH   1  17
ATOM     16  C   UNL     1       2.008   2.668  21.643  0.00  0.00    +0.000 C 
ATOM     17  O   UNL     1       2.926   3.207  20.716  0.00  0.00    +0.000 OA
ENDBRANCH   1  17
BRANCH   4  18
ATOM     18  C   UNL     1       1.900   8.552  19.221  0.00  0.00    +0.000 C 
ATOM     19  O   UNL     1       2.095   9.144  18.173  0.00  0.00    +0.000 OA
BRANCH  18  20
ATOM     20  O   UNL     1       1.153   9.004  20.260  0.00  0.00    +0.000 OA
BRANCH  20  21
ATOM     21  C   UNL     1       0.674  10.350  20.071  0.00  0.00    +0.000 C 
BRANCH  21  22
ATOM     22  C   UNL     1      -0.840  10.253  19.882  0.00  0.00    +0.000 C 
BRANCH  22  23
ATOM     23  O   UNL     1      -1.397  11.474  19.414  0.00  0.00    +0.000 OA
BRANCH  23  24
ATOM     24  C   UNL     1      -2.330  11.341  18.409  0.00  0.00    +0.000 A 
ATOM     25  C   UNL     1      -3.614  11.772  18.750  0.00  0.00    +0.000 A 
ATOM     26  C   UNL     1      -4.657  11.688  17.822  0.00  0.00    +0.000 A 
ATOM     27  C   UNL     1      -4.419  11.169  16.550  0.00  0.00    +0.000 A 
ATOM     28  C   UNL     1      -3.137  10.743  16.211  0.00  0.00    +0.000 A 
ATOM     29 CL   UNL     1      -2.838  10.103  14.641  0.00  0.00    +0.000 Cl
ATOM     30  C   UNL     1      -2.091  10.829  17.132  0.00  0.00    +0.000 A 
ENDBRANCH  23  24
ENDBRANCH  22  23
ENDBRANCH  21  22
ENDBRANCH  20  21
ENDBRANCH  18  20
ENDBRANCH   4  18
TORSDOF 9
ENDMDL
MODEL 2
REMARK VINA RESULT:      -7.7      1.294      1.664
REMARK  Name = 
REMARK  10 active torsions:
REMARK  status: ('A' for Active; 'I' for Inactive)
REMARK    1  A    between atoms: C_1  and  O_2
REMARK    2  A    between atoms: O_2  and  C_3
REMARK    3  A    between atoms: C_6  and  C_7
REMARK    4  A    between atoms: C_7  and  O_9
REMARK    5  A    between atoms: O_9  and  C_10
REMARK    6  A    between atoms: C_10  and  C_11
REMARK    7  A    between atoms: C_11  and  O_12
REMARK    8  A    between atoms: O_12  and  C_13
REMARK    9  A    between atoms: C_21  and  S_22
REMARK   10  A    between atoms: S_22  and  N_25
REMARK                            x       y       z     vdW  Elec       q    Type
REMARK                         _______ _______ _______ _____ _____    ______ ____
ROOT
ATOM      1  C   UNL     1       2.628   4.181  20.210  0.00  0.00    +0.000 A 
ATOM      2  C   UNL     1       1.566   4.797  20.906  0.00  0.00    +0.000 A 
ATOM      3  C   UNL     1       1.255   6.143  20.758  0.00  0.00    +0.000 A 
ATOM      4  C   UNL     1       2.028   6.940  19.919  0.00  0.00    +0.000 A 
ATOM      5  C   UNL     1       3.093   6.356  19.214  0.00  0.00    +0.000 A 
ATOM      6  C   UNL     1       3.380   4.972  19.323  0.00  0.00    +0.000 A 
ENDROOT
BRANCH   6   7
ATOM      7  S   UNL     1       4.705   4.291  18.343  0.00  0.00    +0.000 S 
ATOM      8  O   UNL     1       5.872   4.286  19.201  0.00  0.00    +0.000 OA
ATOM      9  O   UNL     1       4.222   3.091  17.695  0.00  0.00    +0.000 OA
BRANCH   7  10
ATOM     10  N   UNL     1       5.040   5.373  17.075  0.00  0.00    +0.000 NA
ATOM     11  C   UNL     1       5.370   4.798  15.731  0.00  0.00    +0.000 C 
ATOM     12  C   UNL     1       6.867   4.683  15.441  0.00  0.00    +0.000 C 
ATOM     13  O   UNL     1       7.570   5.894  15.721  0.00  0.00    +0.000 OA
ATOM     14  C   UNL     1       7.423   6.242  17.099  0.00  0.00    +0.000 C 
ATOM     15  C   UNL     1       5.958   6.506  17.449  0.00  0.00    +0.000 C 
ENDBRANCH   7  10
ENDBRANCH   6   7
BRANCH   1  17
ATOM     16  C   UNL     1       2.008   2.316  21.694  0.00  0.00    +0.000 C 
ATOM     17  O   UNL     1       2.685   2.876  20.589  0.00  0.00    +0.000 OA
ENDBRANCH   1  17
BRANCH   4  18
ATOM     18  C   UNL     1       1.744   8.404  19.948  0.00  0.00    +0.000 C 
ATOM     19  O   UNL     1       1.695   9.065  20.972  0.00  0.00    +0.000 OA
BRANCH  18  20
ATOM     20  O   UNL     1       1.839   8.899  18.688  0.00  0.00    +0.000 OA
BRANCH  20  21
ATOM     21  C   UNL     1       1.368  10.256  18.574  0.00  0.00    +0.000 C 
BRANCH  21  22
ATOM     22  C   UNL     1      -0.153  10.204  18.716  0.00  0.00    +0.000 C 
BRANCH  22  23
ATOM     23  O   UNL     1      -0.789   9.843  17.499  0.00  0.00    +0.000 OA
BRANCH  23  24
ATOM     24  C   UNL     1      -2.057  10.354  17.330  0.00  0.00    +0.000 A 
ATOM     25  C   UNL     1      -2.619  10.109  16.075  0.00  0.00    +0.000 A 
ATOM     26  C   UNL     1      -3.901  10.579  15.770  0.00  0.00    +0.000 A 
ATOM     27  C   UNL     1      -4.624  11.298  16.720  0.00  0.00    +0.000 A 
ATOM     28  C   UNL     1      -4.063  11.538  17.972  0.00  0.00    +0.000 A 
ATOM     29 CL   UNL     1      -4.953  12.425  19.150  0.00  0.00    +0.000 Cl
ATOM     30  C   UNL     1      -2.786  11.068  18.284  0.00  0.00    +0.000 A 
ENDBRANCH  23  24
ENDBRANCH  22  23
ENDBRANCH  21  22
ENDBRANCH  20  21
ENDBRANCH  18  20
ENDBRANCH   4  18
TORSDOF 9
ENDMDL
MODEL 3
REMARK VINA RESULT:      -7.7      4.789      8.662
REMARK  Name = 
REMARK  10 active torsions:
REMARK  status: ('A' for Active; 'I' for Inactive)
REMARK    1  A    between atoms: C_1  and  O_2
REMARK    2  A    between atoms: O_2  and  C_3
REMARK    3  A    between atoms: C_6  and  C_7
REMARK    4  A    between atoms: C_7  and  O_9
REMARK    5  A    between atoms: O_9  and  C_10
REMARK    6  A    between atoms: C_10  and  C_11
REMARK    7  A    between atoms: C_11  and  O_12
REMARK    8  A    between atoms: O_12  and  C_13
REMARK    9  A    between atoms: C_21  and  S_22
REMARK   10  A    between atoms: S_22  and  N_25
REMARK                            x       y       z     vdW  Elec       q    Type
REMARK                         _______ _______ _______ _____ _____    ______ ____
ROOT
ATOM      1  C   UNL     1       3.053   6.979  18.121  0.00  0.00    +0.000 A 
ATOM      2  C   UNL     1       4.031   7.411  17.200  0.00  0.00    +0.000 A 
ATOM      3  C   UNL     1       5.322   6.895  17.182  0.00  0.00    +0.000 A 
ATOM      4  C   UNL     1       5.694   5.938  18.121  0.00  0.00    +0.000 A 
ATOM      5  C   UNL     1       4.742   5.489  19.052  0.00  0.00    +0.000 A 
ATOM      6  C   UNL     1       3.410   5.975  19.039  0.00  0.00    +0.000 A 
ENDROOT
BRANCH   6   7
ATOM      7  S   UNL     1       2.242   5.307  20.209  0.00  0.00    +0.000 S 
ATOM      8  O   UNL     1       3.023   4.532  21.151  0.00  0.00    +0.000 OA
ATOM      9  O   UNL     1       1.360   6.372  20.632  0.00  0.00    +0.000 OA
BRANCH   7  10
ATOM     10  N   UNL     1       1.240   4.205  19.388  0.00  0.00    +0.000 NA
ATOM     11  C   UNL     1       1.054   2.844  19.988  0.00  0.00    +0.000 C 
ATOM     12  C   UNL     1       1.972   1.765  19.410  0.00  0.00    +0.000 C 
ATOM     13  O   UNL     1       1.965   1.754  17.982  0.00  0.00    +0.000 OA
ATOM     14  C   UNL     1       2.409   3.015  17.476  0.00  0.00    +0.000 C 
ATOM     15  C   UNL     1       1.468   4.143  17.901  0.00  0.00    +0.000 C 
ENDBRANCH   7  10
ENDBRANCH   6   7
BRANCH   1  17
ATOM     16  C   UNL     1       1.790   9.089  17.999  0.00  0.00    +0.000 C 
ATOM     17  O   UNL     1       1.913   7.687  17.895  0.00  0.00    +0.000 OA
ENDBRANCH   1  17
BRANCH   4  18
ATOM     18  C   UNL     1       7.137   5.565  18.151  0.00  0.00    +0.000 C 
ATOM     19  O   UNL     1       7.543   4.448  18.426  0.00  0.00    +0.000 OA
BRANCH  18  20
ATOM     20  O   UNL     1       7.861   6.549  17.561  0.00  0.00    +0.000 OA
BRANCH  20  21
ATOM     21  C   UNL     1       8.359   7.525  18.497  0.00  0.00    +0.000 C 
BRANCH  21  22
ATOM     22  C   UNL     1       8.359   8.869  17.768  0.00  0.00    +0.000 C 
BRANCH  22  23
ATOM     23  O   UNL     1       8.152   9.957  18.658  0.00  0.00    +0.000 OA
BRANCH  23  24
ATOM     24  C   UNL     1       9.255  10.754  18.871  0.00  0.00    +0.000 A 
ATOM     25  C   UNL     1       9.588  10.937  20.215  0.00  0.00    +0.000 A 
ATOM     26  C   UNL     1      10.685  11.729  20.570  0.00  0.00    +0.000 A 
ATOM     27  C   UNL     1      11.450  12.344  19.581  0.00  0.00    +0.000 A 
ATOM     28  C   UNL     1      11.118  12.158  18.241  0.00  0.00    +0.000 A 
ATOM     29 CL   UNL     1      12.063  12.914  17.015  0.00  0.00    +0.000 Cl
ATOM     30  C   UNL     1      10.028  11.364  17.880  0.00  0.00    +0.000 A 
ENDBRANCH  23  24
ENDBRANCH  22  23
ENDBRANCH  21  22
ENDBRANCH  20  21
ENDBRANCH  18  20
ENDBRANCH   4  18
TORSDOF 9
ENDMDL
MODEL 4
REMARK VINA RESULT:      -7.7      0.774      1.013
REMARK  Name = 
REMARK  10 active torsions:
REMARK  status: ('A' for Active; 'I' for Inactive)
REMARK    1  A    between atoms: C_1  and  O_2
REMARK    2  A    between atoms: O_2  and  C_3
REMARK    3  A    between atoms: C_6  and  C_7
REMARK    4  A    between atoms: C_7  and  O_9
REMARK    5  A    between atoms: O_9  and  C_10
REMARK    6  A    between atoms: C_10  and  C_11
REMARK    7  A    between atoms: C_11  and  O_12
REMARK    8  A    between atoms: O_12  and  C_13
REMARK    9  A    between atoms: C_21  and  S_22
REMARK   10  A    between atoms: S_22  and  N_25
REMARK                            x       y       z     vdW  Elec       q    Type
REMARK                         _______ _______ _______ _____ _____    ______ ____
ROOT
ATOM      1  C   UNL     1       2.757   4.120  20.203  0.00  0.00    +0.000 A 
ATOM      2  C   UNL     1       1.707   4.708  20.939  0.00  0.00    +0.000 A 
ATOM      3  C   UNL     1       1.348   6.043  20.798  0.00  0.00    +0.000 A 
ATOM      4  C   UNL     1       2.062   6.859  19.925  0.00  0.00    +0.000 A 
ATOM      5  C   UNL     1       3.114   6.303  19.179  0.00  0.00    +0.000 A 
ATOM      6  C   UNL     1       3.448   4.929  19.282  0.00  0.00    +0.000 A 
ENDROOT
BRANCH   6   7
ATOM      7  S   UNL     1       4.751   4.283  18.251  0.00  0.00    +0.000 S 
ATOM      8  O   UNL     1       5.944   4.280  19.074  0.00  0.00    +0.000 OA
ATOM      9  O   UNL     1       4.265   3.089  17.596  0.00  0.00    +0.000 OA
BRANCH   7  10
ATOM     10  N   UNL     1       5.034   5.392  16.993  0.00  0.00    +0.000 NA
ATOM     11  C   UNL     1       5.399   4.847  15.646  0.00  0.00    +0.000 C 
ATOM     12  C   UNL     1       6.902   4.813  15.361  0.00  0.00    +0.000 C 
ATOM     13  O   UNL     1       7.539   6.056  15.655  0.00  0.00    +0.000 OA
ATOM     14  C   UNL     1       7.369   6.385  17.035  0.00  0.00    +0.000 C 
ATOM     15  C   UNL     1       5.890   6.569  17.381  0.00  0.00    +0.000 C 
ENDBRANCH   7  10
ENDBRANCH   6   7
BRANCH   1  17
ATOM     16  C   UNL     1       2.208   2.232  21.684  0.00  0.00    +0.000 C 
ATOM     17  O   UNL     1       2.869   2.820  20.583  0.00  0.00    +0.000 OA
ENDBRANCH   1  17
BRANCH   4  18
ATOM     18  C   UNL     1       1.734   8.313  19.960  0.00  0.00    +0.000 C 
ATOM     19  O   UNL     1       1.525   8.937  20.987  0.00  0.00    +0.000 OA
BRANCH  18  20
ATOM     20  O   UNL     1       1.990   8.854  18.742  0.00  0.00    +0.000 OA
BRANCH  20  21
ATOM     21  C   UNL     1       0.803   9.052  17.949  0.00  0.00    +0.000 C 
BRANCH  21  22
ATOM     22  C   UNL     1       0.348  10.491  18.194  0.00  0.00    +0.000 C 
BRANCH  22  23
ATOM     23  O   UNL     1      -0.917  10.546  18.838  0.00  0.00    +0.000 OA
BRANCH  23  24
ATOM     24  C   UNL     1      -1.993  10.717  17.996  0.00  0.00    +0.000 A 
ATOM     25  C   UNL     1      -3.119  11.283  18.599  0.00  0.00    +0.000 A 
ATOM     26  C   UNL     1      -4.282  11.506  17.856  0.00  0.00    +0.000 A 
ATOM     27  C   UNL     1      -4.325  11.160  16.506  0.00  0.00    +0.000 A 
ATOM     28  C   UNL     1      -3.200  10.599  15.905  0.00  0.00    +0.000 A 
ATOM     29 CL   UNL     1      -3.247  10.172  14.238  0.00  0.00    +0.000 Cl
ATOM     30  C   UNL     1      -2.034  10.379  16.641  0.00  0.00    +0.000 A 
ENDBRANCH  23  24
ENDBRANCH  22  23
ENDBRANCH  21  22
ENDBRANCH  20  21
ENDBRANCH  18  20
ENDBRANCH   4  18
TORSDOF 9
ENDMDL
MODEL 5
REMARK VINA RESULT:      -7.5      1.393      1.657
REMARK  Name = 
REMARK  10 active torsions:
REMARK  status: ('A' for Active; 'I' for Inactive)
REMARK    1  A    between atoms: C_1  and  O_2
REMARK    2  A    between atoms: O_2  and  C_3
REMARK    3  A    between atoms: C_6  and  C_7
REMARK    4  A    between atoms: C_7  and  O_9
REMARK    5  A    between atoms: O_9  and  C_10
REMARK    6  A    between atoms: C_10  and  C_11
REMARK    7  A    between atoms: C_11  and  O_12
REMARK    8  A    between atoms: O_12  and  C_13
REMARK    9  A    between atoms: C_21  and  S_22
REMARK   10  A    between atoms: S_22  and  N_25
REMARK                            x       y       z     vdW  Elec       q    Type
REMARK                         _______ _______ _______ _____ _____    ______ ____
ROOT
ATOM      1  C   UNL     1       2.511   5.128  20.246  0.00  0.00    +0.000 A 
ATOM      2  C   UNL     1       1.616   6.055  20.821  0.00  0.00    +0.000 A 
ATOM      3  C   UNL     1       1.346   7.292  20.247  0.00  0.00    +0.000 A 
ATOM      4  C   UNL     1       2.001   7.665  19.077  0.00  0.00    +0.000 A 
ATOM      5  C   UNL     1       2.900   6.764  18.481  0.00  0.00    +0.000 A 
ATOM      6  C   UNL     1       3.136   5.481  19.035  0.00  0.00    +0.000 A 
ENDROOT
BRANCH   6   7
ATOM      7  S   UNL     1       4.239   4.369  18.184  0.00  0.00    +0.000 S 
ATOM      8  O   UNL     1       5.078   3.780  19.207  0.00  0.00    +0.000 OA
ATOM      9  O   UNL     1       3.458   3.562  17.272  0.00  0.00    +0.000 OA
BRANCH   7  10
ATOM     10  N   UNL     1       5.263   5.292  17.189  0.00  0.00    +0.000 NA
ATOM     11  C   UNL     1       5.405   4.883  15.755  0.00  0.00    +0.000 C 
ATOM     12  C   UNL     1       6.629   4.014  15.460  0.00  0.00    +0.000 C 
ATOM     13  O   UNL     1       7.828   4.562  16.008  0.00  0.00    +0.000 OA
ATOM     14  C   UNL     1       7.714   4.680  17.428  0.00  0.00    +0.000 C 
ATOM     15  C   UNL     1       6.588   5.641  17.813  0.00  0.00    +0.000 C 
ENDBRANCH   7  10
ENDBRANCH   6   7
BRANCH   1  17
ATOM     16  C   UNL     1       1.533   3.096  21.232  0.00  0.00    +0.000 C 
ATOM     17  O   UNL     1       2.571   4.036  21.053  0.00  0.00    +0.000 OA
ENDBRANCH   1  17
BRANCH   4  18
ATOM     18  C   UNL     1       1.795   9.070  18.621  0.00  0.00    +0.000 C 
ATOM     19  O   UNL     1       2.246   9.518  17.580  0.00  0.00    +0.000 OA
BRANCH  18  20
ATOM     20  O   UNL     1       0.824   9.642  19.376  0.00  0.00    +0.000 OA
BRANCH  20  21
ATOM     21  C   UNL     1       1.068  11.035  19.654  0.00  0.00    +0.000 C 
BRANCH  21  22
ATOM     22  C   UNL     1       0.185  11.833  18.694  0.00  0.00    +0.000 C 
BRANCH  22  23
ATOM     23  O   UNL     1      -0.998  12.303  19.324  0.00  0.00    +0.000 OA
BRANCH  23  24
ATOM     24  C   UNL     1      -2.174  11.907  18.726  0.00  0.00    +0.000 A 
ATOM     25  C   UNL     1      -2.021  11.352  17.453  0.00  0.00    +0.000 A 
ATOM     26  C   UNL     1      -3.136  10.913  16.734  0.00  0.00    +0.000 A 
ATOM     27  C   UNL     1      -4.412  11.032  17.285  0.00  0.00    +0.000 A 
ATOM     28  C   UNL     1      -4.563  11.582  18.555  0.00  0.00    +0.000 A 
ATOM     29 CL   UNL     1      -6.136  11.728  19.240  0.00  0.00    +0.000 Cl
ATOM     30  C   UNL     1      -3.452  12.017  19.280  0.00  0.00    +0.000 A 
ENDBRANCH  23  24
ENDBRANCH  22  23
ENDBRANCH  21  22
ENDBRANCH  20  21
ENDBRANCH  18  20
ENDBRANCH   4  18
TORSDOF 9
ENDMDL
MODEL 6
REMARK VINA RESULT:      -7.5      3.001      3.608
REMARK  Name = 
REMARK  10 active torsions:
REMARK  status: ('A' for Active; 'I' for Inactive)
REMARK    1  A    between atoms: C_1  and  O_2
REMARK    2  A    between atoms: O_2  and  C_3
REMARK    3  A    between atoms: C_6  and  C_7
REMARK    4  A    between atoms: C_7  and  O_9
REMARK    5  A    between atoms: O_9  and  C_10
REMARK    6  A    between atoms: C_10  and  C_11
REMARK    7  A    between atoms: C_11  and  O_12
REMARK    8  A    between atoms: O_12  and  C_13
REMARK    9  A    between atoms: C_21  and  S_22
REMARK   10  A    between atoms: S_22  and  N_25
REMARK                            x       y       z     vdW  Elec       q    Type
REMARK                         _______ _______ _______ _____ _____    ______ ____
ROOT
ATOM      1  C   UNL     1       2.563   4.545  20.276  0.00  0.00    +0.000 A 
ATOM      2  C   UNL     1       1.636   5.373  20.944  0.00  0.00    +0.000 A 
ATOM      3  C   UNL     1       1.383   6.683  20.553  0.00  0.00    +0.000 A 
ATOM      4  C   UNL     1       2.086   7.229  19.482  0.00  0.00    +0.000 A 
ATOM      5  C   UNL     1       3.016   6.430  18.798  0.00  0.00    +0.000 A 
ATOM      6  C   UNL     1       3.238   5.078  19.162  0.00  0.00    +0.000 A 
ENDROOT
BRANCH   6   7
ATOM      7  S   UNL     1       4.385   4.108  18.202  0.00  0.00    +0.000 S 
ATOM      8  O   UNL     1       5.284   3.495  19.158  0.00  0.00    +0.000 OA
ATOM      9  O   UNL     1       3.632   3.328  17.244  0.00  0.00    +0.000 OA
BRANCH   7  10
ATOM     10  N   UNL     1       5.325   5.170  17.264  0.00  0.00    +0.000 NA
ATOM     11  C   UNL     1       5.378   4.940  15.784  0.00  0.00    +0.000 C 
ATOM     12  C   UNL     1       6.594   4.144  15.308  0.00  0.00    +0.000 C 
ATOM     13  O   UNL     1       7.818   4.651  15.841  0.00  0.00    +0.000 OA
ATOM     14  C   UNL     1       7.797   4.593  17.269  0.00  0.00    +0.000 C 
ATOM     15  C   UNL     1       6.683   5.473  17.840  0.00  0.00    +0.000 C 
ENDBRANCH   7  10
ENDBRANCH   6   7
BRANCH   1  17
ATOM     16  C   UNL     1       1.521   2.768  21.624  0.00  0.00    +0.000 C 
ATOM     17  O   UNL     1       2.595   3.343  20.910  0.00  0.00    +0.000 OA
ENDBRANCH   1  17
BRANCH   4  18
ATOM     18  C   UNL     1       1.889   8.686  19.236  0.00  0.00    +0.000 C 
ATOM     19  O   UNL     1       2.068   9.222  18.154  0.00  0.00    +0.000 OA
BRANCH  18  20
ATOM     20  O   UNL     1       1.228   9.229  20.289  0.00  0.00    +0.000 OA
BRANCH  20  21
ATOM     21  C   UNL     1       0.743  10.561  20.030  0.00  0.00    +0.000 C 
BRANCH  21  22
ATOM     22  C   UNL     1      -0.209  10.910  21.174  0.00  0.00    +0.000 C 
BRANCH  22  23
ATOM     23  O   UNL     1       0.205  12.075  21.874  0.00  0.00    +0.000 OA
BRANCH  23  24
ATOM     24  C   UNL     1      -0.798  12.737  22.547  0.00  0.00    +0.000 A 
ATOM     25  C   UNL     1      -0.602  14.115  22.672  0.00  0.00    +0.000 A 
ATOM     26  C   UNL     1      -1.543  14.905  23.338  0.00  0.00    +0.000 A 
ATOM     27  C   UNL     1      -2.683  14.319  23.887  0.00  0.00    +0.000 A 
ATOM     28  C   UNL     1      -2.878  12.946  23.759  0.00  0.00    +0.000 A 
ATOM     29 CL   UNL     1      -4.286  12.218  24.433  0.00  0.00    +0.000 Cl
ATOM     30  C   UNL     1      -1.945  12.152  23.090  0.00  0.00    +0.000 A 
ENDBRANCH  23  24
ENDBRANCH  22  23
ENDBRANCH  21  22
ENDBRANCH  20  21
ENDBRANCH  18  20
ENDBRANCH   4  18
TORSDOF 9
ENDMDL
MODEL 7
REMARK VINA RESULT:      -7.3      2.955      3.713
REMARK  Name = 
REMARK  10 active torsions:
REMARK  status: ('A' for Active; 'I' for Inactive)
REMARK    1  A    between atoms: C_1  and  O_2
REMARK    2  A    between atoms: O_2  and  C_3
REMARK    3  A    between atoms: C_6  and  C_7
REMARK    4  A    between atoms: C_7  and  O_9
REMARK    5  A    between atoms: O_9  and  C_10
REMARK    6  A    between atoms: C_10  and  C_11
REMARK    7  A    between atoms: C_11  and  O_12
REMARK    8  A    between atoms: O_12  and  C_13
REMARK    9  A    between atoms: C_21  and  S_22
REMARK   10  A    between atoms: S_22  and  N_25
REMARK                            x       y       z     vdW  Elec       q    Type
REMARK                         _______ _______ _______ _____ _____    ______ ____
ROOT
ATOM      1  C   UNL     1       2.509   5.076  20.291  0.00  0.00    +0.000 A 
ATOM      2  C   UNL     1       1.623   6.011  20.868  0.00  0.00    +0.000 A 
ATOM      3  C   UNL     1       1.365   7.251  20.296  0.00  0.00    +0.000 A 
ATOM      4  C   UNL     1       2.022   7.619  19.125  0.00  0.00    +0.000 A 
ATOM      5  C   UNL     1       2.911   6.711  18.528  0.00  0.00    +0.000 A 
ATOM      6  C   UNL     1       3.136   5.425  19.081  0.00  0.00    +0.000 A 
ENDROOT
BRANCH   6   7
ATOM      7  S   UNL     1       4.227   4.303  18.227  0.00  0.00    +0.000 S 
ATOM      8  O   UNL     1       5.082   3.728  19.245  0.00  0.00    +0.000 OA
ATOM      9  O   UNL     1       3.434   3.484  17.336  0.00  0.00    +0.000 OA
BRANCH   7  10
ATOM     10  N   UNL     1       5.236   5.215  17.206  0.00  0.00    +0.000 NA
ATOM     11  C   UNL     1       5.357   4.787  15.775  0.00  0.00    +0.000 C 
ATOM     12  C   UNL     1       6.578   3.916  15.474  0.00  0.00    +0.000 C 
ATOM     13  O   UNL     1       7.785   4.473  15.998  0.00  0.00    +0.000 OA
ATOM     14  C   UNL     1       7.691   4.609  17.417  0.00  0.00    +0.000 C 
ATOM     15  C   UNL     1       6.569   5.573  17.807  0.00  0.00    +0.000 C 
ENDBRANCH   7  10
ENDBRANCH   6   7
BRANCH   1  17
ATOM     16  C   UNL     1       1.708   2.860  21.004  0.00  0.00    +0.000 C 
ATOM     17  O   UNL     1       2.559   3.983  21.097  0.00  0.00    +0.000 OA
ENDBRANCH   1  17
BRANCH   4  18
ATOM     18  C   UNL     1       1.828   9.026  18.672  0.00  0.00    +0.000 C 
ATOM     19  O   UNL     1       2.066   9.412  17.539  0.00  0.00    +0.000 OA
BRANCH  18  20
ATOM     20  O   UNL     1       1.102   9.695  19.602  0.00  0.00    +0.000 OA
BRANCH  20  21
ATOM     21  C   UNL     1      -0.079  10.319  19.059  0.00  0.00    +0.000 C 
BRANCH  21  22
ATOM     22  C   UNL     1      -0.043  11.781  19.502  0.00  0.00    +0.000 C 
BRANCH  22  23
ATOM     23  O   UNL     1       0.053  12.670  18.397  0.00  0.00    +0.000 OA
BRANCH  23  24
ATOM     24  C   UNL     1       1.017  13.646  18.516  0.00  0.00    +0.000 A 
ATOM     25  C   UNL     1       2.320  13.211  18.262  0.00  0.00    +0.000 A 
ATOM     26  C   UNL     1       3.394  14.101  18.354  0.00  0.00    +0.000 A 
ATOM     27  C   UNL     1       3.168  15.432  18.704  0.00  0.00    +0.000 A 
ATOM     28  C   UNL     1       1.868  15.865  18.953  0.00  0.00    +0.000 A 
ATOM     29 CL   UNL     1       1.585  17.509  19.383  0.00  0.00    +0.000 Cl
ATOM     30  C   UNL     1       0.791  14.982  18.858  0.00  0.00    +0.000 A 
ENDBRANCH  23  24
ENDBRANCH  22  23
ENDBRANCH  21  22
ENDBRANCH  20  21
ENDBRANCH  18  20
ENDBRANCH   4  18
TORSDOF 9
ENDMDL
MODEL 8
REMARK VINA RESULT:      -7.2      1.311      1.598
REMARK  Name = 
REMARK  10 active torsions:
REMARK  status: ('A' for Active; 'I' for Inactive)
REMARK    1  A    between atoms: C_1  and  O_2
REMARK    2  A    between atoms: O_2  and  C_3
REMARK    3  A    between atoms: C_6  and  C_7
REMARK    4  A    between atoms: C_7  and  O_9
REMARK    5  A    between atoms: O_9  and  C_10
REMARK    6  A    between atoms: C_10  and  C_11
REMARK    7  A    between atoms: C_11  and  O_12
REMARK    8  A    between atoms: O_12  and  C_13
REMARK    9  A    between atoms: C_21  and  S_22
REMARK   10  A    between atoms: S_22  and  N_25
REMARK                            x       y       z     vdW  Elec       q    Type
REMARK                         _______ _______ _______ _____ _____    ______ ____
ROOT
ATOM      1  C   UNL     1       2.674   5.417  19.973  0.00  0.00    +0.000 A 
ATOM      2  C   UNL     1       1.852   6.335  20.661  0.00  0.00    +0.000 A 
ATOM      3  C   UNL     1       1.493   7.567  20.126  0.00  0.00    +0.000 A 
ATOM      4  C   UNL     1       1.980   7.943  18.877  0.00  0.00    +0.000 A 
ATOM      5  C   UNL     1       2.802   7.051  18.169  0.00  0.00    +0.000 A 
ATOM      6  C   UNL     1       3.127   5.773  18.689  0.00  0.00    +0.000 A 
ENDROOT
BRANCH   6   7
ATOM      7  S   UNL     1       4.119   4.670  17.700  0.00  0.00    +0.000 S 
ATOM      8  O   UNL     1       5.198   4.228  18.559  0.00  0.00    +0.000 OA
ATOM      9  O   UNL     1       3.236   3.739  17.032  0.00  0.00    +0.000 OA
BRANCH   7  10
ATOM     10  N   UNL     1       4.834   5.574  16.450  0.00  0.00    +0.000 NA
ATOM     11  C   UNL     1       5.386   4.830  15.273  0.00  0.00    +0.000 C 
ATOM     12  C   UNL     1       6.890   4.559  15.342  0.00  0.00    +0.000 C 
ATOM     13  O   UNL     1       7.639   5.731  15.666  0.00  0.00    +0.000 OA
ATOM     14  C   UNL     1       7.233   6.240  16.938  0.00  0.00    +0.000 C 
ATOM     15  C   UNL     1       5.763   6.662  16.921  0.00  0.00    +0.000 C 
ENDBRANCH   7  10
ENDBRANCH   6   7
BRANCH   1  17
ATOM     16  C   UNL     1       1.939   3.265  20.916  0.00  0.00    +0.000 C 
ATOM     17  O   UNL     1       2.855   4.329  20.768  0.00  0.00    +0.000 OA
ENDBRANCH   1  17
BRANCH   4  18
ATOM     18  C   UNL     1       1.697   9.343  18.450  0.00  0.00    +0.000 C 
ATOM     19  O   UNL     1       2.278   9.903  17.535  0.00  0.00    +0.000 OA
BRANCH  18  20
ATOM     20  O   UNL     1       0.543   9.758  19.029  0.00  0.00    +0.000 OA
BRANCH  20  21
ATOM     21  C   UNL     1       0.560  11.151  19.396  0.00  0.00    +0.000 C 
BRANCH  21  22
ATOM     22  C   UNL     1      -0.476  11.324  20.506  0.00  0.00    +0.000 C 
BRANCH  22  23
ATOM     23  O   UNL     1      -1.195  12.543  20.378  0.00  0.00    +0.000 OA
BRANCH  23  24
ATOM     24  C   UNL     1      -2.516  12.404  20.012  0.00  0.00    +0.000 A 
ATOM     25  C   UNL     1      -3.434  12.829  20.975  0.00  0.00    +0.000 A 
ATOM     26  C   UNL     1      -4.807  12.738  20.731  0.00  0.00    +0.000 A 
ATOM     27  C   UNL     1      -5.268  12.219  19.522  0.00  0.00    +0.000 A 
ATOM     28  C   UNL     1      -4.352  11.799  18.562  0.00  0.00    +0.000 A 
ATOM     29 CL   UNL     1      -4.916  11.159  17.066  0.00  0.00    +0.000 Cl
ATOM     30  C   UNL     1      -2.979  11.892  18.797  0.00  0.00    +0.000 A 
ENDBRANCH  23  24
ENDBRANCH  22  23
ENDBRANCH  21  22
ENDBRANCH  20  21
ENDBRANCH  18  20
ENDBRANCH   4  18
TORSDOF 9
ENDMDL
MODEL 9
REMARK VINA RESULT:      -7.2      2.703      3.105
REMARK  Name = 
REMARK  10 active torsions:
REMARK  status: ('A' for Active; 'I' for Inactive)
REMARK    1  A    between atoms: C_1  and  O_2
REMARK    2  A    between atoms: O_2  and  C_3
REMARK    3  A    between atoms: C_6  and  C_7
REMARK    4  A    between atoms: C_7  and  O_9
REMARK    5  A    between atoms: O_9  and  C_10
REMARK    6  A    between atoms: C_10  and  C_11
REMARK    7  A    between atoms: C_11  and  O_12
REMARK    8  A    between atoms: O_12  and  C_13
REMARK    9  A    between atoms: C_21  and  S_22
REMARK   10  A    between atoms: S_22  and  N_25
REMARK                            x       y       z     vdW  Elec       q    Type
REMARK                         _______ _______ _______ _____ _____    ______ ____
ROOT
ATOM      1  C   UNL     1       2.253   4.151  20.091  0.00  0.00    +0.000 A 
ATOM      2  C   UNL     1       1.266   4.925  20.737  0.00  0.00    +0.000 A 
ATOM      3  C   UNL     1       1.117   6.288  20.513  0.00  0.00    +0.000 A 
ATOM      4  C   UNL     1       1.988   6.942  19.646  0.00  0.00    +0.000 A 
ATOM      5  C   UNL     1       2.982   6.199  18.989  0.00  0.00    +0.000 A 
ATOM      6  C   UNL     1       3.102   4.799  19.175  0.00  0.00    +0.000 A 
ENDROOT
BRANCH   6   7
ATOM      7  S   UNL     1       4.346   3.914  18.253  0.00  0.00    +0.000 S 
ATOM      8  O   UNL     1       5.224   3.319  19.241  0.00  0.00    +0.000 OA
ATOM      9  O   UNL     1       3.685   3.126  17.237  0.00  0.00    +0.000 OA
BRANCH   7  10
ATOM     10  N   UNL     1       5.279   5.047  17.395  0.00  0.00    +0.000 NA
ATOM     11  C   UNL     1       5.366   4.901  15.906  0.00  0.00    +0.000 C 
ATOM     12  C   UNL     1       6.609   4.160  15.413  0.00  0.00    +0.000 C 
ATOM     13  O   UNL     1       7.810   4.664  15.998  0.00  0.00    +0.000 OA
ATOM     14  C   UNL     1       7.763   4.528  17.419  0.00  0.00    +0.000 C 
ATOM     15  C   UNL     1       6.618   5.349  18.015  0.00  0.00    +0.000 C 
ENDBRANCH   7  10
ENDBRANCH   6   7
BRANCH   1  17
ATOM     16  C   UNL     1       2.830   2.341  21.658  0.00  0.00    +0.000 C 
ATOM     17  O   UNL     1       2.151   2.871  20.538  0.00  0.00    +0.000 OA
ENDBRANCH   1  17
BRANCH   4  18
ATOM     18  C   UNL     1       1.878   8.428  19.593  0.00  0.00    +0.000 C 
ATOM     19  O   UNL     1       2.150   9.094  18.608  0.00  0.00    +0.000 OA
BRANCH  18  20
ATOM     20  O   UNL     1       1.180   8.859  20.674  0.00  0.00    +0.000 OA
BRANCH  20  21
ATOM     21  C   UNL     1       0.333   9.990  20.388  0.00  0.00    +0.000 C 
BRANCH  21  22
ATOM     22  C   UNL     1       0.066  10.684  21.723  0.00  0.00    +0.000 C 
BRANCH  22  23
ATOM     23  O   UNL     1      -0.353  12.031  21.549  0.00  0.00    +0.000 OA
BRANCH  23  24
ATOM     24  C   UNL     1      -1.679  12.271  21.834  0.00  0.00    +0.000 A 
ATOM     25  C   UNL     1      -2.456  12.626  20.729  0.00  0.00    +0.000 A 
ATOM     26  C   UNL     1      -3.818  12.902  20.882  0.00  0.00    +0.000 A 
ATOM     27  C   UNL     1      -4.407  12.827  22.143  0.00  0.00    +0.000 A 
ATOM     28  C   UNL     1      -3.632  12.469  23.243  0.00  0.00    +0.000 A 
ATOM     29 CL   UNL     1      -4.356  12.373  24.803  0.00  0.00    +0.000 Cl
ATOM     30  C   UNL     1      -2.272  12.188  23.096  0.00  0.00    +0.000 A 
ENDBRANCH  23  24
ENDBRANCH  22  23
ENDBRANCH  21  22
ENDBRANCH  20  21
ENDBRANCH  18  20
ENDBRANCH   4  18
TORSDOF 9
ENDMDL
