MODEL 1
REMARK VINA RESULT:      -7.8      0.000      0.000
REMARK  Name = 
REMARK  4 active torsions:
REMARK  status: ('A' for Active; 'I' for Inactive)
REMARK    1  A    between atoms: C_2  and  C_3
REMARK    2  A    between atoms: C_3  and  N_4
REMARK    3  A    between atoms: N_15  and  C_16
REMARK    4  A    between atoms: C_16  and  C_17
REMARK                            x       y       z     vdW  Elec       q    Type
REMARK                         _______ _______ _______ _____ _____    ______ ____
ROOT
ATOM      1  O   UNL     1       2.259   2.730  22.066  0.00  0.00    +0.000 OA
ATOM      2  C   UNL     1       2.758   3.097  21.007  0.00  0.00    +0.000 C 
ATOM      3  N   UNL     1       2.558   4.356  20.480  0.00  0.00    +0.000 N 
ATOM      4  H   UNL     1       3.007   4.576  19.599  0.00  0.00    +0.000 HD
ENDROOT
BRANCH   2   5
ATOM      5  C   UNL     1       3.765   2.246  20.234  0.00  0.00    +0.000 C 
BRANCH   5   6
ATOM      6  N   UNL     1       4.375   3.022  19.162  0.00  0.00    +0.000 N 
ATOM      7  N   UNL     1       5.334   3.951  19.513  0.00  0.00    +0.000 NA
ATOM      8  C   UNL     1       5.874   4.652  18.562  0.00  0.00    +0.000 A 
ATOM      9  C   UNL     1       5.528   4.525  17.122  0.00  0.00    +0.000 A 
ATOM     10  C   UNL     1       4.570   3.642  16.825  0.00  0.00    +0.000 A 
ATOM     11  C   UNL     1       3.910   2.838  17.870  0.00  0.00    +0.000 A 
ATOM     12  O   UNL     1       3.014   2.069  17.542  0.00  0.00    +0.000 OA
ATOM     13  C   UNL     1       6.211   5.359  16.083  0.00  0.00    +0.000 C 
ATOM     14  C   UNL     1       6.859   6.616  16.648  0.00  0.00    +0.000 C 
ATOM     15  C   UNL     1       7.724   6.261  17.849  0.00  0.00    +0.000 C 
ATOM     16  C   UNL     1       6.865   5.725  18.984  0.00  0.00    +0.000 C 
ENDBRANCH   5   6
ENDBRANCH   2   5
BRANCH   3  17
ATOM     17  C   UNL     1       1.675   5.326  21.088  0.00  0.00    +0.000 C 
BRANCH  17  18
ATOM     18  C   UNL     1       1.724   6.652  20.369  0.00  0.00    +0.000 A 
ATOM     19  C   UNL     1       2.302   6.756  19.093  0.00  0.00    +0.000 A 
ATOM     20  C   UNL     1       2.307   7.977  18.413  0.00  0.00    +0.000 A 
ATOM     21  C   UNL     1       1.736   9.102  19.005  0.00  0.00    +0.000 A 
ATOM     22 CL   UNL     1       1.725  10.601  18.159  0.00  0.00    +0.000 Cl
ATOM     23  C   UNL     1       1.163   9.016  20.272  0.00  0.00    +0.000 A 
ATOM     24  C   UNL     1       1.156   7.794  20.949  0.00  0.00    +0.000 A 
ENDBRANCH  17  18
ENDBRANCH   3  17
TORSDOF 4
ENDMDL
MODEL 2
REMARK VINA RESULT:      -7.6      2.413      4.715
REMARK  Name = 
REMARK  4 active torsions:
REMARK  status: ('A' for Active; 'I' for Inactive)
REMARK    1  A    between atoms: C_2  and  C_3
REMARK    2  A    between atoms: C_3  and  N_4
REMARK    3  A    between atoms: N_15  and  C_16
REMARK    4  A    between atoms: C_16  and  C_17
REMARK                            x       y       z     vdW  Elec       q    Type
REMARK                         _______ _______ _______ _____ _____    ______ ____
ROOT
ATOM      1  O   UNL     1       5.025   7.053  15.256  0.00  0.00    +0.000 OA
ATOM      2  C   UNL     1       4.828   6.429  16.294  0.00  0.00    +0.000 C 
ATOM      3  N   UNL     1       3.996   6.882  17.295  0.00  0.00    +0.000 N 
ATOM      4  H   UNL     1       3.892   6.303  18.121  0.00  0.00    +0.000 HD
ENDROOT
BRANCH   2   5
ATOM      5  C   UNL     1       5.376   5.020  16.522  0.00  0.00    +0.000 C 
BRANCH   5   6
ATOM      6  N   UNL     1       4.711   4.390  17.655  0.00  0.00    +0.000 N 
ATOM      7  N   UNL     1       3.355   4.154  17.548  0.00  0.00    +0.000 NA
ATOM      8  C   UNL     1       2.756   3.600  18.560  0.00  0.00    +0.000 A 
ATOM      9  C   UNL     1       3.429   3.207  19.825  0.00  0.00    +0.000 A 
ATOM     10  C   UNL     1       4.733   3.485  19.906  0.00  0.00    +0.000 A 
ATOM     11  C   UNL     1       5.456   4.132  18.795  0.00  0.00    +0.000 A 
ATOM     12  O   UNL     1       6.644   4.394  18.939  0.00  0.00    +0.000 OA
ATOM     13  C   UNL     1       2.669   2.556  20.939  0.00  0.00    +0.000 C 
ATOM     14  C   UNL     1       1.166   2.797  20.866  0.00  0.00    +0.000 C 
ATOM     15  C   UNL     1       0.654   2.472  19.470  0.00  0.00    +0.000 C 
ATOM     16  C   UNL     1       1.249   3.428  18.449  0.00  0.00    +0.000 C 
ENDBRANCH   5   6
ENDBRANCH   2   5
BRANCH   3  17
ATOM     17  C   UNL     1       3.345   8.172  17.247  0.00  0.00    +0.000 C 
BRANCH  17  18
ATOM     18  C   UNL     1       2.403   8.366  18.410  0.00  0.00    +0.000 A 
ATOM     19  C   UNL     1       2.371   7.444  19.469  0.00  0.00    +0.000 A 
ATOM     20  C   UNL     1       1.527   7.649  20.564  0.00  0.00    +0.000 A 
ATOM     21  C   UNL     1       0.709   8.777  20.607  0.00  0.00    +0.000 A 
ATOM     22 CL   UNL     1      -0.316   9.040  21.965  0.00  0.00    +0.000 Cl
ATOM     23  C   UNL     1       0.725   9.698  19.561  0.00  0.00    +0.000 A 
ATOM     24  C   UNL     1       1.572   9.493  18.469  0.00  0.00    +0.000 A 
ENDBRANCH  17  18
ENDBRANCH   3  17
TORSDOF 4
ENDMDL
MODEL 3
REMARK VINA RESULT:      -7.5      4.924      7.230
REMARK  Name = 
REMARK  4 active torsions:
REMARK  status: ('A' for Active; 'I' for Inactive)
REMARK    1  A    between atoms: C_2  and  C_3
REMARK    2  A    between atoms: C_3  and  N_4
REMARK    3  A    between atoms: N_15  and  C_16
REMARK    4  A    between atoms: C_16  and  C_17
REMARK                            x       y       z     vdW  Elec       q    Type
REMARK                         _______ _______ _______ _____ _____    ______ ____
ROOT
ATOM      1  O   UNL     1       8.125   6.810  18.897  0.00  0.00    +0.000 OA
ATOM      2  C   UNL     1       7.906   7.685  18.064  0.00  0.00    +0.000 C 
ATOM      3  N   UNL     1       8.313   8.992  18.226  0.00  0.00    +0.000 N 
ATOM      4  H   UNL     1       8.088   9.652  17.489  0.00  0.00    +0.000 HD
ENDROOT
BRANCH   2   5
ATOM      5  C   UNL     1       7.282   7.385  16.702  0.00  0.00    +0.000 C 
BRANCH   5   6
ATOM      6  N   UNL     1       6.314   6.301  16.809  0.00  0.00    +0.000 N 
ATOM      7  N   UNL     1       5.095   6.590  17.388  0.00  0.00    +0.000 NA
ATOM      8  C   UNL     1       4.232   5.624  17.495  0.00  0.00    +0.000 A 
ATOM      9  C   UNL     1       4.469   4.229  17.039  0.00  0.00    +0.000 A 
ATOM     10  C   UNL     1       5.673   3.979  16.518  0.00  0.00    +0.000 A 
ATOM     11  C   UNL     1       6.696   5.035  16.395  0.00  0.00    +0.000 A 
ATOM     12  O   UNL     1       7.795   4.739  15.941  0.00  0.00    +0.000 OA
ATOM     13  C   UNL     1       3.414   3.176  17.181  0.00  0.00    +0.000 C 
ATOM     14  C   UNL     1       2.361   3.514  18.230  0.00  0.00    +0.000 C 
ATOM     15  C   UNL     1       1.830   4.922  17.998  0.00  0.00    +0.000 C 
ATOM     16  C   UNL     1       2.931   5.948  18.211  0.00  0.00    +0.000 C 
ENDBRANCH   5   6
ENDBRANCH   2   5
BRANCH   3  17
ATOM     17  C   UNL     1       8.962   9.466  19.428  0.00  0.00    +0.000 C 
BRANCH  17  18
ATOM     18  C   UNL     1       9.773  10.713  19.169  0.00  0.00    +0.000 A 
ATOM     19  C   UNL     1      10.299  11.461  20.235  0.00  0.00    +0.000 A 
ATOM     20  C   UNL     1      11.084  12.591  19.990  0.00  0.00    +0.000 A 
ATOM     21  C   UNL     1      11.347  12.981  18.679  0.00  0.00    +0.000 A 
ATOM     22 CL   UNL     1      12.331  14.361  18.378  0.00  0.00    +0.000 Cl
ATOM     23  C   UNL     1      10.828  12.252  17.610  0.00  0.00    +0.000 A 
ATOM     24  C   UNL     1      10.046  11.121  17.857  0.00  0.00    +0.000 A 
ENDBRANCH  17  18
ENDBRANCH   3  17
TORSDOF 4
ENDMDL
MODEL 4
REMARK VINA RESULT:      -7.5      0.352      1.066
REMARK  Name = 
REMARK  4 active torsions:
REMARK  status: ('A' for Active; 'I' for Inactive)
REMARK    1  A    between atoms: C_2  and  C_3
REMARK    2  A    between atoms: C_3  and  N_4
REMARK    3  A    between atoms: N_15  and  C_16
REMARK    4  A    between atoms: C_16  and  C_17
REMARK                            x       y       z     vdW  Elec       q    Type
REMARK                         _______ _______ _______ _____ _____    ______ ____
ROOT
ATOM      1  O   UNL     1       1.486   2.777  21.507  0.00  0.00    +0.000 OA
ATOM      2  C   UNL     1       2.312   3.218  20.714  0.00  0.00    +0.000 C 
ATOM      3  N   UNL     1       2.478   4.566  20.476  0.00  0.00    +0.000 N 
ATOM      4  H   UNL     1       3.184   4.844  19.803  0.00  0.00    +0.000 HD
ENDROOT
BRANCH   2   5
ATOM      5  C   UNL     1       3.337   2.326  20.014  0.00  0.00    +0.000 C 
BRANCH   5   6
ATOM      6  N   UNL     1       4.070   3.082  19.007  0.00  0.00    +0.000 N 
ATOM      7  N   UNL     1       5.106   3.884  19.441  0.00  0.00    +0.000 NA
ATOM      8  C   UNL     1       5.758   4.567  18.547  0.00  0.00    +0.000 A 
ATOM      9  C   UNL     1       5.461   4.547  17.091  0.00  0.00    +0.000 A 
ATOM     10  C   UNL     1       4.428   3.788  16.714  0.00  0.00    +0.000 A 
ATOM     11  C   UNL     1       3.643   3.011  17.690  0.00  0.00    +0.000 A 
ATOM     12  O   UNL     1       2.685   2.359  17.291  0.00  0.00    +0.000 OA
ATOM     13  C   UNL     1       6.271   5.350  16.122  0.00  0.00    +0.000 C 
ATOM     14  C   UNL     1       7.025   6.502  16.775  0.00  0.00    +0.000 C 
ATOM     15  C   UNL     1       7.796   5.999  17.987  0.00  0.00    +0.000 C 
ATOM     16  C   UNL     1       6.839   5.505  19.060  0.00  0.00    +0.000 C 
ENDBRANCH   5   6
ENDBRANCH   2   5
BRANCH   3  17
ATOM     17  C   UNL     1       1.636   5.575  21.078  0.00  0.00    +0.000 C 
BRANCH  17  18
ATOM     18  C   UNL     1       1.663   6.865  20.293  0.00  0.00    +0.000 A 
ATOM     19  C   UNL     1       1.057   8.026  20.799  0.00  0.00    +0.000 A 
ATOM     20  C   UNL     1       1.120   9.228  20.088  0.00  0.00    +0.000 A 
ATOM     21  C   UNL     1       1.788   9.276  18.866  0.00  0.00    +0.000 A 
ATOM     22 CL   UNL     1       1.883  10.761  18.001  0.00  0.00    +0.000 Cl
ATOM     23  C   UNL     1       2.390   8.131  18.348  0.00  0.00    +0.000 A 
ATOM     24  C   UNL     1       2.328   6.931  19.062  0.00  0.00    +0.000 A 
ENDBRANCH  17  18
ENDBRANCH   3  17
TORSDOF 4
ENDMDL
MODEL 5
REMARK VINA RESULT:      -7.5      4.626      6.737
REMARK  Name = 
REMARK  4 active torsions:
REMARK  status: ('A' for Active; 'I' for Inactive)
REMARK    1  A    between atoms: C_2  and  C_3
REMARK    2  A    between atoms: C_3  and  N_4
REMARK    3  A    between atoms: N_15  and  C_16
REMARK    4  A    between atoms: C_16  and  C_17
REMARK                            x       y       z     vdW  Elec       q    Type
REMARK                         _______ _______ _______ _____ _____    ______ ____
ROOT
ATOM      1  O   UNL     1       7.100   7.656  16.738  0.00  0.00    +0.000 OA
ATOM      2  C   UNL     1       7.735   7.555  17.783  0.00  0.00    +0.000 C 
ATOM      3  N   UNL     1       8.450   8.600  18.330  0.00  0.00    +0.000 N 
ATOM      4  H   UNL     1       8.948   8.429  19.197  0.00  0.00    +0.000 HD
ENDROOT
BRANCH   2   5
ATOM      5  C   UNL     1       7.685   6.303  18.658  0.00  0.00    +0.000 C 
BRANCH   5   6
ATOM      6  N   UNL     1       6.539   5.476  18.302  0.00  0.00    +0.000 N 
ATOM      7  N   UNL     1       5.392   5.617  19.056  0.00  0.00    +0.000 NA
ATOM      8  C   UNL     1       4.370   4.876  18.749  0.00  0.00    +0.000 A 
ATOM      9  C   UNL     1       4.353   3.883  17.642  0.00  0.00    +0.000 A 
ATOM     10  C   UNL     1       5.492   3.749  16.958  0.00  0.00    +0.000 A 
ATOM     11  C   UNL     1       6.687   4.550  17.281  0.00  0.00    +0.000 A 
ATOM     12  O   UNL     1       7.715   4.359  16.642  0.00  0.00    +0.000 OA
ATOM     13  C   UNL     1       3.127   3.079  17.339  0.00  0.00    +0.000 C 
ATOM     14  C   UNL     1       2.153   3.000  18.508  0.00  0.00    +0.000 C 
ATOM     15  C   UNL     1       1.882   4.394  19.055  0.00  0.00    +0.000 C 
ATOM     16  C   UNL     1       3.149   4.991  19.647  0.00  0.00    +0.000 C 
ENDBRANCH   5   6
ENDBRANCH   2   5
BRANCH   3  17
ATOM     17  C   UNL     1       8.581   9.883  17.677  0.00  0.00    +0.000 C 
BRANCH  17  18
ATOM     18  C   UNL     1       9.057  10.949  18.634  0.00  0.00    +0.000 A 
ATOM     19  C   UNL     1       9.175  12.286  18.219  0.00  0.00    +0.000 A 
ATOM     20  C   UNL     1       9.575  13.277  19.120  0.00  0.00    +0.000 A 
ATOM     21  C   UNL     1       9.861  12.938  20.441  0.00  0.00    +0.000 A 
ATOM     22 CL   UNL     1      10.334  14.162  21.555  0.00  0.00    +0.000 Cl
ATOM     23  C   UNL     1       9.754  11.616  20.867  0.00  0.00    +0.000 A 
ATOM     24  C   UNL     1       9.350  10.627  19.966  0.00  0.00    +0.000 A 
ENDBRANCH  17  18
ENDBRANCH   3  17
TORSDOF 4
ENDMDL
MODEL 6
REMARK VINA RESULT:      -7.5      4.708      6.774
REMARK  Name = 
REMARK  4 active torsions:
REMARK  status: ('A' for Active; 'I' for Inactive)
REMARK    1  A    between atoms: C_2  and  C_3
REMARK    2  A    between atoms: C_3  and  N_4
REMARK    3  A    between atoms: N_15  and  C_16
REMARK    4  A    between atoms: C_16  and  C_17
REMARK                            x       y       z     vdW  Elec       q    Type
REMARK                         _______ _______ _______ _____ _____    ______ ____
ROOT
ATOM      1  O   UNL     1       7.215   7.820  16.786  0.00  0.00    +0.000 OA
ATOM      2  C   UNL     1       7.824   7.683  17.843  0.00  0.00    +0.000 C 
ATOM      3  N   UNL     1       8.558   8.696  18.422  0.00  0.00    +0.000 N 
ATOM      4  H   UNL     1       9.032   8.496  19.296  0.00  0.00    +0.000 HD
ENDROOT
BRANCH   2   5
ATOM      5  C   UNL     1       7.718   6.418  18.694  0.00  0.00    +0.000 C 
BRANCH   5   6
ATOM      6  N   UNL     1       6.580   5.611  18.273  0.00  0.00    +0.000 N 
ATOM      7  N   UNL     1       5.384   5.802  18.934  0.00  0.00    +0.000 NA
ATOM      8  C   UNL     1       4.368   5.078  18.567  0.00  0.00    +0.000 A 
ATOM      9  C   UNL     1       4.407   4.057  17.488  0.00  0.00    +0.000 A 
ATOM     10  C   UNL     1       5.591   3.875  16.896  0.00  0.00    +0.000 A 
ATOM     11  C   UNL     1       6.780   4.654  17.290  0.00  0.00    +0.000 A 
ATOM     12  O   UNL     1       7.847   4.420  16.736  0.00  0.00    +0.000 OA
ATOM     13  C   UNL     1       3.186   3.277  17.113  0.00  0.00    +0.000 C 
ATOM     14  C   UNL     1       2.125   3.254  18.206  0.00  0.00    +0.000 C 
ATOM     15  C   UNL     1       1.851   4.669  18.695  0.00  0.00    +0.000 C 
ATOM     16  C   UNL     1       3.086   5.249  19.367  0.00  0.00    +0.000 C 
ENDBRANCH   5   6
ENDBRANCH   2   5
BRANCH   3  17
ATOM     17  C   UNL     1       8.741   9.985  17.794  0.00  0.00    +0.000 C 
BRANCH  17  18
ATOM     18  C   UNL     1       9.065  11.057  18.806  0.00  0.00    +0.000 A 
ATOM     19  C   UNL     1       9.474  10.718  20.106  0.00  0.00    +0.000 A 
ATOM     20  C   UNL     1       9.812  11.713  21.028  0.00  0.00    +0.000 A 
ATOM     21  C   UNL     1       9.743  13.055  20.655  0.00  0.00    +0.000 A 
ATOM     22 CL   UNL     1      10.179  14.279  21.783  0.00  0.00    +0.000 Cl
ATOM     23  C   UNL     1       9.333  13.408  19.371  0.00  0.00    +0.000 A 
ATOM     24  C   UNL     1       8.998  12.411  18.451  0.00  0.00    +0.000 A 
ENDBRANCH  17  18
ENDBRANCH   3  17
TORSDOF 4
ENDMDL
MODEL 7
REMARK VINA RESULT:      -7.4      4.918      7.034
REMARK  Name = 
REMARK  4 active torsions:
REMARK  status: ('A' for Active; 'I' for Inactive)
REMARK    1  A    between atoms: C_2  and  C_3
REMARK    2  A    between atoms: C_3  and  N_4
REMARK    3  A    between atoms: N_15  and  C_16
REMARK    4  A    between atoms: C_16  and  C_17
REMARK                            x       y       z     vdW  Elec       q    Type
REMARK                         _______ _______ _______ _____ _____    ______ ____
ROOT
ATOM      1  O   UNL     1       8.205   6.923  18.851  0.00  0.00    +0.000 OA
ATOM      2  C   UNL     1       7.977   7.754  17.977  0.00  0.00    +0.000 C 
ATOM      3  N   UNL     1       8.369   9.072  18.075  0.00  0.00    +0.000 N 
ATOM      4  H   UNL     1       8.138   9.693  17.307  0.00  0.00    +0.000 HD
ENDROOT
BRANCH   2   5
ATOM      5  C   UNL     1       7.358   7.381  16.630  0.00  0.00    +0.000 C 
BRANCH   5   6
ATOM      6  N   UNL     1       6.360   6.333  16.798  0.00  0.00    +0.000 N 
ATOM      7  N   UNL     1       5.136   6.697  17.321  0.00  0.00    +0.000 NA
ATOM      8  C   UNL     1       4.245   5.764  17.481  0.00  0.00    +0.000 A 
ATOM      9  C   UNL     1       4.456   4.332  17.143  0.00  0.00    +0.000 A 
ATOM     10  C   UNL     1       5.665   4.012  16.675  0.00  0.00    +0.000 A 
ATOM     11  C   UNL     1       6.718   5.029  16.495  0.00  0.00    +0.000 A 
ATOM     12  O   UNL     1       7.819   4.672  16.094  0.00  0.00    +0.000 OA
ATOM     13  C   UNL     1       3.370   3.320  17.341  0.00  0.00    +0.000 C 
ATOM     14  C   UNL     1       2.302   3.766  18.332  0.00  0.00    +0.000 C 
ATOM     15  C   UNL     1       1.814   5.163  17.977  0.00  0.00    +0.000 C 
ATOM     16  C   UNL     1       2.936   6.176  18.136  0.00  0.00    +0.000 C 
ENDBRANCH   5   6
ENDBRANCH   2   5
BRANCH   3  17
ATOM     17  C   UNL     1       9.012   9.611  19.253  0.00  0.00    +0.000 C 
BRANCH  17  18
ATOM     18  C   UNL     1       9.542  11.003  19.011  0.00  0.00    +0.000 A 
ATOM     19  C   UNL     1      10.212  11.320  17.818  0.00  0.00    +0.000 A 
ATOM     20  C   UNL     1      10.665  12.621  17.581  0.00  0.00    +0.000 A 
ATOM     21  C   UNL     1      10.452  13.614  18.535  0.00  0.00    +0.000 A 
ATOM     22 CL   UNL     1      10.991  15.220  18.234  0.00  0.00    +0.000 Cl
ATOM     23  C   UNL     1       9.793  13.314  19.726  0.00  0.00    +0.000 A 
ATOM     24  C   UNL     1       9.339  12.014  19.960  0.00  0.00    +0.000 A 
ENDBRANCH  17  18
ENDBRANCH   3  17
TORSDOF 4
ENDMDL
MODEL 8
REMARK VINA RESULT:      -7.3      4.221      6.780
REMARK  Name = 
REMARK  4 active torsions:
REMARK  status: ('A' for Active; 'I' for Inactive)
REMARK    1  A    between atoms: C_2  and  C_3
REMARK    2  A    between atoms: C_3  and  N_4
REMARK    3  A    between atoms: N_15  and  C_16
REMARK    4  A    between atoms: C_16  and  C_17
REMARK                            x       y       z     vdW  Elec       q    Type
REMARK                         _______ _______ _______ _____ _____    ______ ____
ROOT
ATOM      1  O   UNL     1       6.084   7.325  16.686  0.00  0.00    +0.000 OA
ATOM      2  C   UNL     1       6.916   7.078  17.554  0.00  0.00    +0.000 C 
ATOM      3  N   UNL     1       7.797   8.022  18.039  0.00  0.00    +0.000 N 
ATOM      4  H   UNL     1       8.453   7.732  18.755  0.00  0.00    +0.000 HD
ENDROOT
BRANCH   2   5
ATOM      5  C   UNL     1       6.968   5.736  18.284  0.00  0.00    +0.000 C 
BRANCH   5   6
ATOM      6  N   UNL     1       5.670   5.075  18.232  0.00  0.00    +0.000 N 
ATOM      7  N   UNL     1       4.798   5.300  19.277  0.00  0.00    +0.000 NA
ATOM      8  C   UNL     1       3.643   4.705  19.239  0.00  0.00    +0.000 A 
ATOM      9  C   UNL     1       3.199   3.796  18.150  0.00  0.00    +0.000 A 
ATOM     10  C   UNL     1       4.085   3.574  17.175  0.00  0.00    +0.000 A 
ATOM     11  C   UNL     1       5.417   4.206  17.182  0.00  0.00    +0.000 A 
ATOM     12  O   UNL     1       6.201   3.938  16.279  0.00  0.00    +0.000 OA
ATOM     13  C   UNL     1       1.842   3.163  18.171  0.00  0.00    +0.000 C 
ATOM     14  C   UNL     1       1.217   3.123  19.560  0.00  0.00    +0.000 C 
ATOM     15  C   UNL     1       1.288   4.501  20.203  0.00  0.00    +0.000 C 
ATOM     16  C   UNL     1       2.734   4.904  20.441  0.00  0.00    +0.000 C 
ENDBRANCH   5   6
ENDBRANCH   2   5
BRANCH   3  17
ATOM     17  C   UNL     1       7.872   9.365  17.510  0.00  0.00    +0.000 C 
BRANCH  17  18
ATOM     18  C   UNL     1       8.950  10.173  18.191  0.00  0.00    +0.000 A 
ATOM     19  C   UNL     1       9.178  10.046  19.571  0.00  0.00    +0.000 A 
ATOM     20  C   UNL     1      10.204  10.765  20.191  0.00  0.00    +0.000 A 
ATOM     21  C   UNL     1      11.008  11.616  19.435  0.00  0.00    +0.000 A 
ATOM     22 CL   UNL     1      12.285  12.486  20.194  0.00  0.00    +0.000 Cl
ATOM     23  C   UNL     1      10.791  11.757  18.065  0.00  0.00    +0.000 A 
ATOM     24  C   UNL     1       9.766  11.035  17.448  0.00  0.00    +0.000 A 
ENDBRANCH  17  18
ENDBRANCH   3  17
TORSDOF 4
ENDMDL
MODEL 9
REMARK VINA RESULT:      -7.2      3.625      6.685
REMARK  Name = 
REMARK  4 active torsions:
REMARK  status: ('A' for Active; 'I' for Inactive)
REMARK    1  A    between atoms: C_2  and  C_3
REMARK    2  A    between atoms: C_3  and  N_4
REMARK    3  A    between atoms: N_15  and  C_16
REMARK    4  A    between atoms: C_16  and  C_17
REMARK                            x       y       z     vdW  Elec       q    Type
REMARK                         _______ _______ _______ _____ _____    ______ ____
ROOT
ATOM      1  O   UNL     1       8.089   4.385  18.243  0.00  0.00    +0.000 OA
ATOM      2  C   UNL     1       7.256   5.216  17.896  0.00  0.00    +0.000 C 
ATOM      3  N   UNL     1       6.997   5.512  16.574  0.00  0.00    +0.000 N 
ATOM      4  H   UNL     1       6.293   6.214  16.376  0.00  0.00    +0.000 HD
ENDROOT
BRANCH   2   5
ATOM      5  C   UNL     1       6.322   5.908  18.889  0.00  0.00    +0.000 C 
BRANCH   5   6
ATOM      6  N   UNL     1       4.963   5.399  18.753  0.00  0.00    +0.000 N 
ATOM      7  N   UNL     1       4.643   4.245  19.438  0.00  0.00    +0.000 NA
ATOM      8  C   UNL     1       3.435   3.782  19.313  0.00  0.00    +0.000 A 
ATOM      9  C   UNL     1       2.376   4.408  18.479  0.00  0.00    +0.000 A 
ATOM     10  C   UNL     1       2.734   5.502  17.802  0.00  0.00    +0.000 A 
ATOM     11  C   UNL     1       4.098   6.055  17.892  0.00  0.00    +0.000 A 
ATOM     12  O   UNL     1       4.379   7.042  17.221  0.00  0.00    +0.000 OA
ATOM     13  C   UNL     1       1.000   3.821  18.402  0.00  0.00    +0.000 C 
ATOM     14  C   UNL     1       0.947   2.352  18.804  0.00  0.00    +0.000 C 
ATOM     15  C   UNL     1       1.651   2.152  20.138  0.00  0.00    +0.000 C 
ATOM     16  C   UNL     1       3.134   2.465  20.011  0.00  0.00    +0.000 C 
ENDBRANCH   5   6
ENDBRANCH   2   5
BRANCH   3  17
ATOM     17  C   UNL     1       7.743   4.927  15.483  0.00  0.00    +0.000 C 
BRANCH  17  18
ATOM     18  C   UNL     1       6.833   4.460  14.373  0.00  0.00    +0.000 A 
ATOM     19  C   UNL     1       7.345   4.172  13.097  0.00  0.00    +0.000 A 
ATOM     20  C   UNL     1       6.505   3.699  12.085  0.00  0.00    +0.000 A 
ATOM     21  C   UNL     1       5.148   3.512  12.341  0.00  0.00    +0.000 A 
ATOM     22 CL   UNL     1       4.118   2.910  11.100  0.00  0.00    +0.000 Cl
ATOM     23  C   UNL     1       4.624   3.798  13.600  0.00  0.00    +0.000 A 
ATOM     24  C   UNL     1       5.465   4.268  14.612  0.00  0.00    +0.000 A 
ENDBRANCH  17  18
ENDBRANCH   3  17
TORSDOF 4
ENDMDL
