MODEL 1
REMARK VINA RESULT:      -6.4      0.000      0.000
REMARK  Name = 
REMARK  8 active torsions:
REMARK  status: ('A' for Active; 'I' for Inactive)
REMARK    1  A    between atoms: C_1  and  O_2
REMARK    2  A    between atoms: O_2  and  C_3
REMARK    3  A    between atoms: C_6  and  C_7
REMARK    4  A    between atoms: C_7  and  O_8
REMARK    5  A    between atoms: C_7  and  C_9
REMARK    6  A    between atoms: C_9  and  N_10
REMARK    7  A    between atoms: N_15  and  C_16
REMARK    8  A    between atoms: C_16  and  C_17
REMARK                            x       y       z     vdW  Elec       q    Type
REMARK                         _______ _______ _______ _____ _____    ______ ____
ROOT
ATOM      1  C   UNL     1       1.948   8.260  18.074  0.00  0.00    +0.000 C 
ENDROOT
BRANCH   1   5
ATOM      2  C   UNL     1       0.564   9.888  21.844  0.00  0.00    +0.000 A 
ATOM      3  C   UNL     1       1.115   8.610  21.765  0.00  0.00    +0.000 A 
ATOM      4  C   UNL     1       1.594   8.119  20.551  0.00  0.00    +0.000 A 
ATOM      5  C   UNL     1       1.522   8.896  19.380  0.00  0.00    +0.000 A 
ATOM      6  C   UNL     1       0.952  10.172  19.468  0.00  0.00    +0.000 A 
ATOM      7  C   UNL     1       0.480  10.667  20.692  0.00  0.00    +0.000 A 
BRANCH   2   9
ATOM      8  C   UNL     1      -1.114  10.982  23.100  0.00  0.00    +0.000 C 
ATOM      9  O   UNL     1       0.097  10.238  23.079  0.00  0.00    +0.000 OA
ENDBRANCH   2   9
ENDBRANCH   1   5
BRANCH   1  10
ATOM     10  O   UNL     1       1.731   9.252  17.071  0.00  0.00    +0.000 OA
ATOM     11  H   UNL     1       1.021   9.840  17.385  0.00  0.00    +0.000 HD
ENDBRANCH   1  10
BRANCH   1  12
ATOM     12  C   UNL     1       3.382   7.683  18.048  0.00  0.00    +0.000 C 
BRANCH  12  13
ATOM     13  N   UNL     1       3.364   6.220  18.130  0.00  0.00    +0.000 N 
ATOM     14  C   UNL     1       2.221   5.443  18.002  0.00  0.00    +0.000 A 
ATOM     15  C   UNL     1       2.408   4.127  18.167  0.00  0.00    +0.000 A 
ATOM     16  S   UNL     1       4.074   3.776  18.561  0.00  0.00    +0.000 S 
ATOM     17  C   UNL     1       4.532   5.495  18.374  0.00  0.00    +0.000 A 
ATOM     18  N   UNL     1       5.712   6.012  18.446  0.00  0.00    +0.000 NA
BRANCH  18  19
ATOM     19  C   UNL     1       6.829   5.310  18.794  0.00  0.00    +0.000 C 
ATOM     20  C   UNL     1       7.664   4.631  17.738  0.00  0.00    +0.000 C 
ATOM     21  O   UNL     1       7.249   5.334  19.953  0.00  0.00    +0.000 OA
ENDBRANCH  18  19
ENDBRANCH  12  13
ENDBRANCH   1  12
TORSDOF 6
ENDMDL
MODEL 2
REMARK VINA RESULT:      -6.3      1.303      1.729
REMARK  Name = 
REMARK  8 active torsions:
REMARK  status: ('A' for Active; 'I' for Inactive)
REMARK    1  A    between atoms: C_1  and  O_2
REMARK    2  A    between atoms: O_2  and  C_3
REMARK    3  A    between atoms: C_6  and  C_7
REMARK    4  A    between atoms: C_7  and  O_8
REMARK    5  A    between atoms: C_7  and  C_9
REMARK    6  A    between atoms: C_9  and  N_10
REMARK    7  A    between atoms: N_15  and  C_16
REMARK    8  A    between atoms: C_16  and  C_17
REMARK                            x       y       z     vdW  Elec       q    Type
REMARK                         _______ _______ _______ _____ _____    ______ ____
ROOT
ATOM      1  C   UNL     1       2.005   8.288  18.013  0.00  0.00    +0.000 C 
ENDROOT
BRANCH   1   5
ATOM      2  C   UNL     1       0.651   9.797  21.842  0.00  0.00    +0.000 A 
ATOM      3  C   UNL     1       0.506  10.546  20.676  0.00  0.00    +0.000 A 
ATOM      4  C   UNL     1       0.909  10.026  19.446  0.00  0.00    +0.000 A 
ATOM      5  C   UNL     1       1.479   8.743  19.357  0.00  0.00    +0.000 A 
ATOM      6  C   UNL     1       1.634   8.007  20.537  0.00  0.00    +0.000 A 
ATOM      7  C   UNL     1       1.220   8.527  21.772  0.00  0.00    +0.000 A 
BRANCH   2   9
ATOM      8  C   UNL     1      -1.127  10.755  23.071  0.00  0.00    +0.000 C 
ATOM      9  O   UNL     1       0.255  10.431  22.986  0.00  0.00    +0.000 OA
ENDBRANCH   2   9
ENDBRANCH   1   5
BRANCH   1  10
ATOM     10  O   UNL     1       1.938   9.432  17.163  0.00  0.00    +0.000 OA
ATOM     11  H   UNL     1       2.308  10.188  17.654  0.00  0.00    +0.000 HD
ENDBRANCH   1  10
BRANCH   1  12
ATOM     12  C   UNL     1       3.406   7.634  18.030  0.00  0.00    +0.000 C 
BRANCH  12  13
ATOM     13  N   UNL     1       3.321   6.195  17.763  0.00  0.00    +0.000 N 
ATOM     14  C   UNL     1       2.250   5.393  18.135  0.00  0.00    +0.000 A 
ATOM     15  C   UNL     1       2.392   4.092  17.852  0.00  0.00    +0.000 A 
ATOM     16  S   UNL     1       3.950   3.774  17.128  0.00  0.00    +0.000 S 
ATOM     17  C   UNL     1       4.356   5.516  17.120  0.00  0.00    +0.000 A 
ATOM     18  N   UNL     1       5.404   6.082  16.622  0.00  0.00    +0.000 NA
BRANCH  18  19
ATOM     19  C   UNL     1       6.459   5.398  16.094  0.00  0.00    +0.000 C 
ATOM     20  C   UNL     1       6.436   4.950  14.655  0.00  0.00    +0.000 C 
ATOM     21  O   UNL     1       7.499   5.254  16.741  0.00  0.00    +0.000 OA
ENDBRANCH  18  19
ENDBRANCH  12  13
ENDBRANCH   1  12
TORSDOF 6
ENDMDL
MODEL 3
REMARK VINA RESULT:      -6.3      2.544      3.172
REMARK  Name = 
REMARK  8 active torsions:
REMARK  status: ('A' for Active; 'I' for Inactive)
REMARK    1  A    between atoms: C_1  and  O_2
REMARK    2  A    between atoms: O_2  and  C_3
REMARK    3  A    between atoms: C_6  and  C_7
REMARK    4  A    between atoms: C_7  and  O_8
REMARK    5  A    between atoms: C_7  and  C_9
REMARK    6  A    between atoms: C_9  and  N_10
REMARK    7  A    between atoms: N_15  and  C_16
REMARK    8  A    between atoms: C_16  and  C_17
REMARK                            x       y       z     vdW  Elec       q    Type
REMARK                         _______ _______ _______ _____ _____    ______ ____
ROOT
ATOM      1  C   UNL     1       3.008   6.474  18.400  0.00  0.00    +0.000 C 
ENDROOT
BRANCH   1   5
ATOM      2  C   UNL     1       0.635   9.890  19.612  0.00  0.00    +0.000 A 
ATOM      3  C   UNL     1       1.011   8.908  20.526  0.00  0.00    +0.000 A 
ATOM      4  C   UNL     1       1.810   7.837  20.127  0.00  0.00    +0.000 A 
ATOM      5  C   UNL     1       2.245   7.720  18.794  0.00  0.00    +0.000 A 
ATOM      6  C   UNL     1       1.849   8.705  17.881  0.00  0.00    +0.000 A 
ATOM      7  C   UNL     1       1.052   9.785  18.287  0.00  0.00    +0.000 A 
BRANCH   2   9
ATOM      8  C   UNL     1       0.418  11.752  21.054  0.00  0.00    +0.000 C 
ATOM      9  O   UNL     1      -0.179  10.865  20.117  0.00  0.00    +0.000 OA
ENDBRANCH   2   9
ENDBRANCH   1   5
BRANCH   1  10
ATOM     10  O   UNL     1       2.020   5.524  18.004  0.00  0.00    +0.000 OA
ATOM     11  H   UNL     1       1.226   5.678  18.546  0.00  0.00    +0.000 HD
ENDBRANCH   1  10
BRANCH   1  12
ATOM     12  C   UNL     1       4.110   6.674  17.334  0.00  0.00    +0.000 C 
BRANCH  12  13
ATOM     13  N   UNL     1       5.311   5.901  17.663  0.00  0.00    +0.000 N 
ATOM     14  C   UNL     1       5.771   5.684  18.955  0.00  0.00    +0.000 A 
ATOM     15  C   UNL     1       6.920   5.002  19.039  0.00  0.00    +0.000 A 
ATOM     16  S   UNL     1       7.544   4.625  17.451  0.00  0.00    +0.000 S 
ATOM     17  C   UNL     1       6.105   5.339  16.663  0.00  0.00    +0.000 A 
ATOM     18  N   UNL     1       5.817   5.352  15.406  0.00  0.00    +0.000 NA
BRANCH  18  19
ATOM     19  C   UNL     1       6.654   4.897  14.429  0.00  0.00    +0.000 C 
ATOM     20  C   UNL     1       6.221   3.781  13.513  0.00  0.00    +0.000 C 
ATOM     21  O   UNL     1       7.716   5.477  14.192  0.00  0.00    +0.000 OA
ENDBRANCH  18  19
ENDBRANCH  12  13
ENDBRANCH   1  12
TORSDOF 6
ENDMDL
MODEL 4
REMARK VINA RESULT:      -6.2      1.870      2.340
REMARK  Name = 
REMARK  8 active torsions:
REMARK  status: ('A' for Active; 'I' for Inactive)
REMARK    1  A    between atoms: C_1  and  O_2
REMARK    2  A    between atoms: O_2  and  C_3
REMARK    3  A    between atoms: C_6  and  C_7
REMARK    4  A    between atoms: C_7  and  O_8
REMARK    5  A    between atoms: C_7  and  C_9
REMARK    6  A    between atoms: C_9  and  N_10
REMARK    7  A    between atoms: N_15  and  C_16
REMARK    8  A    between atoms: C_16  and  C_17
REMARK                            x       y       z     vdW  Elec       q    Type
REMARK                         _______ _______ _______ _____ _____    ______ ____
ROOT
ATOM      1  C   UNL     1       2.449   7.078  19.672  0.00  0.00    +0.000 C 
ENDROOT
BRANCH   1   5
ATOM      2  C   UNL     1       0.010  10.641  19.299  0.00  0.00    +0.000 A 
ATOM      3  C   UNL     1       0.171   9.998  20.525  0.00  0.00    +0.000 A 
ATOM      4  C   UNL     1       0.994   8.877  20.634  0.00  0.00    +0.000 A 
ATOM      5  C   UNL     1       1.669   8.366  19.511  0.00  0.00    +0.000 A 
ATOM      6  C   UNL     1       1.488   9.011  18.282  0.00  0.00    +0.000 A 
ATOM      7  C   UNL     1       0.668  10.143  18.176  0.00  0.00    +0.000 A 
BRANCH   2   9
ATOM      8  C   UNL     1      -0.528  12.778  18.443  0.00  0.00    +0.000 C 
ATOM      9  O   UNL     1      -0.850  11.702  19.314  0.00  0.00    +0.000 OA
ENDBRANCH   2   9
ENDBRANCH   1   5
BRANCH   1  10
ATOM     10  O   UNL     1       1.921   6.449  20.840  0.00  0.00    +0.000 OA
ATOM     11  H   UNL     1       2.263   5.538  20.865  0.00  0.00    +0.000 HD
ENDBRANCH   1  10
BRANCH   1  12
ATOM     12  C   UNL     1       2.460   6.145  18.440  0.00  0.00    +0.000 C 
BRANCH  12  13
ATOM     13  N   UNL     1       2.938   4.806  18.795  0.00  0.00    +0.000 N 
ATOM     14  C   UNL     1       2.109   3.725  19.063  0.00  0.00    +0.000 A 
ATOM     15  C   UNL     1       2.742   2.603  19.428  0.00  0.00    +0.000 A 
ATOM     16  S   UNL     1       4.469   2.856  19.513  0.00  0.00    +0.000 S 
ATOM     17  C   UNL     1       4.301   4.534  18.915  0.00  0.00    +0.000 A 
ATOM     18  N   UNL     1       5.242   5.371  18.634  0.00  0.00    +0.000 NA
BRANCH  18  19
ATOM     19  C   UNL     1       6.566   5.130  18.859  0.00  0.00    +0.000 C 
ATOM     20  C   UNL     1       7.466   4.694  17.731  0.00  0.00    +0.000 C 
ATOM     21  O   UNL     1       7.075   5.396  19.951  0.00  0.00    +0.000 OA
ENDBRANCH  18  19
ENDBRANCH  12  13
ENDBRANCH   1  12
TORSDOF 6
ENDMDL
MODEL 5
REMARK VINA RESULT:      -6.1      1.631      1.774
REMARK  Name = 
REMARK  8 active torsions:
REMARK  status: ('A' for Active; 'I' for Inactive)
REMARK    1  A    between atoms: C_1  and  O_2
REMARK    2  A    between atoms: O_2  and  C_3
REMARK    3  A    between atoms: C_6  and  C_7
REMARK    4  A    between atoms: C_7  and  O_8
REMARK    5  A    between atoms: C_7  and  C_9
REMARK    6  A    between atoms: C_9  and  N_10
REMARK    7  A    between atoms: N_15  and  C_16
REMARK    8  A    between atoms: C_16  and  C_17
REMARK                            x       y       z     vdW  Elec       q    Type
REMARK                         _______ _______ _______ _____ _____    ______ ____
ROOT
ATOM      1  C   UNL     1       2.561   6.835  19.598  0.00  0.00    +0.000 C 
ENDROOT
BRANCH   1   5
ATOM      2  C   UNL     1      -0.022  10.074  20.868  0.00  0.00    +0.000 A 
ATOM      3  C   UNL     1       0.269   9.005  21.713  0.00  0.00    +0.000 A 
ATOM      4  C   UNL     1       1.136   7.992  21.303  0.00  0.00    +0.000 A 
ATOM      5  C   UNL     1       1.726   8.023  20.026  0.00  0.00    +0.000 A 
ATOM      6  C   UNL     1       1.415   9.094  19.180  0.00  0.00    +0.000 A 
ATOM      7  C   UNL     1       0.550  10.115  19.598  0.00  0.00    +0.000 A 
BRANCH   2   9
ATOM      8  C   UNL     1      -0.991  11.056  22.788  0.00  0.00    +0.000 C 
ATOM      9  O   UNL     1      -0.913  10.979  21.371  0.00  0.00    +0.000 OA
ENDBRANCH   2   9
ENDBRANCH   1   5
BRANCH   1  10
ATOM     10  O   UNL     1       2.316   5.819  20.569  0.00  0.00    +0.000 OA
ATOM     11  H   UNL     1       3.103   5.246  20.604  0.00  0.00    +0.000 HD
ENDBRANCH   1  10
BRANCH   1  12
ATOM     12  C   UNL     1       2.336   6.348  18.148  0.00  0.00    +0.000 C 
BRANCH  12  13
ATOM     13  N   UNL     1       2.586   4.909  18.029  0.00  0.00    +0.000 N 
ATOM     14  C   UNL     1       1.596   3.937  18.062  0.00  0.00    +0.000 A 
ATOM     15  C   UNL     1       2.038   2.674  17.998  0.00  0.00    +0.000 A 
ATOM     16  S   UNL     1       3.784   2.624  17.945  0.00  0.00    +0.000 S 
ATOM     17  C   UNL     1       3.883   4.409  17.897  0.00  0.00    +0.000 A 
ATOM     18  N   UNL     1       4.938   5.140  17.765  0.00  0.00    +0.000 NA
BRANCH  18  19
ATOM     19  C   UNL     1       6.209   4.644  17.748  0.00  0.00    +0.000 C 
ATOM     20  C   UNL     1       6.958   4.508  16.446  0.00  0.00    +0.000 C 
ATOM     21  O   UNL     1       6.812   4.428  18.801  0.00  0.00    +0.000 OA
ENDBRANCH  18  19
ENDBRANCH  12  13
ENDBRANCH   1  12
TORSDOF 6
ENDMDL
MODEL 6
REMARK VINA RESULT:      -6.1      3.736      6.369
REMARK  Name = 
REMARK  8 active torsions:
REMARK  status: ('A' for Active; 'I' for Inactive)
REMARK    1  A    between atoms: C_1  and  O_2
REMARK    2  A    between atoms: O_2  and  C_3
REMARK    3  A    between atoms: C_6  and  C_7
REMARK    4  A    between atoms: C_7  and  O_8
REMARK    5  A    between atoms: C_7  and  C_9
REMARK    6  A    between atoms: C_9  and  N_10
REMARK    7  A    between atoms: N_15  and  C_16
REMARK    8  A    between atoms: C_16  and  C_17
REMARK                            x       y       z     vdW  Elec       q    Type
REMARK                         _______ _______ _______ _____ _____    ______ ____
ROOT
ATOM      1  C   UNL     1       4.288   3.642  17.063  0.00  0.00    +0.000 C 
ENDROOT
BRANCH   1   5
ATOM      2  C   UNL     1       7.313   6.513  18.240  0.00  0.00    +0.000 A 
ATOM      3  C   UNL     1       6.758   6.529  16.962  0.00  0.00    +0.000 A 
ATOM      4  C   UNL     1       5.755   5.624  16.614  0.00  0.00    +0.000 A 
ATOM      5  C   UNL     1       5.291   4.672  17.540  0.00  0.00    +0.000 A 
ATOM      6  C   UNL     1       5.866   4.656  18.816  0.00  0.00    +0.000 A 
ATOM      7  C   UNL     1       6.868   5.572  19.166  0.00  0.00    +0.000 A 
BRANCH   2   9
ATOM      8  C   UNL     1       8.077   8.731  17.938  0.00  0.00    +0.000 C 
ATOM      9  O   UNL     1       8.311   7.423  18.444  0.00  0.00    +0.000 OA
ENDBRANCH   2   9
ENDBRANCH   1   5
BRANCH   1  10
ATOM     10  O   UNL     1       4.550   2.465  17.826  0.00  0.00    +0.000 OA
ATOM     11  H   UNL     1       3.896   1.792  17.566  0.00  0.00    +0.000 HD
ENDBRANCH   1  10
BRANCH   1  12
ATOM     12  C   UNL     1       2.806   4.077  17.119  0.00  0.00    +0.000 C 
BRANCH  12  13
ATOM     13  N   UNL     1       2.559   4.968  18.257  0.00  0.00    +0.000 N 
ATOM     14  C   UNL     1       2.449   6.349  18.159  0.00  0.00    +0.000 A 
ATOM     15  C   UNL     1       2.283   6.988  19.324  0.00  0.00    +0.000 A 
ATOM     16  S   UNL     1       2.310   5.865  20.664  0.00  0.00    +0.000 S 
ATOM     17  C   UNL     1       2.442   4.469  19.554  0.00  0.00    +0.000 A 
ATOM     18  N   UNL     1       2.433   3.214  19.857  0.00  0.00    +0.000 NA
BRANCH  18  19
ATOM     19  C   UNL     1       2.428   2.741  21.137  0.00  0.00    +0.000 C 
ATOM     20  C   UNL     1       1.131   2.593  21.891  0.00  0.00    +0.000 C 
ATOM     21  O   UNL     1       3.461   2.301  21.646  0.00  0.00    +0.000 OA
ENDBRANCH  18  19
ENDBRANCH  12  13
ENDBRANCH   1  12
TORSDOF 6
ENDMDL
MODEL 7
REMARK VINA RESULT:      -6.1      2.088      2.841
REMARK  Name = 
REMARK  8 active torsions:
REMARK  status: ('A' for Active; 'I' for Inactive)
REMARK    1  A    between atoms: C_1  and  O_2
REMARK    2  A    between atoms: O_2  and  C_3
REMARK    3  A    between atoms: C_6  and  C_7
REMARK    4  A    between atoms: C_7  and  O_8
REMARK    5  A    between atoms: C_7  and  C_9
REMARK    6  A    between atoms: C_9  and  N_10
REMARK    7  A    between atoms: N_15  and  C_16
REMARK    8  A    between atoms: C_16  and  C_17
REMARK                            x       y       z     vdW  Elec       q    Type
REMARK                         _______ _______ _______ _____ _____    ______ ____
ROOT
ATOM      1  C   UNL     1       2.497   6.973  19.784  0.00  0.00    +0.000 C 
ENDROOT
BRANCH   1   5
ATOM      2  C   UNL     1       0.132  10.491  20.681  0.00  0.00    +0.000 A 
ATOM      3  C   UNL     1       0.657  10.276  19.409  0.00  0.00    +0.000 A 
ATOM      4  C   UNL     1       1.380   9.117  19.127  0.00  0.00    +0.000 A 
ATOM      5  C   UNL     1       1.604   8.148  20.121  0.00  0.00    +0.000 A 
ATOM      6  C   UNL     1       1.084   8.382  21.400  0.00  0.00    +0.000 A 
ATOM      7  C   UNL     1       0.350   9.543  21.679  0.00  0.00    +0.000 A 
BRANCH   2   9
ATOM      8  C   UNL     1      -0.770  12.080  22.182  0.00  0.00    +0.000 C 
ATOM      9  O   UNL     1      -0.523  11.680  20.840  0.00  0.00    +0.000 OA
ENDBRANCH   2   9
ENDBRANCH   1   5
BRANCH   1  10
ATOM     10  O   UNL     1       2.194   5.967  20.750  0.00  0.00    +0.000 OA
ATOM     11  H   UNL     1       3.014   5.472  20.929  0.00  0.00    +0.000 HD
ENDBRANCH   1  10
BRANCH   1  12
ATOM     12  C   UNL     1       2.401   6.457  18.329  0.00  0.00    +0.000 C 
BRANCH  12  13
ATOM     13  N   UNL     1       3.704   5.993  17.847  0.00  0.00    +0.000 N 
ATOM     14  C   UNL     1       4.541   6.732  17.022  0.00  0.00    +0.000 A 
ATOM     15  C   UNL     1       5.663   6.105  16.644  0.00  0.00    +0.000 A 
ATOM     16  S   UNL     1       5.713   4.476  17.276  0.00  0.00    +0.000 S 
ATOM     17  C   UNL     1       4.189   4.727  18.177  0.00  0.00    +0.000 A 
ATOM     18  N   UNL     1       3.609   3.912  18.993  0.00  0.00    +0.000 NA
BRANCH  18  19
ATOM     19  C   UNL     1       4.034   2.636  19.223  0.00  0.00    +0.000 C 
ATOM     20  C   UNL     1       3.561   1.504  18.348  0.00  0.00    +0.000 C 
ATOM     21  O   UNL     1       4.913   2.409  20.059  0.00  0.00    +0.000 OA
ENDBRANCH  18  19
ENDBRANCH  12  13
ENDBRANCH   1  12
TORSDOF 6
ENDMDL
MODEL 8
REMARK VINA RESULT:      -6.1      2.237      2.889
REMARK  Name = 
REMARK  8 active torsions:
REMARK  status: ('A' for Active; 'I' for Inactive)
REMARK    1  A    between atoms: C_1  and  O_2
REMARK    2  A    between atoms: O_2  and  C_3
REMARK    3  A    between atoms: C_6  and  C_7
REMARK    4  A    between atoms: C_7  and  O_8
REMARK    5  A    between atoms: C_7  and  C_9
REMARK    6  A    between atoms: C_9  and  N_10
REMARK    7  A    between atoms: N_15  and  C_16
REMARK    8  A    between atoms: C_16  and  C_17
REMARK                            x       y       z     vdW  Elec       q    Type
REMARK                         _______ _______ _______ _____ _____    ______ ____
ROOT
ATOM      1  C   UNL     1       2.541   7.160  19.540  0.00  0.00    +0.000 C 
ENDROOT
BRANCH   1   5
ATOM      2  C   UNL     1      -0.142  10.538  19.947  0.00  0.00    +0.000 A 
ATOM      3  C   UNL     1       0.110   9.680  21.015  0.00  0.00    +0.000 A 
ATOM      4  C   UNL     1       1.009   8.622  20.878  0.00  0.00    +0.000 A 
ATOM      5  C   UNL     1       1.672   8.394  19.658  0.00  0.00    +0.000 A 
ATOM      6  C   UNL     1       1.400   9.253  18.587  0.00  0.00    +0.000 A 
ATOM      7  C   UNL     1       0.502  10.321  18.730  0.00  0.00    +0.000 A 
BRANCH   2   9
ATOM      8  C   UNL     1      -2.094  11.658  19.221  0.00  0.00    +0.000 C 
ATOM      9  O   UNL     1      -1.069  11.510  20.195  0.00  0.00    +0.000 OA
ENDBRANCH   2   9
ENDBRANCH   1   5
BRANCH   1  10
ATOM     10  O   UNL     1       2.185   6.328  20.643  0.00  0.00    +0.000 OA
ATOM     11  H   UNL     1       2.483   6.772  21.458  0.00  0.00    +0.000 HD
ENDBRANCH   1  10
BRANCH   1  12
ATOM     12  C   UNL     1       2.471   6.421  18.183  0.00  0.00    +0.000 C 
BRANCH  12  13
ATOM     13  N   UNL     1       3.794   5.941  17.775  0.00  0.00    +0.000 N 
ATOM     14  C   UNL     1       4.671   6.656  16.969  0.00  0.00    +0.000 A 
ATOM     15  C   UNL     1       5.807   6.016  16.662  0.00  0.00    +0.000 A 
ATOM     16  S   UNL     1       5.823   4.405  17.340  0.00  0.00    +0.000 S 
ATOM     17  C   UNL     1       4.259   4.684  18.163  0.00  0.00    +0.000 A 
ATOM     18  N   UNL     1       3.640   3.894  18.973  0.00  0.00    +0.000 NA
BRANCH  18  19
ATOM     19  C   UNL     1       4.050   2.624  19.259  0.00  0.00    +0.000 C 
ATOM     20  C   UNL     1       3.571   1.462  18.425  0.00  0.00    +0.000 C 
ATOM     21  O   UNL     1       4.918   2.422  20.110  0.00  0.00    +0.000 OA
ENDBRANCH  18  19
ENDBRANCH  12  13
ENDBRANCH   1  12
TORSDOF 6
ENDMDL
MODEL 9
REMARK VINA RESULT:      -6.1      3.665      6.407
REMARK  Name = 
REMARK  8 active torsions:
REMARK  status: ('A' for Active; 'I' for Inactive)
REMARK    1  A    between atoms: C_1  and  O_2
REMARK    2  A    between atoms: O_2  and  C_3
REMARK    3  A    between atoms: C_6  and  C_7
REMARK    4  A    between atoms: C_7  and  O_8
REMARK    5  A    between atoms: C_7  and  C_9
REMARK    6  A    between atoms: C_9  and  N_10
REMARK    7  A    between atoms: N_15  and  C_16
REMARK    8  A    between atoms: C_16  and  C_17
REMARK                            x       y       z     vdW  Elec       q    Type
REMARK                         _______ _______ _______ _____ _____    ______ ____
ROOT
ATOM      1  C   UNL     1       5.247   4.010  17.430  0.00  0.00    +0.000 C 
ENDROOT
BRANCH   1   5
ATOM      2  C   UNL     1       7.952   7.289  18.271  0.00  0.00    +0.000 A 
ATOM      3  C   UNL     1       7.830   6.209  19.142  0.00  0.00    +0.000 A 
ATOM      4  C   UNL     1       6.985   5.142  18.835  0.00  0.00    +0.000 A 
ATOM      5  C   UNL     1       6.232   5.138  17.646  0.00  0.00    +0.000 A 
ATOM      6  C   UNL     1       6.352   6.235  16.786  0.00  0.00    +0.000 A 
ATOM      7  C   UNL     1       7.208   7.303  17.092  0.00  0.00    +0.000 A 
BRANCH   2   9
ATOM      8  C   UNL     1       8.502   9.587  18.202  0.00  0.00    +0.000 C 
ATOM      9  O   UNL     1       8.780   8.286  18.702  0.00  0.00    +0.000 OA
ENDBRANCH   2   9
ENDBRANCH   1   5
BRANCH   1  10
ATOM     10  O   UNL     1       5.240   3.263  18.647  0.00  0.00    +0.000 OA
ATOM     11  H   UNL     1       6.003   2.658  18.627  0.00  0.00    +0.000 HD
ENDBRANCH   1  10
BRANCH   1  12
ATOM     12  C   UNL     1       3.830   4.437  16.981  0.00  0.00    +0.000 C 
BRANCH  12  13
ATOM     13  N   UNL     1       3.186   5.279  17.993  0.00  0.00    +0.000 N 
ATOM     14  C   UNL     1       3.193   6.667  17.975  0.00  0.00    +0.000 A 
ATOM     15  C   UNL     1       2.598   7.250  19.024  0.00  0.00    +0.000 A 
ATOM     16  S   UNL     1       2.022   6.055  20.162  0.00  0.00    +0.000 S 
ATOM     17  C   UNL     1       2.526   4.717  19.086  0.00  0.00    +0.000 A 
ATOM     18  N   UNL     1       2.333   3.452  19.254  0.00  0.00    +0.000 NA
BRANCH  18  19
ATOM     19  C   UNL     1       1.784   2.909  20.378  0.00  0.00    +0.000 C 
ATOM     20  C   UNL     1       2.641   2.626  21.586  0.00  0.00    +0.000 C 
ATOM     21  O   UNL     1       0.563   2.768  20.475  0.00  0.00    +0.000 OA
ENDBRANCH  18  19
ENDBRANCH  12  13
ENDBRANCH   1  12
TORSDOF 6
ENDMDL
