MODEL 1
REMARK VINA RESULT:      -8.2      0.000      0.000
REMARK  Name = 
REMARK  9 active torsions:
REMARK  status: ('A' for Active; 'I' for Inactive)
REMARK    1  A    between atoms: C_1  and  O_2
REMARK    2  A    between atoms: O_2  and  C_3
REMARK    3  A    between atoms: C_3  and  C_5
REMARK    4  A    between atoms: C_6  and  N_7
REMARK    5  A    between atoms: C_8  and  C_10
REMARK    6  A    between atoms: C_20  and  C_21
REMARK    7  A    between atoms: N_23  and  C_24
REMARK    8  A    between atoms: N_23  and  C_25
REMARK    9  A    between atoms: C_26  and  C_27
REMARK                            x       y       z     vdW  Elec       q    Type
REMARK                         _______ _______ _______ _____ _____    ______ ____
ROOT
ATOM      1  C   UNL     1       2.841   4.414  20.329  0.00  0.00    +0.000 A 
ATOM      2  C   UNL     1       2.801   5.781  20.126  0.00  0.00    +0.000 A 
ATOM      3  S   UNL     1       3.930   6.313  18.975  0.00  0.00    +0.000 S 
ATOM      4  C   UNL     1       4.784   4.824  18.992  0.00  0.00    +0.000 A 
ATOM      5  C   UNL     1       4.035   3.857  19.683  0.00  0.00    +0.000 A 
ATOM      6  C   UNL     1       4.366   2.388  19.751  0.00  0.00    +0.000 C 
ENDROOT
BRANCH   4   7
ATOM      7  C   UNL     1       5.991   4.570  18.177  0.00  0.00    +0.000 C 
ATOM      8  O   UNL     1       7.089   4.524  18.746  0.00  0.00    +0.000 OA
ATOM      9  N   UNL     1       5.976   4.425  16.774  0.00  0.00    +0.000 N 
ATOM     10  C   UNL     1       4.832   4.367  15.878  0.00  0.00    +0.000 C 
ATOM     11  C   UNL     1       7.262   4.272  16.094  0.00  0.00    +0.000 C 
ENDBRANCH   4   7
BRANCH   2  12
ATOM     12  N   UNL     1       2.010   6.785  20.657  0.00  0.00    +0.000 N 
ATOM     13  C   UNL     1       1.710   7.899  19.878  0.00  0.00    +0.000 C 
ATOM     14  O   UNL     1       2.086   8.037  18.712  0.00  0.00    +0.000 OA
ATOM     15  H   UNL     1       1.354   6.566  21.399  0.00  0.00    +0.000 HD
BRANCH  13  16
ATOM     16  C   UNL     1       0.848   8.901  20.551  0.00  0.00    +0.000 A 
ATOM     17  N   UNL     1       0.698   8.978  21.919  0.00  0.00    +0.000 NA
ATOM     18  C   UNL     1      -0.078  10.033  22.096  0.00  0.00    +0.000 A 
ATOM     19  N   UNL     1      -0.525  10.617  23.248  0.00  0.00    +0.000 NA
ATOM     20  C   UNL     1      -1.271  11.672  23.106  0.00  0.00    +0.000 A 
ATOM     21  C   UNL     1      -1.692  12.288  21.814  0.00  0.00    +0.000 A 
ATOM     22  C   UNL     1      -1.231  11.671  20.721  0.00  0.00    +0.000 A 
ATOM     23  N   UNL     1      -0.420  10.553  20.843  0.00  0.00    +0.000 N 
ATOM     24  N   UNL     1       0.150   9.823  19.864  0.00  0.00    +0.000 NA
ENDBRANCH  13  16
ENDBRANCH   2  12
BRANCH   1  25
ATOM     25  C   UNL     1       1.825   3.603  21.038  0.00  0.00    +0.000 C 
ATOM     26  O   UNL     1       2.033   3.074  22.123  0.00  0.00    +0.000 OA
BRANCH  25  28
ATOM     27  C   UNL     1       0.796   2.717  19.097  0.00  0.00    +0.000 C 
ATOM     28  O   UNL     1       0.663   3.419  20.338  0.00  0.00    +0.000 OA
ENDBRANCH  25  28
ENDBRANCH   1  25
TORSDOF 5
ENDMDL
MODEL 2
REMARK VINA RESULT:      -7.9      1.012      1.633
REMARK  Name = 
REMARK  9 active torsions:
REMARK  status: ('A' for Active; 'I' for Inactive)
REMARK    1  A    between atoms: C_1  and  O_2
REMARK    2  A    between atoms: O_2  and  C_3
REMARK    3  A    between atoms: C_3  and  C_5
REMARK    4  A    between atoms: C_6  and  N_7
REMARK    5  A    between atoms: C_8  and  C_10
REMARK    6  A    between atoms: C_20  and  C_21
REMARK    7  A    between atoms: N_23  and  C_24
REMARK    8  A    between atoms: N_23  and  C_25
REMARK    9  A    between atoms: C_26  and  C_27
REMARK                            x       y       z     vdW  Elec       q    Type
REMARK                         _______ _______ _______ _____ _____    ______ ____
ROOT
ATOM      1  C   UNL     1       2.605   4.578  19.123  0.00  0.00    +0.000 A 
ATOM      2  C   UNL     1       2.812   5.933  19.300  0.00  0.00    +0.000 A 
ATOM      3  S   UNL     1       4.170   6.511  18.461  0.00  0.00    +0.000 S 
ATOM      4  C   UNL     1       4.767   4.930  18.157  0.00  0.00    +0.000 A 
ATOM      5  C   UNL     1       3.779   3.983  18.476  0.00  0.00    +0.000 A 
ATOM      6  C   UNL     1       3.860   2.509  18.172  0.00  0.00    +0.000 C 
ENDROOT
BRANCH   4   7
ATOM      7  C   UNL     1       6.027   4.662  17.432  0.00  0.00    +0.000 C 
ATOM      8  O   UNL     1       7.030   4.349  18.086  0.00  0.00    +0.000 OA
ATOM      9  N   UNL     1       6.173   4.791  16.035  0.00  0.00    +0.000 N 
ATOM     10  C   UNL     1       5.154   5.074  15.037  0.00  0.00    +0.000 C 
ATOM     11  C   UNL     1       7.506   4.584  15.470  0.00  0.00    +0.000 C 
ENDBRANCH   4   7
BRANCH   2  12
ATOM     12  N   UNL     1       2.118   6.904  20.001  0.00  0.00    +0.000 N 
ATOM     13  C   UNL     1       1.729   8.070  19.347  0.00  0.00    +0.000 C 
ATOM     14  O   UNL     1       1.940   8.283  18.151  0.00  0.00    +0.000 OA
ATOM     15  H   UNL     1       1.569   6.640  20.812  0.00  0.00    +0.000 HD
BRANCH  13  16
ATOM     16  C   UNL     1       0.985   9.029  20.198  0.00  0.00    +0.000 A 
ATOM     17  N   UNL     1       0.556  10.263  19.758  0.00  0.00    +0.000 NA
ATOM     18  C   UNL     1      -0.116  10.753  20.785  0.00  0.00    +0.000 A 
ATOM     19  N   UNL     1      -0.805  11.926  20.910  0.00  0.00    +0.000 NA
ATOM     20  C   UNL     1      -1.389  12.130  22.054  0.00  0.00    +0.000 A 
ATOM     21  C   UNL     1      -1.366  11.217  23.233  0.00  0.00    +0.000 A 
ATOM     22  C   UNL     1      -0.672  10.088  23.055  0.00  0.00    +0.000 A 
ATOM     23  N   UNL     1      -0.051   9.837  21.841  0.00  0.00    +0.000 N 
ATOM     24  N   UNL     1       0.664   8.755  21.476  0.00  0.00    +0.000 NA
ENDBRANCH  13  16
ENDBRANCH   2  12
BRANCH   1  25
ATOM     25  C   UNL     1       1.379   3.826  19.475  0.00  0.00    +0.000 C 
ATOM     26  O   UNL     1       0.673   3.275  18.639  0.00  0.00    +0.000 OA
BRANCH  25  28
ATOM     27  C   UNL     1       1.843   3.049  21.664  0.00  0.00    +0.000 C 
ATOM     28  O   UNL     1       1.050   3.874  20.803  0.00  0.00    +0.000 OA
ENDBRANCH  25  28
ENDBRANCH   1  25
TORSDOF 5
ENDMDL
MODEL 3
REMARK VINA RESULT:      -7.7      2.339      3.713
REMARK  Name = 
REMARK  9 active torsions:
REMARK  status: ('A' for Active; 'I' for Inactive)
REMARK    1  A    between atoms: C_1  and  O_2
REMARK    2  A    between atoms: O_2  and  C_3
REMARK    3  A    between atoms: C_3  and  C_5
REMARK    4  A    between atoms: C_6  and  N_7
REMARK    5  A    between atoms: C_8  and  C_10
REMARK    6  A    between atoms: C_20  and  C_21
REMARK    7  A    between atoms: N_23  and  C_24
REMARK    8  A    between atoms: N_23  and  C_25
REMARK    9  A    between atoms: C_26  and  C_27
REMARK                            x       y       z     vdW  Elec       q    Type
REMARK                         _______ _______ _______ _____ _____    ______ ____
ROOT
ATOM      1  C   UNL     1       5.878   5.752  17.866  0.00  0.00    +0.000 A 
ATOM      2  C   UNL     1       5.001   6.645  17.280  0.00  0.00    +0.000 A 
ATOM      3  S   UNL     1       5.007   6.565  15.584  0.00  0.00    +0.000 S 
ATOM      4  C   UNL     1       6.450   5.635  15.545  0.00  0.00    +0.000 A 
ATOM      5  C   UNL     1       6.756   5.181  16.839  0.00  0.00    +0.000 A 
ATOM      6  C   UNL     1       7.838   4.188  17.177  0.00  0.00    +0.000 C 
ENDROOT
BRANCH   4   7
ATOM      7  C   UNL     1       7.095   5.189  14.292  0.00  0.00    +0.000 C 
ATOM      8  O   UNL     1       8.204   5.655  14.000  0.00  0.00    +0.000 OA
ATOM      9  N   UNL     1       6.500   4.298  13.375  0.00  0.00    +0.000 N 
ATOM     10  C   UNL     1       5.253   3.561  13.502  0.00  0.00    +0.000 C 
ATOM     11  C   UNL     1       7.220   4.023  12.132  0.00  0.00    +0.000 C 
ENDBRANCH   4   7
BRANCH   2  12
ATOM     12  N   UNL     1       4.110   7.565  17.805  0.00  0.00    +0.000 N 
ATOM     13  C   UNL     1       2.806   7.166  18.088  0.00  0.00    +0.000 C 
ATOM     14  O   UNL     1       2.396   6.015  17.926  0.00  0.00    +0.000 OA
ATOM     15  H   UNL     1       4.460   8.358  18.332  0.00  0.00    +0.000 HD
BRANCH  13  16
ATOM     16  C   UNL     1       1.949   8.236  18.655  0.00  0.00    +0.000 A 
ATOM     17  N   UNL     1       1.352   9.216  17.892  0.00  0.00    +0.000 NA
ATOM     18  C   UNL     1       0.632   9.904  18.761  0.00  0.00    +0.000 A 
ATOM     19  N   UNL     1      -0.207  10.965  18.569  0.00  0.00    +0.000 NA
ATOM     20  C   UNL     1      -0.801  11.427  19.629  0.00  0.00    +0.000 A 
ATOM     21  C   UNL     1      -0.641  10.920  21.023  0.00  0.00    +0.000 A 
ATOM     22  C   UNL     1       0.197   9.885  21.151  0.00  0.00    +0.000 A 
ATOM     23  N   UNL     1       0.832   9.362  20.036  0.00  0.00    +0.000 N 
ATOM     24  N   UNL     1       1.682   8.319  19.971  0.00  0.00    +0.000 NA
ENDBRANCH  13  16
ENDBRANCH   2  12
BRANCH   1  25
ATOM     25  C   UNL     1       5.915   5.371  19.297  0.00  0.00    +0.000 C 
ATOM     26  O   UNL     1       6.929   5.446  19.980  0.00  0.00    +0.000 OA
BRANCH  25  28
ATOM     27  C   UNL     1       4.469   3.495  19.364  0.00  0.00    +0.000 C 
ATOM     28  O   UNL     1       4.744   4.841  19.769  0.00  0.00    +0.000 OA
ENDBRANCH  25  28
ENDBRANCH   1  25
TORSDOF 5
ENDMDL
MODEL 4
REMARK VINA RESULT:      -7.7      1.569      2.095
REMARK  Name = 
REMARK  9 active torsions:
REMARK  status: ('A' for Active; 'I' for Inactive)
REMARK    1  A    between atoms: C_1  and  O_2
REMARK    2  A    between atoms: O_2  and  C_3
REMARK    3  A    between atoms: C_3  and  C_5
REMARK    4  A    between atoms: C_6  and  N_7
REMARK    5  A    between atoms: C_8  and  C_10
REMARK    6  A    between atoms: C_20  and  C_21
REMARK    7  A    between atoms: N_23  and  C_24
REMARK    8  A    between atoms: N_23  and  C_25
REMARK    9  A    between atoms: C_26  and  C_27
REMARK                            x       y       z     vdW  Elec       q    Type
REMARK                         _______ _______ _______ _____ _____    ______ ____
ROOT
ATOM      1  C   UNL     1       2.752   5.238  18.984  0.00  0.00    +0.000 A 
ATOM      2  C   UNL     1       2.772   6.620  18.945  0.00  0.00    +0.000 A 
ATOM      3  S   UNL     1       3.678   7.232  17.646  0.00  0.00    +0.000 S 
ATOM      4  C   UNL     1       4.406   5.712  17.320  0.00  0.00    +0.000 A 
ATOM      5  C   UNL     1       3.744   4.707  18.044  0.00  0.00    +0.000 A 
ATOM      6  C   UNL     1       3.974   3.226  17.880  0.00  0.00    +0.000 C 
ENDROOT
BRANCH   4   7
ATOM      7  C   UNL     1       5.398   5.501  16.245  0.00  0.00    +0.000 C 
ATOM      8  O   UNL     1       5.045   5.678  15.072  0.00  0.00    +0.000 OA
ATOM      9  N   UNL     1       6.718   5.058  16.469  0.00  0.00    +0.000 N 
ATOM     10  C   UNL     1       7.402   4.843  17.735  0.00  0.00    +0.000 C 
ATOM     11  C   UNL     1       7.557   4.803  15.298  0.00  0.00    +0.000 C 
ENDBRANCH   4   7
BRANCH   2  12
ATOM     12  N   UNL     1       2.182   7.589  19.737  0.00  0.00    +0.000 N 
ATOM     13  C   UNL     1       1.516   8.652  19.131  0.00  0.00    +0.000 C 
ATOM     14  O   UNL     1       1.390   8.770  17.910  0.00  0.00    +0.000 OA
ATOM     15  H   UNL     1       1.889   7.356  20.680  0.00  0.00    +0.000 HD
BRANCH  13  16
ATOM     16  C   UNL     1       0.917   9.620  20.082  0.00  0.00    +0.000 A 
ATOM     17  N   UNL     1       0.988  10.987  19.921  0.00  0.00    +0.000 NA
ATOM     18  C   UNL     1       0.276  11.464  20.927  0.00  0.00    +0.000 A 
ATOM     19  N   UNL     1      -0.042  12.753  21.250  0.00  0.00    +0.000 NA
ATOM     20  C   UNL     1      -0.784  12.915  22.305  0.00  0.00    +0.000 A 
ATOM     21  C   UNL     1      -1.305  11.835  23.193  0.00  0.00    +0.000 A 
ATOM     22  C   UNL     1      -0.957  10.595  22.831  0.00  0.00    +0.000 A 
ATOM     23  N   UNL     1      -0.178  10.392  21.703  0.00  0.00    +0.000 N 
ATOM     24  N   UNL     1       0.245   9.225  21.179  0.00  0.00    +0.000 NA
ENDBRANCH  13  16
ENDBRANCH   2  12
BRANCH   1  25
ATOM     25  C   UNL     1       1.845   4.398  19.800  0.00  0.00    +0.000 C 
ATOM     26  O   UNL     1       0.843   3.863  19.342  0.00  0.00    +0.000 OA
BRANCH  25  28
ATOM     27  C   UNL     1       2.184   3.035  21.707  0.00  0.00    +0.000 C 
ATOM     28  O   UNL     1       2.170   4.345  21.128  0.00  0.00    +0.000 OA
ENDBRANCH  25  28
ENDBRANCH   1  25
TORSDOF 5
ENDMDL
MODEL 5
REMARK VINA RESULT:      -7.7      0.807      1.086
REMARK  Name = 
REMARK  9 active torsions:
REMARK  status: ('A' for Active; 'I' for Inactive)
REMARK    1  A    between atoms: C_1  and  O_2
REMARK    2  A    between atoms: O_2  and  C_3
REMARK    3  A    between atoms: C_3  and  C_5
REMARK    4  A    between atoms: C_6  and  N_7
REMARK    5  A    between atoms: C_8  and  C_10
REMARK    6  A    between atoms: C_20  and  C_21
REMARK    7  A    between atoms: N_23  and  C_24
REMARK    8  A    between atoms: N_23  and  C_25
REMARK    9  A    between atoms: C_26  and  C_27
REMARK                            x       y       z     vdW  Elec       q    Type
REMARK                         _______ _______ _______ _____ _____    ______ ____
ROOT
ATOM      1  C   UNL     1       2.755   4.386  20.391  0.00  0.00    +0.000 A 
ATOM      2  C   UNL     1       2.556   5.709  20.043  0.00  0.00    +0.000 A 
ATOM      3  S   UNL     1       3.434   6.170  18.665  0.00  0.00    +0.000 S 
ATOM      4  C   UNL     1       4.415   4.762  18.708  0.00  0.00    +0.000 A 
ATOM      5  C   UNL     1       3.878   3.840  19.622  0.00  0.00    +0.000 A 
ATOM      6  C   UNL     1       4.351   2.419  19.801  0.00  0.00    +0.000 C 
ENDROOT
BRANCH   4   7
ATOM      7  C   UNL     1       5.496   4.494  17.736  0.00  0.00    +0.000 C 
ATOM      8  O   UNL     1       5.220   3.868  16.705  0.00  0.00    +0.000 OA
ATOM      9  N   UNL     1       6.841   4.867  17.933  0.00  0.00    +0.000 N 
ATOM     10  C   UNL     1       7.417   5.660  19.008  0.00  0.00    +0.000 C 
ATOM     11  C   UNL     1       7.815   4.450  16.925  0.00  0.00    +0.000 C 
ENDBRANCH   4   7
BRANCH   2  12
ATOM     12  N   UNL     1       1.769   6.712  20.582  0.00  0.00    +0.000 N 
ATOM     13  C   UNL     1       1.724   7.954  19.953  0.00  0.00    +0.000 C 
ATOM     14  O   UNL     1       2.328   8.212  18.910  0.00  0.00    +0.000 OA
ATOM     15  H   UNL     1       0.965   6.467  21.150  0.00  0.00    +0.000 HD
BRANCH  13  16
ATOM     16  C   UNL     1       0.840   8.942  20.617  0.00  0.00    +0.000 A 
ATOM     17  N   UNL     1       0.725   9.062  21.985  0.00  0.00    +0.000 NA
ATOM     18  C   UNL     1      -0.089  10.090  22.149  0.00  0.00    +0.000 A 
ATOM     19  N   UNL     1      -0.527  10.696  23.293  0.00  0.00    +0.000 NA
ATOM     20  C   UNL     1      -1.321  11.713  23.137  0.00  0.00    +0.000 A 
ATOM     21  C   UNL     1      -1.804  12.266  21.838  0.00  0.00    +0.000 A 
ATOM     22  C   UNL     1      -1.347  11.630  20.753  0.00  0.00    +0.000 A 
ATOM     23  N   UNL     1      -0.488  10.551  20.889  0.00  0.00    +0.000 N 
ATOM     24  N   UNL     1       0.085   9.811  19.919  0.00  0.00    +0.000 NA
ENDBRANCH  13  16
ENDBRANCH   2  12
BRANCH   1  25
ATOM     25  C   UNL     1       1.943   3.600  21.350  0.00  0.00    +0.000 C 
ATOM     26  O   UNL     1       2.340   3.299  22.468  0.00  0.00    +0.000 OA
BRANCH  25  28
ATOM     27  C   UNL     1       0.758   2.793  19.464  0.00  0.00    +0.000 C 
ATOM     28  O   UNL     1       0.748   3.162  20.847  0.00  0.00    +0.000 OA
ENDBRANCH  25  28
ENDBRANCH   1  25
TORSDOF 5
ENDMDL
MODEL 6
REMARK VINA RESULT:      -7.7      5.084      7.588
REMARK  Name = 
REMARK  9 active torsions:
REMARK  status: ('A' for Active; 'I' for Inactive)
REMARK    1  A    between atoms: C_1  and  O_2
REMARK    2  A    between atoms: O_2  and  C_3
REMARK    3  A    between atoms: C_3  and  C_5
REMARK    4  A    between atoms: C_6  and  N_7
REMARK    5  A    between atoms: C_8  and  C_10
REMARK    6  A    between atoms: C_20  and  C_21
REMARK    7  A    between atoms: N_23  and  C_24
REMARK    8  A    between atoms: N_23  and  C_25
REMARK    9  A    between atoms: C_26  and  C_27
REMARK                            x       y       z     vdW  Elec       q    Type
REMARK                         _______ _______ _______ _____ _____    ______ ____
ROOT
ATOM      1  C   UNL     1       5.767   5.306  16.600  0.00  0.00    +0.000 A 
ATOM      2  C   UNL     1       5.599   6.425  17.394  0.00  0.00    +0.000 A 
ATOM      3  S   UNL     1       4.286   6.289  18.461  0.00  0.00    +0.000 S 
ATOM      4  C   UNL     1       3.647   4.921  17.644  0.00  0.00    +0.000 A 
ATOM      5  C   UNL     1       4.594   4.434  16.727  0.00  0.00    +0.000 A 
ATOM      6  C   UNL     1       4.474   3.143  15.959  0.00  0.00    +0.000 C 
ENDROOT
BRANCH   4   7
ATOM      7  C   UNL     1       2.402   4.239  18.053  0.00  0.00    +0.000 C 
ATOM      8  O   UNL     1       1.375   4.439  17.391  0.00  0.00    +0.000 OA
ATOM      9  N   UNL     1       2.296   3.408  19.187  0.00  0.00    +0.000 N 
ATOM     10  C   UNL     1       3.347   2.957  20.085  0.00  0.00    +0.000 C 
ATOM     11  C   UNL     1       0.973   2.878  19.519  0.00  0.00    +0.000 C 
ENDBRANCH   4   7
BRANCH   2  12
ATOM     12  N   UNL     1       6.303   7.612  17.502  0.00  0.00    +0.000 N 
ATOM     13  C   UNL     1       7.514   7.625  18.189  0.00  0.00    +0.000 C 
ATOM     14  O   UNL     1       8.024   6.621  18.691  0.00  0.00    +0.000 OA
ATOM     15  H   UNL     1       6.177   8.335  16.802  0.00  0.00    +0.000 HD
BRANCH  13  16
ATOM     16  C   UNL     1       8.179   8.950  18.229  0.00  0.00    +0.000 A 
ATOM     17  N   UNL     1       7.784  10.023  17.459  0.00  0.00    +0.000 NA
ATOM     18  C   UNL     1       8.576  11.006  17.849  0.00  0.00    +0.000 A 
ATOM     19  N   UNL     1       8.612  12.316  17.465  0.00  0.00    +0.000 NA
ATOM     20  C   UNL     1       9.504  13.062  18.047  0.00  0.00    +0.000 A 
ATOM     21  C   UNL     1      10.490  12.620  19.075  0.00  0.00    +0.000 A 
ATOM     22  C   UNL     1      10.412  11.326  19.408  0.00  0.00    +0.000 A 
ATOM     23  N   UNL     1       9.461  10.511  18.814  0.00  0.00    +0.000 N 
ATOM     24  N   UNL     1       9.223   9.204  19.039  0.00  0.00    +0.000 NA
ENDBRANCH  13  16
ENDBRANCH   2  12
BRANCH   1  25
ATOM     25  C   UNL     1       6.958   4.984  15.780  0.00  0.00    +0.000 C 
ATOM     26  O   UNL     1       7.948   4.426  16.235  0.00  0.00    +0.000 OA
BRANCH  25  28
ATOM     27  C   UNL     1       6.850   4.433  13.479  0.00  0.00    +0.000 C 
ATOM     28  O   UNL     1       6.895   5.443  14.492  0.00  0.00    +0.000 OA
ENDBRANCH  25  28
ENDBRANCH   1  25
TORSDOF 5
ENDMDL
MODEL 7
REMARK VINA RESULT:      -7.6      1.353      1.619
REMARK  Name = 
REMARK  9 active torsions:
REMARK  status: ('A' for Active; 'I' for Inactive)
REMARK    1  A    between atoms: C_1  and  O_2
REMARK    2  A    between atoms: O_2  and  C_3
REMARK    3  A    between atoms: C_3  and  C_5
REMARK    4  A    between atoms: C_6  and  N_7
REMARK    5  A    between atoms: C_8  and  C_10
REMARK    6  A    between atoms: C_20  and  C_21
REMARK    7  A    between atoms: N_23  and  C_24
REMARK    8  A    between atoms: N_23  and  C_25
REMARK    9  A    between atoms: C_26  and  C_27
REMARK                            x       y       z     vdW  Elec       q    Type
REMARK                         _______ _______ _______ _____ _____    ______ ____
ROOT
ATOM      1  C   UNL     1       2.730   4.942  18.510  0.00  0.00    +0.000 A 
ATOM      2  C   UNL     1       2.884   6.303  18.695  0.00  0.00    +0.000 A 
ATOM      3  S   UNL     1       4.203   6.943  17.839  0.00  0.00    +0.000 S 
ATOM      4  C   UNL     1       4.859   5.391  17.510  0.00  0.00    +0.000 A 
ATOM      5  C   UNL     1       3.916   4.402  17.837  0.00  0.00    +0.000 A 
ATOM      6  C   UNL     1       4.052   2.934  17.518  0.00  0.00    +0.000 C 
ENDROOT
BRANCH   4   7
ATOM      7  C   UNL     1       6.115   5.181  16.762  0.00  0.00    +0.000 C 
ATOM      8  O   UNL     1       7.189   5.298  17.366  0.00  0.00    +0.000 OA
ATOM      9  N   UNL     1       6.171   4.905  15.380  0.00  0.00    +0.000 N 
ATOM     10  C   UNL     1       5.075   4.651  14.459  0.00  0.00    +0.000 C 
ATOM     11  C   UNL     1       7.493   4.816  14.759  0.00  0.00    +0.000 C 
ENDBRANCH   4   7
BRANCH   2  12
ATOM     12  N   UNL     1       2.164   7.239  19.418  0.00  0.00    +0.000 N 
ATOM     13  C   UNL     1       1.705   8.387  18.778  0.00  0.00    +0.000 C 
ATOM     14  O   UNL     1       1.876   8.613  17.578  0.00  0.00    +0.000 OA
ATOM     15  H   UNL     1       1.647   6.947  20.241  0.00  0.00    +0.000 HD
BRANCH  13  16
ATOM     16  C   UNL     1       0.938   9.308  19.651  0.00  0.00    +0.000 A 
ATOM     17  N   UNL     1       1.006   9.284  21.028  0.00  0.00    +0.000 NA
ATOM     18  C   UNL     1       0.244  10.296  21.404  0.00  0.00    +0.000 A 
ATOM     19  N   UNL     1      -0.026  10.781  22.652  0.00  0.00    +0.000 NA
ATOM     20  C   UNL     1      -0.810  11.817  22.708  0.00  0.00    +0.000 A 
ATOM     21  C   UNL     1      -1.445  12.509  21.549  0.00  0.00    +0.000 A 
ATOM     22  C   UNL     1      -1.150  11.986  20.353  0.00  0.00    +0.000 A 
ATOM     23  N   UNL     1      -0.305  10.891  20.262  0.00  0.00    +0.000 N 
ATOM     24  N   UNL     1       0.118  10.253  19.154  0.00  0.00    +0.000 NA
ENDBRANCH  13  16
ENDBRANCH   2  12
BRANCH   1  25
ATOM     25  C   UNL     1       1.541   4.137  18.875  0.00  0.00    +0.000 C 
ATOM     26  O   UNL     1       0.960   3.409  18.079  0.00  0.00    +0.000 OA
BRANCH  25  28
ATOM     27  C   UNL     1       1.810   3.653  21.178  0.00  0.00    +0.000 C 
ATOM     28  O   UNL     1       1.091   4.345  20.151  0.00  0.00    +0.000 OA
ENDBRANCH  25  28
ENDBRANCH   1  25
TORSDOF 5
ENDMDL
MODEL 8
REMARK VINA RESULT:      -7.6      0.992      1.557
REMARK  Name = 
REMARK  9 active torsions:
REMARK  status: ('A' for Active; 'I' for Inactive)
REMARK    1  A    between atoms: C_1  and  O_2
REMARK    2  A    between atoms: O_2  and  C_3
REMARK    3  A    between atoms: C_3  and  C_5
REMARK    4  A    between atoms: C_6  and  N_7
REMARK    5  A    between atoms: C_8  and  C_10
REMARK    6  A    between atoms: C_20  and  C_21
REMARK    7  A    between atoms: N_23  and  C_24
REMARK    8  A    between atoms: N_23  and  C_25
REMARK    9  A    between atoms: C_26  and  C_27
REMARK                            x       y       z     vdW  Elec       q    Type
REMARK                         _______ _______ _______ _____ _____    ______ ____
ROOT
ATOM      1  C   UNL     1       2.783   4.537  20.224  0.00  0.00    +0.000 A 
ATOM      2  C   UNL     1       2.602   5.868  19.895  0.00  0.00    +0.000 A 
ATOM      3  S   UNL     1       3.424   6.318  18.480  0.00  0.00    +0.000 S 
ATOM      4  C   UNL     1       4.370   4.886  18.466  0.00  0.00    +0.000 A 
ATOM      5  C   UNL     1       3.854   3.970  19.398  0.00  0.00    +0.000 A 
ATOM      6  C   UNL     1       4.299   2.537  19.544  0.00  0.00    +0.000 C 
ENDROOT
BRANCH   4   7
ATOM      7  C   UNL     1       5.396   4.599  17.441  0.00  0.00    +0.000 C 
ATOM      8  O   UNL     1       5.051   4.010  16.409  0.00  0.00    +0.000 OA
ATOM      9  N   UNL     1       6.763   4.912  17.588  0.00  0.00    +0.000 N 
ATOM     10  C   UNL     1       7.417   5.654  18.654  0.00  0.00    +0.000 C 
ATOM     11  C   UNL     1       7.675   4.481  16.528  0.00  0.00    +0.000 C 
ENDBRANCH   4   7
BRANCH   2  12
ATOM     12  N   UNL     1       1.867   6.886  20.478  0.00  0.00    +0.000 N 
ATOM     13  C   UNL     1       1.690   8.080  19.785  0.00  0.00    +0.000 C 
ATOM     14  O   UNL     1       2.128   8.281  18.650  0.00  0.00    +0.000 OA
ATOM     15  H   UNL     1       1.162   6.661  21.172  0.00  0.00    +0.000 HD
BRANCH  13  16
ATOM     16  C   UNL     1       0.877   9.090  20.506  0.00  0.00    +0.000 A 
ATOM     17  N   UNL     1       0.420  10.254  19.925  0.00  0.00    +0.000 NA
ATOM     18  C   UNL     1      -0.309  10.818  20.872  0.00  0.00    +0.000 A 
ATOM     19  N   UNL     1      -1.045  11.969  20.851  0.00  0.00    +0.000 NA
ATOM     20  C   UNL     1      -1.681  12.264  21.946  0.00  0.00    +0.000 A 
ATOM     21  C   UNL     1      -1.670  11.478  23.214  0.00  0.00    +0.000 A 
ATOM     22  C   UNL     1      -0.929  10.365  23.177  0.00  0.00    +0.000 A 
ATOM     23  N   UNL     1      -0.251  10.018  22.019  0.00  0.00    +0.000 N 
ATOM     24  N   UNL     1       0.517   8.934  21.793  0.00  0.00    +0.000 NA
ENDBRANCH  13  16
ENDBRANCH   2  12
BRANCH   1  25
ATOM     25  C   UNL     1       1.999   3.765  21.215  0.00  0.00    +0.000 C 
ATOM     26  O   UNL     1       2.464   3.382  22.281  0.00  0.00    +0.000 OA
BRANCH  25  28
ATOM     27  C   UNL     1       0.665   2.657  19.600  0.00  0.00    +0.000 C 
ATOM     28  O   UNL     1       0.736   3.436  20.800  0.00  0.00    +0.000 OA
ENDBRANCH  25  28
ENDBRANCH   1  25
TORSDOF 5
ENDMDL
MODEL 9
REMARK VINA RESULT:      -7.6      0.656      1.209
REMARK  Name = 
REMARK  9 active torsions:
REMARK  status: ('A' for Active; 'I' for Inactive)
REMARK    1  A    between atoms: C_1  and  O_2
REMARK    2  A    between atoms: O_2  and  C_3
REMARK    3  A    between atoms: C_3  and  C_5
REMARK    4  A    between atoms: C_6  and  N_7
REMARK    5  A    between atoms: C_8  and  C_10
REMARK    6  A    between atoms: C_20  and  C_21
REMARK    7  A    between atoms: N_23  and  C_24
REMARK    8  A    between atoms: N_23  and  C_25
REMARK    9  A    between atoms: C_26  and  C_27
REMARK                            x       y       z     vdW  Elec       q    Type
REMARK                         _______ _______ _______ _____ _____    ______ ____
ROOT
ATOM      1  C   UNL     1       2.905   4.845  20.145  0.00  0.00    +0.000 A 
ATOM      2  C   UNL     1       2.859   6.213  19.951  0.00  0.00    +0.000 A 
ATOM      3  S   UNL     1       3.960   6.753  18.776  0.00  0.00    +0.000 S 
ATOM      4  C   UNL     1       4.815   5.264  18.764  0.00  0.00    +0.000 A 
ATOM      5  C   UNL     1       4.083   4.293  19.467  0.00  0.00    +0.000 A 
ATOM      6  C   UNL     1       4.416   2.824  19.519  0.00  0.00    +0.000 C 
ENDROOT
BRANCH   4   7
ATOM      7  C   UNL     1       6.001   5.016  17.918  0.00  0.00    +0.000 C 
ATOM      8  O   UNL     1       7.115   5.332  18.357  0.00  0.00    +0.000 OA
ATOM      9  N   UNL     1       5.940   4.484  16.614  0.00  0.00    +0.000 N 
ATOM     10  C   UNL     1       4.785   3.972  15.894  0.00  0.00    +0.000 C 
ATOM     11  C   UNL     1       7.192   4.384  15.863  0.00  0.00    +0.000 C 
ENDBRANCH   4   7
BRANCH   2  12
ATOM     12  N   UNL     1       2.080   7.214  20.506  0.00  0.00    +0.000 N 
ATOM     13  C   UNL     1       1.607   8.239  19.692  0.00  0.00    +0.000 C 
ATOM     14  O   UNL     1       1.816   8.298  18.478  0.00  0.00    +0.000 OA
ATOM     15  H   UNL     1       1.543   7.023  21.345  0.00  0.00    +0.000 HD
BRANCH  13  16
ATOM     16  C   UNL     1       0.777   9.246  20.398  0.00  0.00    +0.000 A 
ATOM     17  N   UNL     1       0.260  10.368  19.787  0.00  0.00    +0.000 NA
ATOM     18  C   UNL     1      -0.464  10.942  20.733  0.00  0.00    +0.000 A 
ATOM     19  N   UNL     1      -1.244  12.062  20.690  0.00  0.00    +0.000 NA
ATOM     20  C   UNL     1      -1.861  12.376  21.790  0.00  0.00    +0.000 A 
ATOM     21  C   UNL     1      -1.786  11.640  23.086  0.00  0.00    +0.000 A 
ATOM     22  C   UNL     1      -1.003  10.555  23.070  0.00  0.00    +0.000 A 
ATOM     23  N   UNL     1      -0.345  10.189  21.907  0.00  0.00    +0.000 N 
ATOM     24  N   UNL     1       0.457   9.126  21.700  0.00  0.00    +0.000 NA
ENDBRANCH  13  16
ENDBRANCH   2  12
BRANCH   1  25
ATOM     25  C   UNL     1       1.906   4.030  20.873  0.00  0.00    +0.000 C 
ATOM     26  O   UNL     1       2.131   3.520  21.964  0.00  0.00    +0.000 OA
BRANCH  25  28
ATOM     27  C   UNL     1       0.718   2.648  19.360  0.00  0.00    +0.000 C 
ATOM     28  O   UNL     1       0.742   3.818  20.185  0.00  0.00    +0.000 OA
ENDBRANCH  25  28
ENDBRANCH   1  25
TORSDOF 5
ENDMDL
