MODEL 1
REMARK VINA RESULT:      -7.5      0.000      0.000
REMARK  Name = 
REMARK  17 active torsions:
REMARK  status: ('A' for Active; 'I' for Inactive)
REMARK    1  A    between atoms: CD1_1  and  CG_2
REMARK    2  A    between atoms: CG_2  and  CD2_3
REMARK    3  A    between atoms: CG_2  and  CB_4
REMARK    4  A    between atoms: CB_4  and  CA_5
REMARK    5  A    between atoms: CA_5  and  N_6
REMARK    6  A    between atoms: CA_5  and  C_32
REMARK    7  A    between atoms: C_7  and  CA_9
REMARK    8  A    between atoms: CA_9  and  N_10
REMARK    9  A    between atoms: CA_9  and  CB_29
REMARK   10  A    between atoms: C_11  and  C_13
REMARK   11  A    between atoms: C_17  and  C_18
REMARK   12  A    between atoms: C_17  and  C_19
REMARK   13  A    between atoms: C_24  and  C_25
REMARK   14  A    between atoms: C_24  and  C_26
REMARK   15  A    between atoms: CB_29  and  CG1_30
REMARK   16  A    between atoms: CB_29  and  CG2_31
REMARK   17  A    between atoms: C_32  and  OXT_34
REMARK                            x       y       z     vdW  Elec       q    Type
REMARK                         _______ _______ _______ _____ _____    ______ ____
ROOT
ATOM      1  N   VAL A   1       1.973   7.718  19.155  0.00  0.00    +0.000 N 
ATOM      2  C   UNK A   0       1.418   8.656  19.990  0.00  0.00    +0.000 C 
ATOM      3  O   UNK A   0       1.506   8.549  21.214  0.00  0.00    +0.000 OA
ATOM      4  H   VAL A   1       2.082   7.961  18.170  0.00  0.00    +0.000 HD
ENDROOT
BRANCH   2   5
ATOM      5  C   UNK A   0       0.627   9.758  19.301  0.00  0.00    +0.000 C 
ATOM      6  O   UNK A   0      -0.729   9.340  19.159  0.00  0.00    +0.000 OA
ATOM      7  C   UNK A   0      -1.278   9.994  18.040  0.00  0.00    +0.000 C 
ATOM      8  O   UNK A   0      -2.692   9.884  17.966  0.00  0.00    +0.000 OA
ATOM      9  C   UNK A   0      -3.049  10.998  17.148  0.00  0.00    +0.000 C 
ATOM     10  C   UNK A   0      -4.539  11.285  17.280  0.00  0.00    +0.000 C 
ATOM     11  C   UNK A   0      -2.735  10.674  15.676  0.00  0.00    +0.000 C 
ATOM     12  O   UNK A   0      -2.245  12.103  17.590  0.00  0.00    +0.000 OA
ATOM     13  C   UNK A   0      -0.989  11.504  17.990  0.00  0.00    +0.000 C 
ATOM     14  C   UNK A   0      -0.409  12.056  19.311  0.00  0.00    +0.000 C 
ATOM     15  O   UNK A   0       0.380  13.250  19.078  0.00  0.00    +0.000 OA
ATOM     16  C   UNK A   0       1.486  13.163  19.982  0.00  0.00    +0.000 C 
ATOM     17  C   UNK A   0       1.080  13.704  21.359  0.00  0.00    +0.000 C 
ATOM     18  C   UNK A   0       2.686  13.957  19.472  0.00  0.00    +0.000 C 
ATOM     19  O   UNK A   0       1.829  11.774  20.070  0.00  0.00    +0.000 OA
ATOM     20  C   UNK A   0       0.566  11.095  20.022  0.00  0.00    +0.000 C 
ENDBRANCH   2   5
BRANCH   1  21
ATOM     21  CA  VAL A   1       2.747   6.593  19.690  0.00  0.00    +0.000 C 
BRANCH  21  23
ATOM     22  N   VAL A   1       5.017   5.755  19.172  0.00  0.00    +0.000 N 
ATOM     23  C   VAL A   1       3.904   6.406  18.677  0.00  0.00    +0.000 C 
ATOM     24  O   VAL A   1       3.946   6.945  17.572  0.00  0.00    +0.000 OA
ATOM     25  H   VAL A   1       5.044   5.602  20.186  0.00  0.00    +0.000 HD
BRANCH  22  26
ATOM     26  CA  VAL A   1       6.293   5.663  18.451  0.00  0.00    +0.000 C 
BRANCH  26  27
ATOM     27  C   VAL A   1       7.490   5.931  19.387  0.00  0.00    +0.000 C 
ATOM     28  O   VAL A   1       7.743   5.309  20.409  0.00  0.00    +0.000 OA
BRANCH  27  29
ATOM     29  OXT VAL A   1       8.333   6.899  18.929  0.00  0.00    +0.000 OA
ATOM     30  HXT VAL A   1       8.518   6.791  17.962  0.00  0.00    +0.000 HD
ENDBRANCH  27  29
ENDBRANCH  26  27
BRANCH  26  31
ATOM     31  CB  VAL A   1       6.454   4.289  17.772  0.00  0.00    +0.000 C 
BRANCH  31  33
ATOM     32  CD1 VAL A   1       4.911   4.047  15.748  0.00  0.00    +0.000 C 
ATOM     33  CG  VAL A   1       6.338   4.294  16.233  0.00  0.00    +0.000 C 
ATOM     34  CD2 VAL A   1       6.843   5.631  15.680  0.00  0.00    +0.000 C 
ENDBRANCH  31  33
ENDBRANCH  26  31
ENDBRANCH  22  26
ENDBRANCH  21  23
BRANCH  21  35
ATOM     35  CB  VAL A   1       1.826   5.362  19.850  0.00  0.00    +0.000 C 
ATOM     36  CG1 VAL A   1       1.850   4.448  18.624  0.00  0.00    +0.000 C 
ATOM     37  CG2 VAL A   1       2.225   4.536  21.086  0.00  0.00    +0.000 C 
ENDBRANCH  21  35
ENDBRANCH   1  21
TORSDOF 9
ENDMDL
MODEL 2
REMARK VINA RESULT:      -7.4      0.967      1.277
REMARK  Name = 
REMARK  17 active torsions:
REMARK  status: ('A' for Active; 'I' for Inactive)
REMARK    1  A    between atoms: CD1_1  and  CG_2
REMARK    2  A    between atoms: CG_2  and  CD2_3
REMARK    3  A    between atoms: CG_2  and  CB_4
REMARK    4  A    between atoms: CB_4  and  CA_5
REMARK    5  A    between atoms: CA_5  and  N_6
REMARK    6  A    between atoms: CA_5  and  C_32
REMARK    7  A    between atoms: C_7  and  CA_9
REMARK    8  A    between atoms: CA_9  and  N_10
REMARK    9  A    between atoms: CA_9  and  CB_29
REMARK   10  A    between atoms: C_11  and  C_13
REMARK   11  A    between atoms: C_17  and  C_18
REMARK   12  A    between atoms: C_17  and  C_19
REMARK   13  A    between atoms: C_24  and  C_25
REMARK   14  A    between atoms: C_24  and  C_26
REMARK   15  A    between atoms: CB_29  and  CG1_30
REMARK   16  A    between atoms: CB_29  and  CG2_31
REMARK   17  A    between atoms: C_32  and  OXT_34
REMARK                            x       y       z     vdW  Elec       q    Type
REMARK                         _______ _______ _______ _____ _____    ______ ____
ROOT
ATOM      1  N   VAL A   1       2.080   7.779  18.556  0.00  0.00    +0.000 N 
ATOM      2  C   UNK A   0       1.559   8.652  19.478  0.00  0.00    +0.000 C 
ATOM      3  O   UNK A   0       1.730   8.477  20.686  0.00  0.00    +0.000 OA
ATOM      4  H   VAL A   1       2.119   8.082  17.581  0.00  0.00    +0.000 HD
ENDROOT
BRANCH   2   5
ATOM      5  C   UNK A   0       0.700   9.771  18.908  0.00  0.00    +0.000 C 
ATOM      6  O   UNK A   0      -0.657   9.334  18.856  0.00  0.00    +0.000 OA
ATOM      7  C   UNK A   0      -1.305  10.029  17.816  0.00  0.00    +0.000 C 
ATOM      8  O   UNK A   0      -2.718   9.898  17.851  0.00  0.00    +0.000 OA
ATOM      9  C   UNK A   0      -3.156  11.042  17.118  0.00  0.00    +0.000 C 
ATOM     10  C   UNK A   0      -4.635  11.294  17.382  0.00  0.00    +0.000 C 
ATOM     11  C   UNK A   0      -2.957  10.791  15.612  0.00  0.00    +0.000 C 
ATOM     12  O   UNK A   0      -2.335  12.139  17.547  0.00  0.00    +0.000 OA
ATOM     13  C   UNK A   0      -1.043  11.545  17.816  0.00  0.00    +0.000 C 
ATOM     14  C   UNK A   0      -0.365  12.046  19.110  0.00  0.00    +0.000 C 
ATOM     15  O   UNK A   0       0.385  13.264  18.872  0.00  0.00    +0.000 OA
ATOM     16  C   UNK A   0       1.561  13.155  19.679  0.00  0.00    +0.000 C 
ATOM     17  C   UNK A   0       1.260  13.625  21.109  0.00  0.00    +0.000 C 
ATOM     18  C   UNK A   0       2.705  13.994  19.114  0.00  0.00    +0.000 C 
ATOM     19  O   UNK A   0       1.931  11.770  19.674  0.00  0.00    +0.000 OA
ATOM     20  C   UNK A   0       0.678  11.072  19.694  0.00  0.00    +0.000 C 
ENDBRANCH   2   5
BRANCH   1  21
ATOM     21  CA  VAL A   1       2.913   6.647  18.972  0.00  0.00    +0.000 C 
BRANCH  21  23
ATOM     22  N   VAL A   1       4.815   5.423  17.970  0.00  0.00    +0.000 N 
ATOM     23  C   VAL A   1       3.914   6.456  17.805  0.00  0.00    +0.000 C 
ATOM     24  O   VAL A   1       4.054   7.254  16.880  0.00  0.00    +0.000 OA
ATOM     25  H   VAL A   1       4.849   4.987  18.898  0.00  0.00    +0.000 HD
BRANCH  22  26
ATOM     26  CA  VAL A   1       5.973   5.205  17.091  0.00  0.00    +0.000 C 
BRANCH  26  27
ATOM     27  C   VAL A   1       7.202   4.721  17.888  0.00  0.00    +0.000 C 
ATOM     28  O   VAL A   1       8.209   4.226  17.403  0.00  0.00    +0.000 OA
BRANCH  27  29
ATOM     29  OXT VAL A   1       7.119   4.975  19.224  0.00  0.00    +0.000 OA
ATOM     30  HXT VAL A   1       6.560   4.302  19.688  0.00  0.00    +0.000 HD
ENDBRANCH  27  29
ENDBRANCH  26  27
BRANCH  26  31
ATOM     31  CB  VAL A   1       5.643   4.200  15.970  0.00  0.00    +0.000 C 
BRANCH  31  33
ATOM     32  CD1 VAL A   1       7.271   5.195  14.268  0.00  0.00    +0.000 C 
ATOM     33  CG  VAL A   1       5.841   4.725  14.533  0.00  0.00    +0.000 C 
ATOM     34  CD2 VAL A   1       5.465   3.633  13.525  0.00  0.00    +0.000 C 
ENDBRANCH  31  33
ENDBRANCH  26  31
ENDBRANCH  22  26
ENDBRANCH  21  23
BRANCH  21  35
ATOM     35  CB  VAL A   1       2.015   5.422  19.258  0.00  0.00    +0.000 C 
ATOM     36  CG1 VAL A   1       1.858   4.513  18.037  0.00  0.00    +0.000 C 
ATOM     37  CG2 VAL A   1       2.580   4.587  20.421  0.00  0.00    +0.000 C 
ENDBRANCH  21  35
ENDBRANCH   1  21
TORSDOF 9
ENDMDL
MODEL 3
REMARK VINA RESULT:      -7.3      2.372      8.482
REMARK  Name = 
REMARK  17 active torsions:
REMARK  status: ('A' for Active; 'I' for Inactive)
REMARK    1  A    between atoms: CD1_1  and  CG_2
REMARK    2  A    between atoms: CG_2  and  CD2_3
REMARK    3  A    between atoms: CG_2  and  CB_4
REMARK    4  A    between atoms: CB_4  and  CA_5
REMARK    5  A    between atoms: CA_5  and  N_6
REMARK    6  A    between atoms: CA_5  and  C_32
REMARK    7  A    between atoms: C_7  and  CA_9
REMARK    8  A    between atoms: CA_9  and  N_10
REMARK    9  A    between atoms: CA_9  and  CB_29
REMARK   10  A    between atoms: C_11  and  C_13
REMARK   11  A    between atoms: C_17  and  C_18
REMARK   12  A    between atoms: C_17  and  C_19
REMARK   13  A    between atoms: C_24  and  C_25
REMARK   14  A    between atoms: C_24  and  C_26
REMARK   15  A    between atoms: CB_29  and  CG1_30
REMARK   16  A    between atoms: CB_29  and  CG2_31
REMARK   17  A    between atoms: C_32  and  OXT_34
REMARK                            x       y       z     vdW  Elec       q    Type
REMARK                         _______ _______ _______ _____ _____    ______ ____
ROOT
ATOM      1  N   VAL A   1       1.207   9.218  19.014  0.00  0.00    +0.000 N 
ATOM      2  C   UNK A   0       2.148   8.706  18.155  0.00  0.00    +0.000 C 
ATOM      3  O   UNK A   0       2.416   9.274  17.095  0.00  0.00    +0.000 OA
ATOM      4  H   VAL A   1       1.185   8.857  19.968  0.00  0.00    +0.000 HD
ENDROOT
BRANCH   2   5
ATOM      5  C   UNK A   0       2.749   7.370  18.565  0.00  0.00    +0.000 C 
ATOM      6  O   UNK A   0       1.699   6.419  18.730  0.00  0.00    +0.000 OA
ATOM      7  C   UNK A   0       2.121   5.453  19.664  0.00  0.00    +0.000 C 
ATOM      8  O   UNK A   0       1.287   4.304  19.696  0.00  0.00    +0.000 OA
ATOM      9  C   UNK A   0       2.148   3.309  20.249  0.00  0.00    +0.000 C 
ATOM     10  C   UNK A   0       1.572   1.922  19.994  0.00  0.00    +0.000 C 
ATOM     11  C   UNK A   0       2.270   3.524  21.768  0.00  0.00    +0.000 C 
ATOM     12  O   UNK A   0       3.429   3.485  19.623  0.00  0.00    +0.000 OA
ATOM     13  C   UNK A   0       3.539   4.913  19.412  0.00  0.00    +0.000 C 
ATOM     14  C   UNK A   0       4.107   5.314  18.033  0.00  0.00    +0.000 C 
ATOM     15  O   UNK A   0       5.557   5.332  18.048  0.00  0.00    +0.000 OA
ATOM     16  C   UNK A   0       5.936   6.444  17.232  0.00  0.00    +0.000 C 
ATOM     17  C   UNK A   0       5.961   6.026  15.756  0.00  0.00    +0.000 C 
ATOM     18  C   UNK A   0       7.315   6.975  17.619  0.00  0.00    +0.000 C 
ATOM     19  O   UNK A   0       4.950   7.462  17.449  0.00  0.00    +0.000 OA
ATOM     20  C   UNK A   0       3.719   6.737  17.580  0.00  0.00    +0.000 C 
ENDBRANCH   2   5
BRANCH   1  21
ATOM     21  CA  VAL A   1       0.538  10.492  18.730  0.00  0.00    +0.000 C 
BRANCH  21  23
ATOM     22  N   VAL A   1       1.608  12.658  19.266  0.00  0.00    +0.000 N 
ATOM     23  C   VAL A   1       1.118  11.473  19.779  0.00  0.00    +0.000 C 
ATOM     24  O   VAL A   1       1.320  11.182  20.958  0.00  0.00    +0.000 OA
ATOM     25  H   VAL A   1       1.693  12.714  18.245  0.00  0.00    +0.000 HD
BRANCH  22  26
ATOM     26  CA  VAL A   1       2.386  13.625  20.052  0.00  0.00    +0.000 C 
BRANCH  26  27
ATOM     27  C   VAL A   1       3.528  14.241  19.217  0.00  0.00    +0.000 C 
ATOM     28  O   VAL A   1       4.430  14.938  19.658  0.00  0.00    +0.000 OA
BRANCH  27  29
ATOM     29  OXT VAL A   1       3.508  13.865  17.908  0.00  0.00    +0.000 OA
ATOM     30  HXT VAL A   1       3.999  13.017  17.766  0.00  0.00    +0.000 HD
ENDBRANCH  27  29
ENDBRANCH  26  27
BRANCH  26  31
ATOM     31  CB  VAL A   1       1.484  14.741  20.615  0.00  0.00    +0.000 C 
BRANCH  31  33
ATOM     32  CD1 VAL A   1      -1.009  15.278  20.803  0.00  0.00    +0.000 C 
ATOM     33  CG  VAL A   1       0.154  14.958  19.864  0.00  0.00    +0.000 C 
ATOM     34  CD2 VAL A   1       0.314  16.089  18.842  0.00  0.00    +0.000 C 
ENDBRANCH  31  33
ENDBRANCH  26  31
ENDBRANCH  22  26
ENDBRANCH  21  23
BRANCH  21  35
ATOM     35  CB  VAL A   1      -0.994  10.299  18.806  0.00  0.00    +0.000 C 
ATOM     36  CG1 VAL A   1      -1.714  11.533  19.352  0.00  0.00    +0.000 C 
ATOM     37  CG2 VAL A   1      -1.574   9.967  17.420  0.00  0.00    +0.000 C 
ENDBRANCH  21  35
ENDBRANCH   1  21
TORSDOF 9
ENDMDL
MODEL 4
REMARK VINA RESULT:      -7.1      0.804      1.152
REMARK  Name = 
REMARK  17 active torsions:
REMARK  status: ('A' for Active; 'I' for Inactive)
REMARK    1  A    between atoms: CD1_1  and  CG_2
REMARK    2  A    between atoms: CG_2  and  CD2_3
REMARK    3  A    between atoms: CG_2  and  CB_4
REMARK    4  A    between atoms: CB_4  and  CA_5
REMARK    5  A    between atoms: CA_5  and  N_6
REMARK    6  A    between atoms: CA_5  and  C_32
REMARK    7  A    between atoms: C_7  and  CA_9
REMARK    8  A    between atoms: CA_9  and  N_10
REMARK    9  A    between atoms: CA_9  and  CB_29
REMARK   10  A    between atoms: C_11  and  C_13
REMARK   11  A    between atoms: C_17  and  C_18
REMARK   12  A    between atoms: C_17  and  C_19
REMARK   13  A    between atoms: C_24  and  C_25
REMARK   14  A    between atoms: C_24  and  C_26
REMARK   15  A    between atoms: CB_29  and  CG1_30
REMARK   16  A    between atoms: CB_29  and  CG2_31
REMARK   17  A    between atoms: C_32  and  OXT_34
REMARK                            x       y       z     vdW  Elec       q    Type
REMARK                         _______ _______ _______ _____ _____    ______ ____
ROOT
ATOM      1  N   VAL A   1       2.210   7.679  18.498  0.00  0.00    +0.000 N 
ATOM      2  C   UNK A   0       1.694   8.599  19.376  0.00  0.00    +0.000 C 
ATOM      3  O   UNK A   0       1.918   8.519  20.585  0.00  0.00    +0.000 OA
ATOM      4  H   VAL A   1       2.199   7.909  17.504  0.00  0.00    +0.000 HD
ENDROOT
BRANCH   2   5
ATOM      5  C   UNK A   0       0.773   9.643  18.763  0.00  0.00    +0.000 C 
ATOM      6  O   UNK A   0      -0.579   9.210  18.902  0.00  0.00    +0.000 OA
ATOM      7  C   UNK A   0      -1.333   9.775  17.856  0.00  0.00    +0.000 C 
ATOM      8  O   UNK A   0      -2.735   9.655  18.049  0.00  0.00    +0.000 OA
ATOM      9  C   UNK A   0      -3.254  10.703  17.230  0.00  0.00    +0.000 C 
ATOM     10  C   UNK A   0      -4.700  10.992  17.609  0.00  0.00    +0.000 C 
ATOM     11  C   UNK A   0      -3.206  10.269  15.753  0.00  0.00    +0.000 C 
ATOM     12  O   UNK A   0      -2.402  11.841  17.436  0.00  0.00    +0.000 OA
ATOM     13  C   UNK A   0      -1.085  11.278  17.644  0.00  0.00    +0.000 C 
ATOM     14  C   UNK A   0      -0.284  11.931  18.792  0.00  0.00    +0.000 C 
ATOM     15  O   UNK A   0       0.429  13.107  18.332  0.00  0.00    +0.000 OA
ATOM     16  C   UNK A   0       1.681  13.092  19.024  0.00  0.00    +0.000 C 
ATOM     17  C   UNK A   0       1.522  13.735  20.408  0.00  0.00    +0.000 C 
ATOM     18  C   UNK A   0       2.755  13.851  18.247  0.00  0.00    +0.000 C 
ATOM     19  O   UNK A   0       2.059  11.715  19.150  0.00  0.00    +0.000 OA
ATOM     20  C   UNK A   0       0.820  11.030  19.383  0.00  0.00    +0.000 C 
ENDBRANCH   2   5
BRANCH   1  21
ATOM     21  CA  VAL A   1       3.100   6.608  18.960  0.00  0.00    +0.000 C 
BRANCH  21  23
ATOM     22  N   VAL A   1       5.406   5.952  18.351  0.00  0.00    +0.000 N 
ATOM     23  C   VAL A   1       4.263   6.607  17.937  0.00  0.00    +0.000 C 
ATOM     24  O   VAL A   1       4.279   7.284  16.910  0.00  0.00    +0.000 OA
ATOM     25  H   VAL A   1       5.442   5.672  19.337  0.00  0.00    +0.000 HD
BRANCH  22  26
ATOM     26  CA  VAL A   1       6.685   6.013  17.630  0.00  0.00    +0.000 C 
BRANCH  26  27
ATOM     27  C   VAL A   1       7.793   6.641  18.501  0.00  0.00    +0.000 C 
ATOM     28  O   VAL A   1       8.263   7.759  18.351  0.00  0.00    +0.000 OA
BRANCH  27  29
ATOM     29  OXT VAL A   1       8.168   5.858  19.551  0.00  0.00    +0.000 OA
ATOM     30  HXT VAL A   1       8.940   6.246  20.036  0.00  0.00    +0.000 HD
ENDBRANCH  27  29
ENDBRANCH  26  27
BRANCH  26  31
ATOM     31  CB  VAL A   1       7.123   4.616  17.147  0.00  0.00    +0.000 C 
BRANCH  31  33
ATOM     32  CD1 VAL A   1       4.985   3.564  16.221  0.00  0.00    +0.000 C 
ATOM     33  CG  VAL A   1       6.384   4.087  15.900  0.00  0.00    +0.000 C 
ATOM     34  CD2 VAL A   1       6.289   5.193  14.845  0.00  0.00    +0.000 C 
ENDBRANCH  31  33
ENDBRANCH  26  31
ENDBRANCH  22  26
ENDBRANCH  21  23
BRANCH  21  35
ATOM     35  CB  VAL A   1       2.312   5.281  19.041  0.00  0.00    +0.000 C 
ATOM     36  CG1 VAL A   1       1.429   5.198  20.288  0.00  0.00    +0.000 C 
ATOM     37  CG2 VAL A   1       1.424   5.093  17.799  0.00  0.00    +0.000 C 
ENDBRANCH  21  35
ENDBRANCH   1  21
TORSDOF 9
ENDMDL
MODEL 5
REMARK VINA RESULT:      -7.1      1.611      3.707
REMARK  Name = 
REMARK  17 active torsions:
REMARK  status: ('A' for Active; 'I' for Inactive)
REMARK    1  A    between atoms: CD1_1  and  CG_2
REMARK    2  A    between atoms: CG_2  and  CD2_3
REMARK    3  A    between atoms: CG_2  and  CB_4
REMARK    4  A    between atoms: CB_4  and  CA_5
REMARK    5  A    between atoms: CA_5  and  N_6
REMARK    6  A    between atoms: CA_5  and  C_32
REMARK    7  A    between atoms: C_7  and  CA_9
REMARK    8  A    between atoms: CA_9  and  N_10
REMARK    9  A    between atoms: CA_9  and  CB_29
REMARK   10  A    between atoms: C_11  and  C_13
REMARK   11  A    between atoms: C_17  and  C_18
REMARK   12  A    between atoms: C_17  and  C_19
REMARK   13  A    between atoms: C_24  and  C_25
REMARK   14  A    between atoms: C_24  and  C_26
REMARK   15  A    between atoms: CB_29  and  CG1_30
REMARK   16  A    between atoms: CB_29  and  CG2_31
REMARK   17  A    between atoms: C_32  and  OXT_34
REMARK                            x       y       z     vdW  Elec       q    Type
REMARK                         _______ _______ _______ _____ _____    ______ ____
ROOT
ATOM      1  N   VAL A   1       1.555   8.318  19.475  0.00  0.00    +0.000 N 
ATOM      2  C   UNK A   0       1.207   8.814  20.706  0.00  0.00    +0.000 C 
ATOM      3  O   UNK A   0       1.571   8.255  21.742  0.00  0.00    +0.000 OA
ATOM      4  H   VAL A   1       1.438   8.927  18.664  0.00  0.00    +0.000 HD
ENDROOT
BRANCH   2   5
ATOM      5  C   UNK A   0       0.285  10.024  20.687  0.00  0.00    +0.000 C 
ATOM      6  O   UNK A   0       1.012  11.170  21.126  0.00  0.00    +0.000 OA
ATOM      7  C   UNK A   0       0.102  12.077  21.701  0.00  0.00    +0.000 C 
ATOM      8  O   UNK A   0       0.655  13.368  21.910  0.00  0.00    +0.000 OA
ATOM      9  C   UNK A   0      -0.504  14.200  21.964  0.00  0.00    +0.000 C 
ATOM     10  C   UNK A   0      -0.107  15.659  21.784  0.00  0.00    +0.000 C 
ATOM     11  C   UNK A   0      -1.187  14.037  23.335  0.00  0.00    +0.000 C 
ATOM     12  O   UNK A   0      -1.381  13.744  20.921  0.00  0.00    +0.000 OA
ATOM     13  C   UNK A   0      -1.164  12.315  20.860  0.00  0.00    +0.000 C 
ATOM     14  C   UNK A   0      -1.060  11.744  19.428  0.00  0.00    +0.000 C 
ATOM     15  O   UNK A   0      -2.371  11.442  18.887  0.00  0.00    +0.000 OA
ATOM     16  C   UNK A   0      -2.207  10.239  18.131  0.00  0.00    +0.000 C 
ATOM     17  C   UNK A   0      -1.706  10.573  16.719  0.00  0.00    +0.000 C 
ATOM     18  C   UNK A   0      -3.519   9.467  18.019  0.00  0.00    +0.000 C 
ATOM     19  O   UNK A   0      -1.239   9.447  18.832  0.00  0.00    +0.000 OA
ATOM     20  C   UNK A   0      -0.299  10.406  19.337  0.00  0.00    +0.000 C 
ENDBRANCH   2   5
BRANCH   1  21
ATOM     21  CA  VAL A   1       2.427   7.145  19.350  0.00  0.00    +0.000 C 
BRANCH  21  23
ATOM     22  N   VAL A   1       4.418   6.703  17.949  0.00  0.00    +0.000 N 
ATOM     23  C   VAL A   1       3.227   7.396  18.048  0.00  0.00    +0.000 C 
ATOM     24  O   VAL A   1       2.958   8.278  17.233  0.00  0.00    +0.000 OA
ATOM     25  H   VAL A   1       4.738   6.221  18.796  0.00  0.00    +0.000 HD
BRANCH  22  26
ATOM     26  CA  VAL A   1       5.422   6.955  16.906  0.00  0.00    +0.000 C 
BRANCH  26  27
ATOM     27  C   VAL A   1       6.855   6.779  17.450  0.00  0.00    +0.000 C 
ATOM     28  O   VAL A   1       7.157   6.166  18.463  0.00  0.00    +0.000 OA
BRANCH  27  29
ATOM     29  OXT VAL A   1       7.813   7.303  16.636  0.00  0.00    +0.000 OA
ATOM     30  HXT VAL A   1       7.605   8.239  16.386  0.00  0.00    +0.000 HD
ENDBRANCH  27  29
ENDBRANCH  26  27
BRANCH  26  31
ATOM     31  CB  VAL A   1       5.204   6.038  15.687  0.00  0.00    +0.000 C 
BRANCH  31  33
ATOM     32  CD1 VAL A   1       4.884   3.650  16.541  0.00  0.00    +0.000 C 
ATOM     33  CG  VAL A   1       5.806   4.623  15.809  0.00  0.00    +0.000 C 
ATOM     34  CD2 VAL A   1       6.127   4.074  14.415  0.00  0.00    +0.000 C 
ENDBRANCH  31  33
ENDBRANCH  26  31
ENDBRANCH  22  26
ENDBRANCH  21  23
BRANCH  21  35
ATOM     35  CB  VAL A   1       1.566   5.861  19.339  0.00  0.00    +0.000 C 
ATOM     36  CG1 VAL A   1       1.811   5.002  18.097  0.00  0.00    +0.000 C 
ATOM     37  CG2 VAL A   1       1.842   5.005  20.588  0.00  0.00    +0.000 C 
ENDBRANCH  21  35
ENDBRANCH   1  21
TORSDOF 9
ENDMDL
MODEL 6
REMARK VINA RESULT:      -7.0      2.438      8.629
REMARK  Name = 
REMARK  17 active torsions:
REMARK  status: ('A' for Active; 'I' for Inactive)
REMARK    1  A    between atoms: CD1_1  and  CG_2
REMARK    2  A    between atoms: CG_2  and  CD2_3
REMARK    3  A    between atoms: CG_2  and  CB_4
REMARK    4  A    between atoms: CB_4  and  CA_5
REMARK    5  A    between atoms: CA_5  and  N_6
REMARK    6  A    between atoms: CA_5  and  C_32
REMARK    7  A    between atoms: C_7  and  CA_9
REMARK    8  A    between atoms: CA_9  and  N_10
REMARK    9  A    between atoms: CA_9  and  CB_29
REMARK   10  A    between atoms: C_11  and  C_13
REMARK   11  A    between atoms: C_17  and  C_18
REMARK   12  A    between atoms: C_17  and  C_19
REMARK   13  A    between atoms: C_24  and  C_25
REMARK   14  A    between atoms: C_24  and  C_26
REMARK   15  A    between atoms: CB_29  and  CG1_30
REMARK   16  A    between atoms: CB_29  and  CG2_31
REMARK   17  A    between atoms: C_32  and  OXT_34
REMARK                            x       y       z     vdW  Elec       q    Type
REMARK                         _______ _______ _______ _____ _____    ______ ____
ROOT
ATOM      1  N   VAL A   1       1.177   9.239  19.277  0.00  0.00    +0.000 N 
ATOM      2  C   UNK A   0       2.053   8.742  18.345  0.00  0.00    +0.000 C 
ATOM      3  O   UNK A   0       2.260   9.337  17.286  0.00  0.00    +0.000 OA
ATOM      4  H   VAL A   1       1.213   8.851  20.221  0.00  0.00    +0.000 HD
ENDROOT
BRANCH   2   5
ATOM      5  C   UNK A   0       2.662   7.387  18.677  0.00  0.00    +0.000 C 
ATOM      6  O   UNK A   0       1.613   6.439  18.863  0.00  0.00    +0.000 OA
ATOM      7  C   UNK A   0       2.073   5.438  19.740  0.00  0.00    +0.000 C 
ATOM      8  O   UNK A   0       1.231   4.295  19.775  0.00  0.00    +0.000 OA
ATOM      9  C   UNK A   0       2.110   3.274  20.248  0.00  0.00    +0.000 C 
ATOM     10  C   UNK A   0       1.508   1.902  19.976  0.00  0.00    +0.000 C 
ATOM     11  C   UNK A   0       2.312   3.436  21.766  0.00  0.00    +0.000 C 
ATOM     12  O   UNK A   0       3.359   3.463  19.563  0.00  0.00    +0.000 OA
ATOM     13  C   UNK A   0       3.471   4.896  19.396  0.00  0.00    +0.000 C 
ATOM     14  C   UNK A   0       3.971   5.341  18.005  0.00  0.00    +0.000 C 
ATOM     15  O   UNK A   0       5.420   5.347  17.945  0.00  0.00    +0.000 OA
ATOM     16  C   UNK A   0       5.767   6.484  17.149  0.00  0.00    +0.000 C 
ATOM     17  C   UNK A   0       5.711   6.118  15.660  0.00  0.00    +0.000 C 
ATOM     18  C   UNK A   0       7.169   6.990  17.482  0.00  0.00    +0.000 C 
ATOM     19  O   UNK A   0       4.803   7.502  17.452  0.00  0.00    +0.000 OA
ATOM     20  C   UNK A   0       3.574   6.781  17.622  0.00  0.00    +0.000 C 
ENDBRANCH   2   5
BRANCH   1  21
ATOM     21  CA  VAL A   1       0.508  10.528  19.074  0.00  0.00    +0.000 C 
BRANCH  21  23
ATOM     22  N   VAL A   1       1.043  12.701  20.130  0.00  0.00    +0.000 N 
ATOM     23  C   VAL A   1       0.860  11.349  20.340  0.00  0.00    +0.000 C 
ATOM     24  O   VAL A   1       1.153  10.849  21.426  0.00  0.00    +0.000 OA
ATOM     25  H   VAL A   1       1.089  13.011  19.153  0.00  0.00    +0.000 HD
BRANCH  22  26
ATOM     26  CA  VAL A   1       1.585  13.616  21.144  0.00  0.00    +0.000 C 
BRANCH  26  27
ATOM     27  C   VAL A   1       3.094  13.860  20.934  0.00  0.00    +0.000 C 
ATOM     28  O   VAL A   1       3.953  13.769  21.799  0.00  0.00    +0.000 OA
BRANCH  27  29
ATOM     29  OXT VAL A   1       3.429  14.111  19.637  0.00  0.00    +0.000 OA
ATOM     30  HXT VAL A   1       2.648  14.015  19.035  0.00  0.00    +0.000 HD
ENDBRANCH  27  29
ENDBRANCH  26  27
BRANCH  26  31
ATOM     31  CB  VAL A   1       0.830  14.960  21.146  0.00  0.00    +0.000 C 
BRANCH  31  33
ATOM     32  CD1 VAL A   1      -1.349  16.045  21.926  0.00  0.00    +0.000 C 
ATOM     33  CG  VAL A   1      -0.166  15.157  22.308  0.00  0.00    +0.000 C 
ATOM     34  CD2 VAL A   1      -0.680  13.795  22.786  0.00  0.00    +0.000 C 
ENDBRANCH  31  33
ENDBRANCH  26  31
ENDBRANCH  22  26
ENDBRANCH  21  23
BRANCH  21  35
ATOM     35  CB  VAL A   1      -1.005  10.297  18.858  0.00  0.00    +0.000 C 
ATOM     36  CG1 VAL A   1      -1.851  11.489  19.307  0.00  0.00    +0.000 C 
ATOM     37  CG2 VAL A   1      -1.309  10.011  17.376  0.00  0.00    +0.000 C 
ENDBRANCH  21  35
ENDBRANCH   1  21
TORSDOF 9
ENDMDL
MODEL 7
REMARK VINA RESULT:      -7.0      2.331      8.447
REMARK  Name = 
REMARK  17 active torsions:
REMARK  status: ('A' for Active; 'I' for Inactive)
REMARK    1  A    between atoms: CD1_1  and  CG_2
REMARK    2  A    between atoms: CG_2  and  CD2_3
REMARK    3  A    between atoms: CG_2  and  CB_4
REMARK    4  A    between atoms: CB_4  and  CA_5
REMARK    5  A    between atoms: CA_5  and  N_6
REMARK    6  A    between atoms: CA_5  and  C_32
REMARK    7  A    between atoms: C_7  and  CA_9
REMARK    8  A    between atoms: CA_9  and  N_10
REMARK    9  A    between atoms: CA_9  and  CB_29
REMARK   10  A    between atoms: C_11  and  C_13
REMARK   11  A    between atoms: C_17  and  C_18
REMARK   12  A    between atoms: C_17  and  C_19
REMARK   13  A    between atoms: C_24  and  C_25
REMARK   14  A    between atoms: C_24  and  C_26
REMARK   15  A    between atoms: CB_29  and  CG1_30
REMARK   16  A    between atoms: CB_29  and  CG2_31
REMARK   17  A    between atoms: C_32  and  OXT_34
REMARK                            x       y       z     vdW  Elec       q    Type
REMARK                         _______ _______ _______ _____ _____    ______ ____
ROOT
ATOM      1  N   VAL A   1       1.168   9.128  18.850  0.00  0.00    +0.000 N 
ATOM      2  C   UNK A   0       2.197   8.649  18.079  0.00  0.00    +0.000 C 
ATOM      3  O   UNK A   0       2.553   9.238  17.057  0.00  0.00    +0.000 OA
ATOM      4  H   VAL A   1       1.063   8.752  19.793  0.00  0.00    +0.000 HD
ENDROOT
BRANCH   2   5
ATOM      5  C   UNK A   0       2.787   7.320  18.527  0.00  0.00    +0.000 C 
ATOM      6  O   UNK A   0       1.734   6.367  18.662  0.00  0.00    +0.000 OA
ATOM      7  C   UNK A   0       2.123   5.413  19.622  0.00  0.00    +0.000 C 
ATOM      8  O   UNK A   0       1.292   4.261  19.635  0.00  0.00    +0.000 OA
ATOM      9  C   UNK A   0       2.135   3.275  20.232  0.00  0.00    +0.000 C 
ATOM     10  C   UNK A   0       1.573   1.884  19.972  0.00  0.00    +0.000 C 
ATOM     11  C   UNK A   0       2.197   3.508  21.753  0.00  0.00    +0.000 C 
ATOM     12  O   UNK A   0       3.438   3.450  19.654  0.00  0.00    +0.000 OA
ATOM     13  C   UNK A   0       3.551   4.875  19.431  0.00  0.00    +0.000 C 
ATOM     14  C   UNK A   0       4.171   5.263  18.071  0.00  0.00    +0.000 C 
ATOM     15  O   UNK A   0       5.620   5.287  18.142  0.00  0.00    +0.000 OA
ATOM     16  C   UNK A   0       6.026   6.391  17.328  0.00  0.00    +0.000 C 
ATOM     17  C   UNK A   0       6.109   5.956  15.859  0.00  0.00    +0.000 C 
ATOM     18  C   UNK A   0       7.387   6.931  17.761  0.00  0.00    +0.000 C 
ATOM     19  O   UNK A   0       5.029   7.407  17.495  0.00  0.00    +0.000 OA
ATOM     20  C   UNK A   0       3.796   6.679  17.588  0.00  0.00    +0.000 C 
ENDBRANCH   2   5
BRANCH   1  21
ATOM     21  CA  VAL A   1       0.500  10.391  18.521  0.00  0.00    +0.000 C 
BRANCH  21  23
ATOM     22  N   VAL A   1       1.636  12.577  18.753  0.00  0.00    +0.000 N 
ATOM     23  C   VAL A   1       1.205  11.443  19.413  0.00  0.00    +0.000 C 
ATOM     24  O   VAL A   1       1.546  11.242  20.578  0.00  0.00    +0.000 OA
ATOM     25  H   VAL A   1       1.598  12.553  17.728  0.00  0.00    +0.000 HD
BRANCH  22  26
ATOM     26  CA  VAL A   1       2.506  13.592  19.363  0.00  0.00    +0.000 C 
BRANCH  26  27
ATOM     27  C   VAL A   1       3.161  14.490  18.292  0.00  0.00    +0.000 C 
ATOM     28  O   VAL A   1       2.778  15.606  17.974  0.00  0.00    +0.000 OA
BRANCH  27  29
ATOM     29  OXT VAL A   1       4.300  13.961  17.762  0.00  0.00    +0.000 OA
ATOM     30  HXT VAL A   1       4.769  13.383  18.415  0.00  0.00    +0.000 HD
ENDBRANCH  27  29
ENDBRANCH  26  27
BRANCH  26  31
ATOM     31  CB  VAL A   1       1.730  14.460  20.373  0.00  0.00    +0.000 C 
BRANCH  31  33
ATOM     32  CD1 VAL A   1       3.901  14.249  21.706  0.00  0.00    +0.000 C 
ATOM     33  CG  VAL A   1       2.544  14.941  21.592  0.00  0.00    +0.000 C 
ATOM     34  CD2 VAL A   1       2.747  16.458  21.514  0.00  0.00    +0.000 C 
ENDBRANCH  31  33
ENDBRANCH  26  31
ENDBRANCH  22  26
ENDBRANCH  21  23
BRANCH  21  35
ATOM     35  CB  VAL A   1      -1.020  10.252  18.767  0.00  0.00    +0.000 C 
ATOM     36  CG1 VAL A   1      -1.618  11.484  19.450  0.00  0.00    +0.000 C 
ATOM     37  CG2 VAL A   1      -1.769  10.012  17.445  0.00  0.00    +0.000 C 
ENDBRANCH  21  35
ENDBRANCH   1  21
TORSDOF 9
ENDMDL
MODEL 8
REMARK VINA RESULT:      -6.9      2.467      8.836
REMARK  Name = 
REMARK  17 active torsions:
REMARK  status: ('A' for Active; 'I' for Inactive)
REMARK    1  A    between atoms: CD1_1  and  CG_2
REMARK    2  A    between atoms: CG_2  and  CD2_3
REMARK    3  A    between atoms: CG_2  and  CB_4
REMARK    4  A    between atoms: CB_4  and  CA_5
REMARK    5  A    between atoms: CA_5  and  N_6
REMARK    6  A    between atoms: CA_5  and  C_32
REMARK    7  A    between atoms: C_7  and  CA_9
REMARK    8  A    between atoms: CA_9  and  N_10
REMARK    9  A    between atoms: CA_9  and  CB_29
REMARK   10  A    between atoms: C_11  and  C_13
REMARK   11  A    between atoms: C_17  and  C_18
REMARK   12  A    between atoms: C_17  and  C_19
REMARK   13  A    between atoms: C_24  and  C_25
REMARK   14  A    between atoms: C_24  and  C_26
REMARK   15  A    between atoms: CB_29  and  CG1_30
REMARK   16  A    between atoms: CB_29  and  CG2_31
REMARK   17  A    between atoms: C_32  and  OXT_34
REMARK                            x       y       z     vdW  Elec       q    Type
REMARK                         _______ _______ _______ _____ _____    ______ ____
ROOT
ATOM      1  N   VAL A   1       1.068   9.216  19.389  0.00  0.00    +0.000 N 
ATOM      2  C   UNK A   0       2.017   8.800  18.489  0.00  0.00    +0.000 C 
ATOM      3  O   UNK A   0       2.289   9.476  17.495  0.00  0.00    +0.000 OA
ATOM      4  H   VAL A   1       1.042   8.758  20.301  0.00  0.00    +0.000 HD
ENDROOT
BRANCH   2   5
ATOM      5  C   UNK A   0       2.623   7.431  18.762  0.00  0.00    +0.000 C 
ATOM      6  O   UNK A   0       1.571   6.490  18.967  0.00  0.00    +0.000 OA
ATOM      7  C   UNK A   0       2.055   5.462  19.800  0.00  0.00    +0.000 C 
ATOM      8  O   UNK A   0       1.201   4.328  19.841  0.00  0.00    +0.000 OA
ATOM      9  C   UNK A   0       2.087   3.286  20.252  0.00  0.00    +0.000 C 
ATOM     10  C   UNK A   0       1.459   1.928  19.972  0.00  0.00    +0.000 C 
ATOM     11  C   UNK A   0       2.352   3.407  21.764  0.00  0.00    +0.000 C 
ATOM     12  O   UNK A   0       3.309   3.479  19.522  0.00  0.00    +0.000 OA
ATOM     13  C   UNK A   0       3.431   4.915  19.386  0.00  0.00    +0.000 C 
ATOM     14  C   UNK A   0       3.880   5.389  17.987  0.00  0.00    +0.000 C 
ATOM     15  O   UNK A   0       5.325   5.381  17.868  0.00  0.00    +0.000 OA
ATOM     16  C   UNK A   0       5.653   6.534  17.087  0.00  0.00    +0.000 C 
ATOM     17  C   UNK A   0       5.533   6.205  15.593  0.00  0.00    +0.000 C 
ATOM     18  C   UNK A   0       7.073   7.016  17.375  0.00  0.00    +0.000 C 
ATOM     19  O   UNK A   0       4.714   7.554  17.454  0.00  0.00    +0.000 OA
ATOM     20  C   UNK A   0       3.484   6.842  17.656  0.00  0.00    +0.000 C 
ENDBRANCH   2   5
BRANCH   1  21
ATOM     21  CA  VAL A   1       0.394  10.509  19.235  0.00  0.00    +0.000 C 
BRANCH  21  23
ATOM     22  N   VAL A   1       0.483  12.600  20.554  0.00  0.00    +0.000 N 
ATOM     23  C   VAL A   1       0.623  11.227  20.588  0.00  0.00    +0.000 C 
ATOM     24  O   VAL A   1       1.083  10.679  21.590  0.00  0.00    +0.000 OA
ATOM     25  H   VAL A   1       0.402  13.029  19.626  0.00  0.00    +0.000 HD
BRANCH  22  26
ATOM     26  CA  VAL A   1       0.861  13.484  21.665  0.00  0.00    +0.000 C 
BRANCH  26  27
ATOM     27  C   VAL A   1       2.069  14.370  21.295  0.00  0.00    +0.000 C 
ATOM     28  O   VAL A   1       2.349  14.748  20.167  0.00  0.00    +0.000 OA
BRANCH  27  29
ATOM     29  OXT VAL A   1       2.785  14.792  22.374  0.00  0.00    +0.000 OA
ATOM     30  HXT VAL A   1       3.340  14.062  22.750  0.00  0.00    +0.000 HD
ENDBRANCH  27  29
ENDBRANCH  26  27
BRANCH  26  31
ATOM     31  CB  VAL A   1      -0.324  14.367  22.105  0.00  0.00    +0.000 C 
BRANCH  31  33
ATOM     32  CD1 VAL A   1      -1.322  14.975  24.379  0.00  0.00    +0.000 C 
ATOM     33  CG  VAL A   1      -1.092  13.871  23.348  0.00  0.00    +0.000 C 
ATOM     34  CD2 VAL A   1      -2.439  13.278  22.922  0.00  0.00    +0.000 C 
ENDBRANCH  31  33
ENDBRANCH  26  31
ENDBRANCH  22  26
ENDBRANCH  21  23
BRANCH  21  35
ATOM     35  CB  VAL A   1      -1.091  10.277  18.872  0.00  0.00    +0.000 C 
ATOM     36  CG1 VAL A   1      -1.969  11.489  19.192  0.00  0.00    +0.000 C 
ATOM     37  CG2 VAL A   1      -1.245   9.943  17.378  0.00  0.00    +0.000 C 
ENDBRANCH  21  35
ENDBRANCH   1  21
TORSDOF 9
ENDMDL
MODEL 9
REMARK VINA RESULT:      -6.9      2.802      9.059
REMARK  Name = 
REMARK  17 active torsions:
REMARK  status: ('A' for Active; 'I' for Inactive)
REMARK    1  A    between atoms: CD1_1  and  CG_2
REMARK    2  A    between atoms: CG_2  and  CD2_3
REMARK    3  A    between atoms: CG_2  and  CB_4
REMARK    4  A    between atoms: CB_4  and  CA_5
REMARK    5  A    between atoms: CA_5  and  N_6
REMARK    6  A    between atoms: CA_5  and  C_32
REMARK    7  A    between atoms: C_7  and  CA_9
REMARK    8  A    between atoms: CA_9  and  N_10
REMARK    9  A    between atoms: CA_9  and  CB_29
REMARK   10  A    between atoms: C_11  and  C_13
REMARK   11  A    between atoms: C_17  and  C_18
REMARK   12  A    between atoms: C_17  and  C_19
REMARK   13  A    between atoms: C_24  and  C_25
REMARK   14  A    between atoms: C_24  and  C_26
REMARK   15  A    between atoms: CB_29  and  CG1_30
REMARK   16  A    between atoms: CB_29  and  CG2_31
REMARK   17  A    between atoms: C_32  and  OXT_34
REMARK                            x       y       z     vdW  Elec       q    Type
REMARK                         _______ _______ _______ _____ _____    ______ ____
ROOT
ATOM      1  N   VAL A   1       1.040   9.314  19.413  0.00  0.00    +0.000 N 
ATOM      2  C   UNK A   0       2.049   8.933  18.564  0.00  0.00    +0.000 C 
ATOM      3  O   UNK A   0       2.408   9.660  17.636  0.00  0.00    +0.000 OA
ATOM      4  H   VAL A   1       0.936   8.804  20.291  0.00  0.00    +0.000 HD
ENDROOT
BRANCH   2   5
ATOM      5  C   UNK A   0       2.609   7.538  18.800  0.00  0.00    +0.000 C 
ATOM      6  O   UNK A   0       1.529   6.632  19.015  0.00  0.00    +0.000 OA
ATOM      7  C   UNK A   0       1.993   5.573  19.818  0.00  0.00    +0.000 C 
ATOM      8  O   UNK A   0       1.100   4.470  19.861  0.00  0.00    +0.000 OA
ATOM      9  C   UNK A   0       1.955   3.390  20.234  0.00  0.00    +0.000 C 
ATOM     10  C   UNK A   0       1.271   2.061  19.946  0.00  0.00    +0.000 C 
ATOM     11  C   UNK A   0       2.260   3.475  21.741  0.00  0.00    +0.000 C 
ATOM     12  O   UNK A   0       3.166   3.550  19.478  0.00  0.00    +0.000 OA
ATOM     13  C   UNK A   0       3.338   4.983  19.363  0.00  0.00    +0.000 C 
ATOM     14  C   UNK A   0       3.772   5.465  17.962  0.00  0.00    +0.000 C 
ATOM     15  O   UNK A   0       5.213   5.406  17.809  0.00  0.00    +0.000 OA
ATOM     16  C   UNK A   0       5.565   6.560  17.040  0.00  0.00    +0.000 C 
ATOM     17  C   UNK A   0       5.398   6.262  15.544  0.00  0.00    +0.000 C 
ATOM     18  C   UNK A   0       7.008   6.985  17.301  0.00  0.00    +0.000 C 
ATOM     19  O   UNK A   0       4.673   7.606  17.445  0.00  0.00    +0.000 OA
ATOM     20  C   UNK A   0       3.423   6.937  17.665  0.00  0.00    +0.000 C 
ENDBRANCH   2   5
BRANCH   1  21
ATOM     21  CA  VAL A   1       0.400  10.628  19.286  0.00  0.00    +0.000 C 
BRANCH  21  23
ATOM     22  N   VAL A   1      -0.716  11.376  21.364  0.00  0.00    +0.000 N 
ATOM     23  C   VAL A   1       0.491  11.239  20.706  0.00  0.00    +0.000 C 
ATOM     24  O   VAL A   1       1.508  11.752  21.172  0.00  0.00    +0.000 OA
ATOM     25  H   VAL A   1      -1.562  11.217  20.806  0.00  0.00    +0.000 HD
BRANCH  22  26
ATOM     26  CA  VAL A   1      -0.878  12.120  22.620  0.00  0.00    +0.000 C 
BRANCH  26  27
ATOM     27  C   VAL A   1      -0.840  13.644  22.381  0.00  0.00    +0.000 C 
ATOM     28  O   VAL A   1      -1.115  14.203  21.330  0.00  0.00    +0.000 OA
BRANCH  27  29
ATOM     29  OXT VAL A   1      -0.547  14.363  23.501  0.00  0.00    +0.000 OA
ATOM     30  HXT VAL A   1      -0.628  13.810  24.319  0.00  0.00    +0.000 HD
ENDBRANCH  27  29
ENDBRANCH  26  27
BRANCH  26  31
ATOM     31  CB  VAL A   1      -2.187  11.732  23.335  0.00  0.00    +0.000 C 
BRANCH  31  33
ATOM     32  CD1 VAL A   1      -4.153  12.600  21.950  0.00  0.00    +0.000 C 
ATOM     33  CG  VAL A   1      -3.330  12.763  23.227  0.00  0.00    +0.000 C 
ATOM     34  CD2 VAL A   1      -4.249  12.649  24.448  0.00  0.00    +0.000 C 
ENDBRANCH  31  33
ENDBRANCH  26  31
ENDBRANCH  22  26
ENDBRANCH  21  23
BRANCH  21  35
ATOM     35  CB  VAL A   1      -1.039  10.452  18.751  0.00  0.00    +0.000 C 
ATOM     36  CG1 VAL A   1      -1.730  11.789  18.478  0.00  0.00    +0.000 C 
ATOM     37  CG2 VAL A   1      -1.045   9.623  17.454  0.00  0.00    +0.000 C 
ENDBRANCH  21  35
ENDBRANCH   1  21
TORSDOF 9
ENDMDL
