MODEL 1
REMARK VINA RESULT:      -7.3      0.000      0.000
REMARK  Name = 
REMARK  11 active torsions:
REMARK  status: ('A' for Active; 'I' for Inactive)
REMARK    1  A    between atoms: C_1  and  C_2
REMARK    2  A    between atoms: C_2  and  S_3
REMARK    3  A    between atoms: S_3  and  N_6
REMARK    4  A    between atoms: N_6  and  C_7
REMARK    5  A    between atoms: N_6  and  C_15
REMARK    6  A    between atoms: C_7  and  C_8
REMARK    7  A    between atoms: C_8  and  N_9
REMARK    8  A    between atoms: C_18  and  C_20
REMARK    9  A    between atoms: C_20  and  C_21
REMARK   10  A    between atoms: C_21  and  N_22
REMARK   11  A    between atoms: C_24  and  C_25
REMARK                            x       y       z     vdW  Elec       q    Type
REMARK                         _______ _______ _______ _____ _____    ______ ____
ROOT
ATOM      1  N   UNL     1       3.298   3.960  18.531  0.00  0.00    +0.000 NA
ENDROOT
BRANCH   1   2
ATOM      2  C   UNL     1       2.338   5.161  18.705  0.00  0.00    +0.000 C 
ATOM      3  C   UNL     1       2.309   5.969  20.040  0.00  0.00    +0.000 C 
ATOM      4  N   UNL     1       2.061   7.128  19.196  0.00  0.00    +0.000 N 
ATOM      5  C   UNL     1       1.730   8.423  19.459  0.00  0.00    +0.000 C 
ATOM      6  O   UNL     1       1.457   8.819  20.590  0.00  0.00    +0.000 OA
ATOM      7  C   UNL     1       2.686   6.520  18.049  0.00  0.00    +0.000 C 
BRANCH   5   8
ATOM      8  C   UNL     1       1.639   9.321  18.238  0.00  0.00    +0.000 C 
BRANCH   8   9
ATOM      9  C   UNL     1       1.301  10.749  18.639  0.00  0.00    +0.000 C 
BRANCH   9  10
ATOM     10  N   UNL     1      -0.128  10.977  18.755  0.00  0.00    +0.000 N 
ATOM     11  C   UNL     1      -0.748  11.847  19.608  0.00  0.00    +0.000 A 
ATOM     12  C   UNL     1      -2.098  11.784  19.319  0.00  0.00    +0.000 A 
ATOM     13  C   UNL     1      -3.205  12.542  19.943  0.00  0.00    +0.000 C 
ATOM     14  C   UNL     1      -2.179  10.833  18.277  0.00  0.00    +0.000 A 
ATOM     15  N   UNL     1      -0.986  10.337  17.934  0.00  0.00    +0.000 NA
ENDBRANCH   9  10
ENDBRANCH   8   9
ENDBRANCH   5   8
ENDBRANCH   1   2
BRANCH   1  16
ATOM     16  S   UNL     1       2.769   2.398  19.121  0.00  0.00    +0.000 S 
ATOM     17  O   UNL     1       3.691   1.392  18.648  0.00  0.00    +0.000 OA
ATOM     18  O   UNL     1       1.353   2.308  18.833  0.00  0.00    +0.000 OA
BRANCH  16  20
ATOM     19  C   UNL     1       1.626   2.656  21.584  0.00  0.00    +0.000 C 
ATOM     20  C   UNL     1       2.981   2.532  20.901  0.00  0.00    +0.000 C 
ENDBRANCH  16  20
ENDBRANCH   1  16
BRANCH   1  21
ATOM     21  C   UNL     1       3.712   3.809  17.062  0.00  0.00    +0.000 C 
BRANCH  21  22
ATOM     22  C   UNL     1       5.205   4.049  16.724  0.00  0.00    +0.000 C 
BRANCH  22  23
ATOM     23  N   UNL     1       5.843   5.152  17.468  0.00  0.00    +0.000 NA
ATOM     24  C   UNL     1       7.093   4.705  18.104  0.00  0.00    +0.000 C 
ATOM     25  C   UNL     1       7.716   5.815  18.947  0.00  0.00    +0.000 C 
ATOM     26  C   UNL     1       7.949   7.075  18.124  0.00  0.00    +0.000 C 
ATOM     27  C   UNL     1       6.663   7.485  17.417  0.00  0.00    +0.000 C 
ATOM     28  C   UNL     1       6.088   6.321  16.604  0.00  0.00    +0.000 C 
ENDBRANCH  22  23
ENDBRANCH  21  22
ENDBRANCH   1  21
TORSDOF 9
ENDMDL
MODEL 2
REMARK VINA RESULT:      -7.2      2.203      4.309
REMARK  Name = 
REMARK  11 active torsions:
REMARK  status: ('A' for Active; 'I' for Inactive)
REMARK    1  A    between atoms: C_1  and  C_2
REMARK    2  A    between atoms: C_2  and  S_3
REMARK    3  A    between atoms: S_3  and  N_6
REMARK    4  A    between atoms: N_6  and  C_7
REMARK    5  A    between atoms: N_6  and  C_15
REMARK    6  A    between atoms: C_7  and  C_8
REMARK    7  A    between atoms: C_8  and  N_9
REMARK    8  A    between atoms: C_18  and  C_20
REMARK    9  A    between atoms: C_20  and  C_21
REMARK   10  A    between atoms: C_21  and  N_22
REMARK   11  A    between atoms: C_24  and  C_25
REMARK                            x       y       z     vdW  Elec       q    Type
REMARK                         _______ _______ _______ _____ _____    ______ ____
ROOT
ATOM      1  N   UNL     1       4.120   5.512  17.203  0.00  0.00    +0.000 NA
ENDROOT
BRANCH   1   2
ATOM      2  C   UNL     1       2.924   6.203  17.900  0.00  0.00    +0.000 C 
ATOM      3  C   UNL     1       2.952   6.487  19.435  0.00  0.00    +0.000 C 
ATOM      4  N   UNL     1       2.221   7.700  19.105  0.00  0.00    +0.000 N 
ATOM      5  C   UNL     1       1.606   8.656  19.857  0.00  0.00    +0.000 C 
ATOM      6  O   UNL     1       1.478   8.557  21.076  0.00  0.00    +0.000 OA
ATOM      7  C   UNL     1       2.735   7.734  17.759  0.00  0.00    +0.000 C 
BRANCH   5   8
ATOM      8  C   UNL     1       1.015   9.810  19.067  0.00  0.00    +0.000 C 
BRANCH   8   9
ATOM      9  C   UNL     1      -0.387  10.139  19.556  0.00  0.00    +0.000 C 
BRANCH   9  10
ATOM     10  N   UNL     1      -1.295  10.474  18.474  0.00  0.00    +0.000 N 
ATOM     11  C   UNL     1      -1.414   9.822  17.277  0.00  0.00    +0.000 A 
ATOM     12  C   UNL     1      -2.446  10.438  16.597  0.00  0.00    +0.000 A 
ATOM     13  C   UNL     1      -2.991  10.105  15.262  0.00  0.00    +0.000 C 
ATOM     14  C   UNL     1      -2.873  11.459  17.476  0.00  0.00    +0.000 A 
ATOM     15  N   UNL     1      -2.175  11.486  18.616  0.00  0.00    +0.000 NA
ENDBRANCH   9  10
ENDBRANCH   8   9
ENDBRANCH   5   8
ENDBRANCH   1   2
BRANCH   1  16
ATOM     16  S   UNL     1       5.729   5.879  17.786  0.00  0.00    +0.000 S 
ATOM     17  O   UNL     1       5.786   5.581  19.199  0.00  0.00    +0.000 OA
ATOM     18  O   UNL     1       6.057   7.198  17.287  0.00  0.00    +0.000 OA
BRANCH  16  20
ATOM     19  C   UNL     1       6.925   5.061  15.475  0.00  0.00    +0.000 C 
ATOM     20  C   UNL     1       6.763   4.676  16.939  0.00  0.00    +0.000 C 
ENDBRANCH  16  20
ENDBRANCH   1  16
BRANCH   1  21
ATOM     21  C   UNL     1       3.938   3.989  17.204  0.00  0.00    +0.000 C 
BRANCH  21  22
ATOM     22  C   UNL     1       2.513   3.452  17.487  0.00  0.00    +0.000 C 
BRANCH  22  23
ATOM     23  N   UNL     1       2.318   2.876  18.832  0.00  0.00    +0.000 NA
ATOM     24  C   UNL     1       3.555   2.961  19.626  0.00  0.00    +0.000 C 
ATOM     25  C   UNL     1       3.389   2.290  20.988  0.00  0.00    +0.000 C 
ATOM     26  C   UNL     1       2.210   2.875  21.756  0.00  0.00    +0.000 C 
ATOM     27  C   UNL     1       0.954   2.843  20.895  0.00  0.00    +0.000 C 
ATOM     28  C   UNL     1       1.198   3.519  19.542  0.00  0.00    +0.000 C 
ENDBRANCH  22  23
ENDBRANCH  21  22
ENDBRANCH   1  21
TORSDOF 9
ENDMDL
MODEL 3
REMARK VINA RESULT:      -7.1      2.679      4.602
REMARK  Name = 
REMARK  11 active torsions:
REMARK  status: ('A' for Active; 'I' for Inactive)
REMARK    1  A    between atoms: C_1  and  C_2
REMARK    2  A    between atoms: C_2  and  S_3
REMARK    3  A    between atoms: S_3  and  N_6
REMARK    4  A    between atoms: N_6  and  C_7
REMARK    5  A    between atoms: N_6  and  C_15
REMARK    6  A    between atoms: C_7  and  C_8
REMARK    7  A    between atoms: C_8  and  N_9
REMARK    8  A    between atoms: C_18  and  C_20
REMARK    9  A    between atoms: C_20  and  C_21
REMARK   10  A    between atoms: C_21  and  N_22
REMARK   11  A    between atoms: C_24  and  C_25
REMARK                            x       y       z     vdW  Elec       q    Type
REMARK                         _______ _______ _______ _____ _____    ______ ____
ROOT
ATOM      1  N   UNL     1       4.241   5.729  17.764  0.00  0.00    +0.000 NA
ENDROOT
BRANCH   1   2
ATOM      2  C   UNL     1       3.693   7.090  18.255  0.00  0.00    +0.000 C 
ATOM      3  C   UNL     1       2.657   7.887  17.401  0.00  0.00    +0.000 C 
ATOM      4  N   UNL     1       2.087   8.285  18.678  0.00  0.00    +0.000 N 
ATOM      5  C   UNL     1       1.121   9.179  19.033  0.00  0.00    +0.000 C 
ATOM      6  O   UNL     1       0.604   9.949  18.226  0.00  0.00    +0.000 OA
ATOM      7  C   UNL     1       2.606   7.125  19.358  0.00  0.00    +0.000 C 
BRANCH   5   8
ATOM      8  C   UNL     1       0.796   9.214  20.516  0.00  0.00    +0.000 C 
BRANCH   8   9
ATOM      9  C   UNL     1       0.989  10.613  21.080  0.00  0.00    +0.000 C 
BRANCH   9  10
ATOM     10  N   UNL     1      -0.203  11.125  21.733  0.00  0.00    +0.000 N 
ATOM     11  C   UNL     1      -1.185  11.883  21.158  0.00  0.00    +0.000 A 
ATOM     12  C   UNL     1      -2.150  12.074  22.128  0.00  0.00    +0.000 A 
ATOM     13  C   UNL     1      -3.429  12.809  22.016  0.00  0.00    +0.000 C 
ATOM     14  C   UNL     1      -1.639  11.392  23.255  0.00  0.00    +0.000 A 
ATOM     15  N   UNL     1      -0.455  10.818  23.021  0.00  0.00    +0.000 NA
ENDBRANCH   9  10
ENDBRANCH   8   9
ENDBRANCH   5   8
ENDBRANCH   1   2
BRANCH   1  16
ATOM     16  S   UNL     1       5.407   5.740  16.459  0.00  0.00    +0.000 S 
ATOM     17  O   UNL     1       5.276   6.983  15.735  0.00  0.00    +0.000 OA
ATOM     18  O   UNL     1       5.280   4.465  15.783  0.00  0.00    +0.000 OA
BRANCH  16  20
ATOM     19  C   UNL     1       7.453   7.214  17.498  0.00  0.00    +0.000 C 
ATOM     20  C   UNL     1       6.988   5.776  17.313  0.00  0.00    +0.000 C 
ENDBRANCH  16  20
ENDBRANCH   1  16
BRANCH   1  21
ATOM     21  C   UNL     1       4.828   4.931  18.935  0.00  0.00    +0.000 C 
BRANCH  21  22
ATOM     22  C   UNL     1       4.634   3.394  18.905  0.00  0.00    +0.000 C 
BRANCH  22  23
ATOM     23  N   UNL     1       3.320   2.921  19.380  0.00  0.00    +0.000 NA
ATOM     24  C   UNL     1       2.916   3.631  20.605  0.00  0.00    +0.000 C 
ATOM     25  C   UNL     1       1.597   3.087  21.153  0.00  0.00    +0.000 C 
ATOM     26  C   UNL     1       0.494   3.144  20.104  0.00  0.00    +0.000 C 
ATOM     27  C   UNL     1       0.955   2.466  18.821  0.00  0.00    +0.000 C 
ATOM     28  C   UNL     1       2.286   3.050  18.338  0.00  0.00    +0.000 C 
ENDBRANCH  22  23
ENDBRANCH  21  22
ENDBRANCH   1  21
TORSDOF 9
ENDMDL
MODEL 4
REMARK VINA RESULT:      -7.0      2.895      4.718
REMARK  Name = 
REMARK  11 active torsions:
REMARK  status: ('A' for Active; 'I' for Inactive)
REMARK    1  A    between atoms: C_1  and  C_2
REMARK    2  A    between atoms: C_2  and  S_3
REMARK    3  A    between atoms: S_3  and  N_6
REMARK    4  A    between atoms: N_6  and  C_7
REMARK    5  A    between atoms: N_6  and  C_15
REMARK    6  A    between atoms: C_7  and  C_8
REMARK    7  A    between atoms: C_8  and  N_9
REMARK    8  A    between atoms: C_18  and  C_20
REMARK    9  A    between atoms: C_20  and  C_21
REMARK   10  A    between atoms: C_21  and  N_22
REMARK   11  A    between atoms: C_24  and  C_25
REMARK                            x       y       z     vdW  Elec       q    Type
REMARK                         _______ _______ _______ _____ _____    ______ ____
ROOT
ATOM      1  N   UNL     1       5.301   5.138  17.867  0.00  0.00    +0.000 NA
ENDROOT
BRANCH   1   2
ATOM      2  C   UNL     1       4.600   6.457  18.270  0.00  0.00    +0.000 C 
ATOM      3  C   UNL     1       3.992   7.399  17.184  0.00  0.00    +0.000 C 
ATOM      4  N   UNL     1       2.957   7.672  18.169  0.00  0.00    +0.000 N 
ATOM      5  C   UNL     1       1.928   8.564  18.222  0.00  0.00    +0.000 C 
ATOM      6  O   UNL     1       1.775   9.448  17.382  0.00  0.00    +0.000 OA
ATOM      7  C   UNL     1       3.162   6.416  18.844  0.00  0.00    +0.000 C 
BRANCH   5   8
ATOM      8  C   UNL     1       1.036   8.440  19.445  0.00  0.00    +0.000 C 
BRANCH   8   9
ATOM      9  C   UNL     1       1.689   9.079  20.660  0.00  0.00    +0.000 C 
BRANCH   9  10
ATOM     10  N   UNL     1       0.728   9.698  21.555  0.00  0.00    +0.000 N 
ATOM     11  C   UNL     1       0.072  10.881  21.355  0.00  0.00    +0.000 A 
ATOM     12  C   UNL     1      -0.792  11.035  22.422  0.00  0.00    +0.000 A 
ATOM     13  C   UNL     1      -1.744  12.138  22.679  0.00  0.00    +0.000 C 
ATOM     14  C   UNL     1      -0.565   9.885  23.212  0.00  0.00    +0.000 A 
ATOM     15  N   UNL     1       0.359   9.072  22.691  0.00  0.00    +0.000 NA
ENDBRANCH   9  10
ENDBRANCH   8   9
ENDBRANCH   5   8
ENDBRANCH   1   2
BRANCH   1  16
ATOM     16  S   UNL     1       6.974   5.224  17.355  0.00  0.00    +0.000 S 
ATOM     17  O   UNL     1       7.722   4.209  18.059  0.00  0.00    +0.000 OA
ATOM     18  O   UNL     1       7.355   6.619  17.428  0.00  0.00    +0.000 OA
BRANCH  16  20
ATOM     19  C   UNL     1       5.498   4.289  15.261  0.00  0.00    +0.000 C 
ATOM     20  C   UNL     1       6.905   4.742  15.625  0.00  0.00    +0.000 C 
ENDBRANCH  16  20
ENDBRANCH   1  16
BRANCH   1  21
ATOM     21  C   UNL     1       5.190   4.103  18.993  0.00  0.00    +0.000 C 
BRANCH  21  22
ATOM     22  C   UNL     1       4.535   2.745  18.637  0.00  0.00    +0.000 C 
BRANCH  22  23
ATOM     23  N   UNL     1       3.194   2.529  19.214  0.00  0.00    +0.000 NA
ATOM     24  C   UNL     1       3.057   3.221  20.505  0.00  0.00    +0.000 C 
ATOM     25  C   UNL     1       1.704   2.932  21.152  0.00  0.00    +0.000 C 
ATOM     26  C   UNL     1       0.554   3.292  20.220  0.00  0.00    +0.000 C 
ATOM     27  C   UNL     1       0.747   2.623  18.865  0.00  0.00    +0.000 C 
ATOM     28  C   UNL     1       2.128   2.945  18.285  0.00  0.00    +0.000 C 
ENDBRANCH  22  23
ENDBRANCH  21  22
ENDBRANCH   1  21
TORSDOF 9
ENDMDL
MODEL 5
REMARK VINA RESULT:      -6.8      2.930      4.805
REMARK  Name = 
REMARK  11 active torsions:
REMARK  status: ('A' for Active; 'I' for Inactive)
REMARK    1  A    between atoms: C_1  and  C_2
REMARK    2  A    between atoms: C_2  and  S_3
REMARK    3  A    between atoms: S_3  and  N_6
REMARK    4  A    between atoms: N_6  and  C_7
REMARK    5  A    between atoms: N_6  and  C_15
REMARK    6  A    between atoms: C_7  and  C_8
REMARK    7  A    between atoms: C_8  and  N_9
REMARK    8  A    between atoms: C_18  and  C_20
REMARK    9  A    between atoms: C_20  and  C_21
REMARK   10  A    between atoms: C_21  and  N_22
REMARK   11  A    between atoms: C_24  and  C_25
REMARK                            x       y       z     vdW  Elec       q    Type
REMARK                         _______ _______ _______ _____ _____    ______ ____
ROOT
ATOM      1  N   UNL     1       4.334   5.539  17.619  0.00  0.00    +0.000 NA
ENDROOT
BRANCH   1   2
ATOM      2  C   UNL     1       3.086   6.431  17.819  0.00  0.00    +0.000 C 
ATOM      3  C   UNL     1       2.536   6.721  19.251  0.00  0.00    +0.000 C 
ATOM      4  N   UNL     1       2.207   8.038  18.730  0.00  0.00    +0.000 N 
ATOM      5  C   UNL     1       1.503   9.093  19.230  0.00  0.00    +0.000 C 
ATOM      6  O   UNL     1       0.878   9.029  20.287  0.00  0.00    +0.000 OA
ATOM      7  C   UNL     1       3.219   7.970  17.707  0.00  0.00    +0.000 C 
BRANCH   5   8
ATOM      8  C   UNL     1       1.475  10.323  18.341  0.00  0.00    +0.000 C 
BRANCH   8   9
ATOM      9  C   UNL     1       0.802  11.489  19.049  0.00  0.00    +0.000 C 
BRANCH   9  10
ATOM     10  N   UNL     1       1.434  12.763  18.759  0.00  0.00    +0.000 N 
ATOM     11  C   UNL     1       0.926  14.004  19.023  0.00  0.00    +0.000 A 
ATOM     12  C   UNL     1       1.896  14.913  18.649  0.00  0.00    +0.000 A 
ATOM     13  C   UNL     1       1.856  16.389  18.744  0.00  0.00    +0.000 C 
ATOM     14  C   UNL     1       2.948  14.105  18.160  0.00  0.00    +0.000 A 
ATOM     15  N   UNL     1       2.671  12.800  18.222  0.00  0.00    +0.000 NA
ENDBRANCH   9  10
ENDBRANCH   8   9
ENDBRANCH   5   8
ENDBRANCH   1   2
BRANCH   1  16
ATOM     16  S   UNL     1       5.689   6.213  16.739  0.00  0.00    +0.000 S 
ATOM     17  O   UNL     1       6.438   7.067  17.633  0.00  0.00    +0.000 OA
ATOM     18  O   UNL     1       5.159   6.720  15.491  0.00  0.00    +0.000 OA
BRANCH  16  20
ATOM     19  C   UNL     1       6.780   4.541  14.881  0.00  0.00    +0.000 C 
ATOM     20  C   UNL     1       6.711   4.777  16.383  0.00  0.00    +0.000 C 
ENDBRANCH  16  20
ENDBRANCH   1  16
BRANCH   1  21
ATOM     21  C   UNL     1       4.842   5.013  18.967  0.00  0.00    +0.000 C 
BRANCH  21  22
ATOM     22  C   UNL     1       4.815   3.479  19.179  0.00  0.00    +0.000 C 
BRANCH  22  23
ATOM     23  N   UNL     1       3.502   2.924  19.559  0.00  0.00    +0.000 NA
ATOM     24  C   UNL     1       2.876   3.730  20.619  0.00  0.00    +0.000 C 
ATOM     25  C   UNL     1       1.556   3.115  21.081  0.00  0.00    +0.000 C 
ATOM     26  C   UNL     1       0.597   2.917  19.914  0.00  0.00    +0.000 C 
ATOM     27  C   UNL     1       1.283   2.141  18.797  0.00  0.00    +0.000 C 
ATOM     28  C   UNL     1       2.603   2.806  18.396  0.00  0.00    +0.000 C 
ENDBRANCH  22  23
ENDBRANCH  21  22
ENDBRANCH   1  21
TORSDOF 9
ENDMDL
MODEL 6
REMARK VINA RESULT:      -6.8      1.451      2.064
REMARK  Name = 
REMARK  11 active torsions:
REMARK  status: ('A' for Active; 'I' for Inactive)
REMARK    1  A    between atoms: C_1  and  C_2
REMARK    2  A    between atoms: C_2  and  S_3
REMARK    3  A    between atoms: S_3  and  N_6
REMARK    4  A    between atoms: N_6  and  C_7
REMARK    5  A    between atoms: N_6  and  C_15
REMARK    6  A    between atoms: C_7  and  C_8
REMARK    7  A    between atoms: C_8  and  N_9
REMARK    8  A    between atoms: C_18  and  C_20
REMARK    9  A    between atoms: C_20  and  C_21
REMARK   10  A    between atoms: C_21  and  N_22
REMARK   11  A    between atoms: C_24  and  C_25
REMARK                            x       y       z     vdW  Elec       q    Type
REMARK                         _______ _______ _______ _____ _____    ______ ____
ROOT
ATOM      1  N   UNL     1       3.252   4.139  19.503  0.00  0.00    +0.000 NA
ENDROOT
BRANCH   1   2
ATOM      2  C   UNL     1       3.283   5.681  19.382  0.00  0.00    +0.000 C 
ATOM      3  C   UNL     1       3.137   6.374  17.991  0.00  0.00    +0.000 C 
ATOM      4  N   UNL     1       2.410   7.407  18.712  0.00  0.00    +0.000 N 
ATOM      5  C   UNL     1       1.931   8.633  18.361  0.00  0.00    +0.000 C 
ATOM      6  O   UNL     1       2.171   9.150  17.272  0.00  0.00    +0.000 OA
ATOM      7  C   UNL     1       2.031   6.505  19.771  0.00  0.00    +0.000 C 
BRANCH   5   8
ATOM      8  C   UNL     1       1.154   9.353  19.449  0.00  0.00    +0.000 C 
BRANCH   8   9
ATOM      9  C   UNL     1       0.663  10.706  18.960  0.00  0.00    +0.000 C 
BRANCH   9  10
ATOM     10  N   UNL     1      -0.728  10.685  18.547  0.00  0.00    +0.000 N 
ATOM     11  C   UNL     1      -1.738  11.462  19.043  0.00  0.00    +0.000 A 
ATOM     12  C   UNL     1      -2.866  11.154  18.308  0.00  0.00    +0.000 A 
ATOM     13  C   UNL     1      -4.225  11.728  18.430  0.00  0.00    +0.000 C 
ATOM     14  C   UNL     1      -2.422  10.168  17.399  0.00  0.00    +0.000 A 
ATOM     15  N   UNL     1      -1.125   9.877  17.543  0.00  0.00    +0.000 NA
ENDBRANCH   9  10
ENDBRANCH   8   9
ENDBRANCH   5   8
ENDBRANCH   1   2
BRANCH   1  16
ATOM     16  S   UNL     1       2.054   3.269  18.568  0.00  0.00    +0.000 S 
ATOM     17  O   UNL     1       2.606   1.987  18.194  0.00  0.00    +0.000 OA
ATOM     18  O   UNL     1       1.564   4.193  17.567  0.00  0.00    +0.000 OA
BRANCH  16  20
ATOM     19  C   UNL     1       1.307   2.926  21.169  0.00  0.00    +0.000 C 
ATOM     20  C   UNL     1       0.740   2.966  19.756  0.00  0.00    +0.000 C 
ENDBRANCH  16  20
ENDBRANCH   1  16
BRANCH   1  21
ATOM     21  C   UNL     1       4.633   3.547  19.194  0.00  0.00    +0.000 C 
BRANCH  21  22
ATOM     22  C   UNL     1       5.765   4.546  18.849  0.00  0.00    +0.000 C 
BRANCH  22  23
ATOM     23  N   UNL     1       6.282   4.452  17.470  0.00  0.00    +0.000 NA
ATOM     24  C   UNL     1       5.296   3.821  16.579  0.00  0.00    +0.000 C 
ATOM     25  C   UNL     1       5.855   3.640  15.169  0.00  0.00    +0.000 C 
ATOM     26  C   UNL     1       6.341   4.962  14.590  0.00  0.00    +0.000 C 
ATOM     27  C   UNL     1       7.308   5.634  15.556  0.00  0.00    +0.000 C 
ATOM     28  C   UNL     1       6.687   5.770  16.949  0.00  0.00    +0.000 C 
ENDBRANCH  22  23
ENDBRANCH  21  22
ENDBRANCH   1  21
TORSDOF 9
ENDMDL
MODEL 7
REMARK VINA RESULT:      -6.8      1.001      1.636
REMARK  Name = 
REMARK  11 active torsions:
REMARK  status: ('A' for Active; 'I' for Inactive)
REMARK    1  A    between atoms: C_1  and  C_2
REMARK    2  A    between atoms: C_2  and  S_3
REMARK    3  A    between atoms: S_3  and  N_6
REMARK    4  A    between atoms: N_6  and  C_7
REMARK    5  A    between atoms: N_6  and  C_15
REMARK    6  A    between atoms: C_7  and  C_8
REMARK    7  A    between atoms: C_8  and  N_9
REMARK    8  A    between atoms: C_18  and  C_20
REMARK    9  A    between atoms: C_20  and  C_21
REMARK   10  A    between atoms: C_21  and  N_22
REMARK   11  A    between atoms: C_24  and  C_25
REMARK                            x       y       z     vdW  Elec       q    Type
REMARK                         _______ _______ _______ _____ _____    ______ ____
ROOT
ATOM      1  N   UNL     1       3.918   4.346  18.385  0.00  0.00    +0.000 NA
ENDROOT
BRANCH   1   2
ATOM      2  C   UNL     1       2.795   5.387  18.605  0.00  0.00    +0.000 C 
ATOM      3  C   UNL     1       2.688   6.170  19.951  0.00  0.00    +0.000 C 
ATOM      4  N   UNL     1       2.240   7.285  19.131  0.00  0.00    +0.000 N 
ATOM      5  C   UNL     1       1.726   8.513  19.421  0.00  0.00    +0.000 C 
ATOM      6  O   UNL     1       1.434   8.854  20.566  0.00  0.00    +0.000 OA
ATOM      7  C   UNL     1       2.911   6.788  17.956  0.00  0.00    +0.000 C 
BRANCH   5   8
ATOM      8  C   UNL     1       1.460   9.397  18.216  0.00  0.00    +0.000 C 
BRANCH   8   9
ATOM      9  C   UNL     1       1.011  10.784  18.649  0.00  0.00    +0.000 C 
BRANCH   9  10
ATOM     10  N   UNL     1      -0.426  10.965  18.552  0.00  0.00    +0.000 N 
ATOM     11  C   UNL     1      -1.293  10.224  17.798  0.00  0.00    +0.000 A 
ATOM     12  C   UNL     1      -2.559  10.703  18.073  0.00  0.00    +0.000 A 
ATOM     13  C   UNL     1      -3.854  10.233  17.532  0.00  0.00    +0.000 C 
ATOM     14  C   UNL     1      -2.336  11.743  19.003  0.00  0.00    +0.000 A 
ATOM     15  N   UNL     1      -1.042  11.908  19.295  0.00  0.00    +0.000 NA
ENDBRANCH   9  10
ENDBRANCH   8   9
ENDBRANCH   5   8
ENDBRANCH   1   2
BRANCH   1  16
ATOM     16  S   UNL     1       3.632   2.706  18.929  0.00  0.00    +0.000 S 
ATOM     17  O   UNL     1       4.655   2.354  19.886  0.00  0.00    +0.000 OA
ATOM     18  O   UNL     1       3.417   1.911  17.739  0.00  0.00    +0.000 OA
BRANCH  16  20
ATOM     19  C   UNL     1       0.921   2.406  18.925  0.00  0.00    +0.000 C 
ATOM     20  C   UNL     1       2.077   2.829  19.821  0.00  0.00    +0.000 C 
ENDBRANCH  16  20
ENDBRANCH   1  16
BRANCH   1  21
ATOM     21  C   UNL     1       4.332   4.304  16.909  0.00  0.00    +0.000 C 
BRANCH  21  22
ATOM     22  C   UNL     1       5.798   3.910  16.601  0.00  0.00    +0.000 C 
BRANCH  22  23
ATOM     23  N   UNL     1       6.815   4.863  17.082  0.00  0.00    +0.000 NA
ATOM     24  C   UNL     1       6.475   6.240  16.690  0.00  0.00    +0.000 C 
ATOM     25  C   UNL     1       7.566   7.224  17.108  0.00  0.00    +0.000 C 
ATOM     26  C   UNL     1       7.847   7.140  18.602  0.00  0.00    +0.000 C 
ATOM     27  C   UNL     1       8.130   5.698  19.003  0.00  0.00    +0.000 C 
ATOM     28  C   UNL     1       7.004   4.769  18.540  0.00  0.00    +0.000 C 
ENDBRANCH  22  23
ENDBRANCH  21  22
ENDBRANCH   1  21
TORSDOF 9
ENDMDL
MODEL 8
REMARK VINA RESULT:      -6.8      2.818      4.688
REMARK  Name = 
REMARK  11 active torsions:
REMARK  status: ('A' for Active; 'I' for Inactive)
REMARK    1  A    between atoms: C_1  and  C_2
REMARK    2  A    between atoms: C_2  and  S_3
REMARK    3  A    between atoms: S_3  and  N_6
REMARK    4  A    between atoms: N_6  and  C_7
REMARK    5  A    between atoms: N_6  and  C_15
REMARK    6  A    between atoms: C_7  and  C_8
REMARK    7  A    between atoms: C_8  and  N_9
REMARK    8  A    between atoms: C_18  and  C_20
REMARK    9  A    between atoms: C_20  and  C_21
REMARK   10  A    between atoms: C_21  and  N_22
REMARK   11  A    between atoms: C_24  and  C_25
REMARK                            x       y       z     vdW  Elec       q    Type
REMARK                         _______ _______ _______ _____ _____    ______ ____
ROOT
ATOM      1  N   UNL     1       5.189   5.342  17.285  0.00  0.00    +0.000 NA
ENDROOT
BRANCH   1   2
ATOM      2  C   UNL     1       4.577   6.670  17.788  0.00  0.00    +0.000 C 
ATOM      3  C   UNL     1       3.580   7.475  16.897  0.00  0.00    +0.000 C 
ATOM      4  N   UNL     1       2.917   7.812  18.147  0.00  0.00    +0.000 N 
ATOM      5  C   UNL     1       1.909   8.670  18.470  0.00  0.00    +0.000 C 
ATOM      6  O   UNL     1       1.426   9.458  17.659  0.00  0.00    +0.000 OA
ATOM      7  C   UNL     1       3.419   6.639  18.817  0.00  0.00    +0.000 C 
BRANCH   5   8
ATOM      8  C   UNL     1       1.486   8.641  19.928  0.00  0.00    +0.000 C 
BRANCH   8   9
ATOM      9  C   UNL     1       0.110   9.264  20.106  0.00  0.00    +0.000 C 
BRANCH   9  10
ATOM     10  N   UNL     1       0.163  10.572  20.734  0.00  0.00    +0.000 N 
ATOM     11  C   UNL     1       1.035  11.583  20.440  0.00  0.00    +0.000 A 
ATOM     12  C   UNL     1       0.669  12.657  21.227  0.00  0.00    +0.000 A 
ATOM     13  C   UNL     1       1.279  14.004  21.281  0.00  0.00    +0.000 C 
ATOM     14  C   UNL     1      -0.436  12.177  21.967  0.00  0.00    +0.000 A 
ATOM     15  N   UNL     1      -0.744  10.910  21.673  0.00  0.00    +0.000 NA
ENDBRANCH   9  10
ENDBRANCH   8   9
ENDBRANCH   5   8
ENDBRANCH   1   2
BRANCH   1  16
ATOM     16  S   UNL     1       6.856   5.361  16.747  0.00  0.00    +0.000 S 
ATOM     17  O   UNL     1       7.664   4.682  17.733  0.00  0.00    +0.000 OA
ATOM     18  O   UNL     1       7.145   6.723  16.353  0.00  0.00    +0.000 OA
BRANCH  16  20
ATOM     19  C   UNL     1       5.470   4.428  14.590  0.00  0.00    +0.000 C 
ATOM     20  C   UNL     1       6.829   4.334  15.272  0.00  0.00    +0.000 C 
ENDBRANCH  16  20
ENDBRANCH   1  16
BRANCH   1  21
ATOM     21  C   UNL     1       5.032   4.241  18.342  0.00  0.00    +0.000 C 
BRANCH  21  22
ATOM     22  C   UNL     1       4.206   2.994  17.941  0.00  0.00    +0.000 C 
BRANCH  22  23
ATOM     23  N   UNL     1       3.093   2.663  18.850  0.00  0.00    +0.000 NA
ATOM     24  C   UNL     1       3.360   3.154  20.211  0.00  0.00    +0.000 C 
ATOM     25  C   UNL     1       2.254   2.740  21.180  0.00  0.00    +0.000 C 
ATOM     26  C   UNL     1       0.887   3.206  20.695  0.00  0.00    +0.000 C 
ATOM     27  C   UNL     1       0.656   2.747  19.260  0.00  0.00    +0.000 C 
ATOM     28  C   UNL     1       1.808   3.184  18.351  0.00  0.00    +0.000 C 
ENDBRANCH  22  23
ENDBRANCH  21  22
ENDBRANCH   1  21
TORSDOF 9
ENDMDL
MODEL 9
REMARK VINA RESULT:      -6.7      2.331      7.402
REMARK  Name = 
REMARK  11 active torsions:
REMARK  status: ('A' for Active; 'I' for Inactive)
REMARK    1  A    between atoms: C_1  and  C_2
REMARK    2  A    between atoms: C_2  and  S_3
REMARK    3  A    between atoms: S_3  and  N_6
REMARK    4  A    between atoms: N_6  and  C_7
REMARK    5  A    between atoms: N_6  and  C_15
REMARK    6  A    between atoms: C_7  and  C_8
REMARK    7  A    between atoms: C_8  and  N_9
REMARK    8  A    between atoms: C_18  and  C_20
REMARK    9  A    between atoms: C_20  and  C_21
REMARK   10  A    between atoms: C_21  and  N_22
REMARK   11  A    between atoms: C_24  and  C_25
REMARK                            x       y       z     vdW  Elec       q    Type
REMARK                         _______ _______ _______ _____ _____    ______ ____
ROOT
ATOM      1  N   UNL     1       2.176   5.165  18.904  0.00  0.00    +0.000 NA
ENDROOT
BRANCH   1   2
ATOM      2  C   UNL     1       3.405   5.418  17.999  0.00  0.00    +0.000 C 
ATOM      3  C   UNL     1       3.878   6.872  17.688  0.00  0.00    +0.000 C 
ATOM      4  N   UNL     1       5.222   6.316  17.719  0.00  0.00    +0.000 N 
ATOM      5  C   UNL     1       6.450   6.818  17.406  0.00  0.00    +0.000 C 
ATOM      6  O   UNL     1       6.600   7.922  16.886  0.00  0.00    +0.000 OA
ATOM      7  C   UNL     1       4.831   5.223  18.572  0.00  0.00    +0.000 C 
BRANCH   5   8
ATOM      8  C   UNL     1       7.612   5.876  17.667  0.00  0.00    +0.000 C 
BRANCH   8   9
ATOM      9  C   UNL     1       7.300   4.477  17.158  0.00  0.00    +0.000 C 
BRANCH   9  10
ATOM     10  N   UNL     1       7.038   4.443  15.731  0.00  0.00    +0.000 N 
ATOM     11  C   UNL     1       6.110   3.671  15.090  0.00  0.00    +0.000 A 
ATOM     12  C   UNL     1       6.162   4.021  13.755  0.00  0.00    +0.000 A 
ATOM     13  C   UNL     1       5.349   3.495  12.637  0.00  0.00    +0.000 C 
ATOM     14  C   UNL     1       7.168   5.012  13.703  0.00  0.00    +0.000 A 
ATOM     15  N   UNL     1       7.705   5.269  14.899  0.00  0.00    +0.000 NA
ENDBRANCH   9  10
ENDBRANCH   8   9
ENDBRANCH   5   8
ENDBRANCH   1   2
BRANCH   1  16
ATOM     16  S   UNL     1       1.757   3.504  19.269  0.00  0.00    +0.000 S 
ATOM     17  O   UNL     1       2.294   2.656  18.231  0.00  0.00    +0.000 OA
ATOM     18  O   UNL     1       0.344   3.497  19.585  0.00  0.00    +0.000 OA
BRANCH  16  20
ATOM     19  C   UNL     1       1.750   2.612  21.847  0.00  0.00    +0.000 C 
ATOM     20  C   UNL     1       2.679   3.164  20.775  0.00  0.00    +0.000 C 
ENDBRANCH  16  20
ENDBRANCH   1  16
BRANCH   1  21
ATOM     21  C   UNL     1       2.311   5.934  20.224  0.00  0.00    +0.000 C 
BRANCH  21  22
ATOM     22  C   UNL     1       1.018   6.552  20.813  0.00  0.00    +0.000 C 
BRANCH  22  23
ATOM     23  N   UNL     1       1.051   8.017  20.989  0.00  0.00    +0.000 NA
ATOM     24  C   UNL     1       1.170   8.701  19.692  0.00  0.00    +0.000 C 
ATOM     25  C   UNL     1       1.292  10.213  19.870  0.00  0.00    +0.000 C 
ATOM     26  C   UNL     1       0.126  10.774  20.674  0.00  0.00    +0.000 C 
ATOM     27  C   UNL     1      -0.026  10.009  21.982  0.00  0.00    +0.000 C 
ATOM     28  C   UNL     1      -0.128   8.502  21.728  0.00  0.00    +0.000 C 
ENDBRANCH  22  23
ENDBRANCH  21  22
ENDBRANCH   1  21
TORSDOF 9
ENDMDL
