MODEL 1
REMARK VINA RESULT:      -8.3      0.000      0.000
REMARK  Name = 
REMARK  5 active torsions:
REMARK  status: ('A' for Active; 'I' for Inactive)
REMARK    1  A    between atoms: C_1  and  S_2
REMARK    2  A    between atoms: S_2  and  C_5
REMARK    3  A    between atoms: C_5  and  C_6
REMARK    4  A    between atoms: C_8  and  N_9
REMARK    5  A    between atoms: C_16  and  C_17
REMARK                            x       y       z     vdW  Elec       q    Type
REMARK                         _______ _______ _______ _____ _____    ______ ____
ROOT
ATOM      1  C   UNL     1       2.773   4.743  19.700  0.00  0.00    +0.000 A 
ATOM      2  C   UNL     1       3.894   4.898  18.897  0.00  0.00    +0.000 A 
ATOM      3  C   UNL     1       4.245   6.167  18.492  0.00  0.00    +0.000 A 
ATOM      4  N   UNL     1       3.545   7.223  18.923  0.00  0.00    +0.000 NA
ATOM      5  C   UNL     1       2.511   7.026  19.753  0.00  0.00    +0.000 A 
ATOM      6  N   UNL     1       2.094   5.815  20.157  0.00  0.00    +0.000 NA
ENDROOT
BRANCH   5   7
ATOM      7  C   UNL     1       1.713   8.191  20.160  0.00  0.00    +0.000 A 
ATOM      8  C   UNL     1       1.143   8.278  21.452  0.00  0.00    +0.000 A 
ATOM      9  C   UNL     1       0.344   9.352  21.829  0.00  0.00    +0.000 A 
ATOM     10 CL   UNL     1      -0.340   9.387  23.410  0.00  0.00    +0.000 Cl
ATOM     11  C   UNL     1       0.073  10.397  20.948  0.00  0.00    +0.000 A 
ATOM     12  C   UNL     1       0.649  10.330  19.674  0.00  0.00    +0.000 A 
ATOM     13  N   UNL     1       0.551  11.216  18.623  0.00  0.00    +0.000 N 
ATOM     14  C   UNL     1       1.284  10.772  17.559  0.00  0.00    +0.000 A 
ATOM     15  C   UNL     1       1.863   9.581  17.923  0.00  0.00    +0.000 A 
ATOM     16  C   UNL     1       1.461   9.268  19.261  0.00  0.00    +0.000 A 
ATOM     17  H   UNL     1       0.012  12.070  18.642  0.00  0.00    +0.000 HD
ENDBRANCH   5   7
BRANCH   3  18
ATOM     18  N   UNL     1       5.248   6.385  17.579  0.00  0.00    +0.000 N 
ATOM     19  C   UNL     1       5.028   6.580  16.144  0.00  0.00    +0.000 C 
ATOM     20  C   UNL     1       5.805   5.523  15.336  0.00  0.00    +0.000 C 
ATOM     21  O   UNL     1       7.189   5.451  15.716  0.00  0.00    +0.000 OA
ATOM     22  C   UNL     1       7.305   5.122  17.111  0.00  0.00    +0.000 C 
ATOM     23  C   UNL     1       6.649   6.199  17.979  0.00  0.00    +0.000 C 
ENDBRANCH   3  18
BRANCH   1  24
ATOM     24  C   UNL     1       2.221   3.381  19.992  0.00  0.00    +0.000 C 
ATOM     25  C   UNL     1       1.268   3.179  21.152  0.00  0.00    +0.000 C 
ATOM     26  C   UNL     1       2.658   2.616  21.224  0.00  0.00    +0.000 C 
BRANCH  24  28
ATOM     27  C   UNL     1       3.345   1.419  18.274  0.00  0.00    +0.000 C 
ATOM     28  S   UNL     1       1.846   2.323  18.550  0.00  0.00    +0.000 S 
ATOM     29  O   UNL     1       1.635   3.221  17.431  0.00  0.00    +0.000 OA
ATOM     30  O   UNL     1       0.818   1.373  18.939  0.00  0.00    +0.000 OA
ENDBRANCH  24  28
ENDBRANCH   1  24
TORSDOF 4
ENDMDL
MODEL 2
REMARK VINA RESULT:      -8.3      1.642      2.271
REMARK  Name = 
REMARK  5 active torsions:
REMARK  status: ('A' for Active; 'I' for Inactive)
REMARK    1  A    between atoms: C_1  and  S_2
REMARK    2  A    between atoms: S_2  and  C_5
REMARK    3  A    between atoms: C_5  and  C_6
REMARK    4  A    between atoms: C_8  and  N_9
REMARK    5  A    between atoms: C_16  and  C_17
REMARK                            x       y       z     vdW  Elec       q    Type
REMARK                         _______ _______ _______ _____ _____    ______ ____
ROOT
ATOM      1  C   UNL     1       2.668   5.421  19.190  0.00  0.00    +0.000 A 
ATOM      2  C   UNL     1       3.794   5.418  18.379  0.00  0.00    +0.000 A 
ATOM      3  C   UNL     1       4.218   6.610  17.835  0.00  0.00    +0.000 A 
ATOM      4  N   UNL     1       3.583   7.748  18.142  0.00  0.00    +0.000 NA
ATOM      5  C   UNL     1       2.541   7.707  18.984  0.00  0.00    +0.000 A 
ATOM      6  N   UNL     1       2.054   6.576  19.520  0.00  0.00    +0.000 NA
ENDROOT
BRANCH   5   7
ATOM      7  C   UNL     1       1.814   8.955  19.254  0.00  0.00    +0.000 A 
ATOM      8  C   UNL     1       1.988  10.099  18.440  0.00  0.00    +0.000 A 
ATOM      9  C   UNL     1       1.345  11.300  18.718  0.00  0.00    +0.000 A 
ATOM     10 CL   UNL     1       1.617  12.663  17.700  0.00  0.00    +0.000 Cl
ATOM     11  C   UNL     1       0.492  11.429  19.813  0.00  0.00    +0.000 A 
ATOM     12  C   UNL     1       0.298  10.297  20.613  0.00  0.00    +0.000 A 
ATOM     13  N   UNL     1      -0.482  10.146  21.738  0.00  0.00    +0.000 N 
ATOM     14  C   UNL     1      -0.396   8.866  22.207  0.00  0.00    +0.000 A 
ATOM     15  C   UNL     1       0.456   8.178  21.377  0.00  0.00    +0.000 A 
ATOM     16  C   UNL     1       0.925   9.071  20.362  0.00  0.00    +0.000 A 
ATOM     17  H   UNL     1      -1.038  10.881  22.154  0.00  0.00    +0.000 HD
ENDBRANCH   5   7
BRANCH   3  18
ATOM     18  N   UNL     1       5.231   6.665  16.908  0.00  0.00    +0.000 N 
ATOM     19  C   UNL     1       5.038   6.484  15.467  0.00  0.00    +0.000 C 
ATOM     20  C   UNL     1       5.904   5.316  14.956  0.00  0.00    +0.000 C 
ATOM     21  O   UNL     1       7.279   5.435  15.357  0.00  0.00    +0.000 OA
ATOM     22  C   UNL     1       7.376   5.471  16.791  0.00  0.00    +0.000 C 
ATOM     23  C   UNL     1       6.628   6.681  17.357  0.00  0.00    +0.000 C 
ENDBRANCH   3  18
BRANCH   1  24
ATOM     24  C   UNL     1       2.038   4.135  19.631  0.00  0.00    +0.000 C 
ATOM     25  C   UNL     1       1.194   4.093  20.889  0.00  0.00    +0.000 C 
ATOM     26  C   UNL     1       2.533   3.414  20.867  0.00  0.00    +0.000 C 
BRANCH  24  28
ATOM     27  C   UNL     1       2.786   1.925  18.012  0.00  0.00    +0.000 C 
ATOM     28  S   UNL     1       1.430   3.026  18.312  0.00  0.00    +0.000 S 
ATOM     29  O   UNL     1       1.242   3.856  17.138  0.00  0.00    +0.000 OA
ATOM     30  O   UNL     1       0.330   2.243  18.847  0.00  0.00    +0.000 OA
ENDBRANCH  24  28
ENDBRANCH   1  24
TORSDOF 4
ENDMDL
MODEL 3
REMARK VINA RESULT:      -8.3      2.400      5.157
REMARK  Name = 
REMARK  5 active torsions:
REMARK  status: ('A' for Active; 'I' for Inactive)
REMARK    1  A    between atoms: C_1  and  S_2
REMARK    2  A    between atoms: S_2  and  C_5
REMARK    3  A    between atoms: C_5  and  C_6
REMARK    4  A    between atoms: C_8  and  N_9
REMARK    5  A    between atoms: C_16  and  C_17
REMARK                            x       y       z     vdW  Elec       q    Type
REMARK                         _______ _______ _______ _____ _____    ______ ____
ROOT
ATOM      1  C   UNL     1       4.184   5.808  17.242  0.00  0.00    +0.000 A 
ATOM      2  C   UNL     1       3.691   4.645  17.816  0.00  0.00    +0.000 A 
ATOM      3  C   UNL     1       2.690   4.746  18.757  0.00  0.00    +0.000 A 
ATOM      4  N   UNL     1       2.170   5.943  19.053  0.00  0.00    +0.000 NA
ATOM      5  C   UNL     1       2.634   7.031  18.421  0.00  0.00    +0.000 A 
ATOM      6  N   UNL     1       3.632   7.007  17.522  0.00  0.00    +0.000 NA
ENDROOT
BRANCH   5   7
ATOM      7  C   UNL     1       2.100   8.343  18.810  0.00  0.00    +0.000 A 
ATOM      8  C   UNL     1       2.355   9.500  18.037  0.00  0.00    +0.000 A 
ATOM      9  C   UNL     1       1.898  10.755  18.425  0.00  0.00    +0.000 A 
ATOM     10 CL   UNL     1       2.262  12.129  17.451  0.00  0.00    +0.000 Cl
ATOM     11  C   UNL     1       1.160  10.928  19.594  0.00  0.00    +0.000 A 
ATOM     12  C   UNL     1       0.885   9.785  20.355  0.00  0.00    +0.000 A 
ATOM     13  N   UNL     1       0.184   9.670  21.536  0.00  0.00    +0.000 N 
ATOM     14  C   UNL     1       0.141   8.364  21.936  0.00  0.00    +0.000 A 
ATOM     15  C   UNL     1       0.827   7.623  21.005  0.00  0.00    +0.000 A 
ATOM     16  C   UNL     1       1.326   8.507  19.995  0.00  0.00    +0.000 A 
ATOM     17  H   UNL     1      -0.236  10.444  22.031  0.00  0.00    +0.000 HD
ENDBRANCH   5   7
BRANCH   3  18
ATOM     18  N   UNL     1       2.256   3.657  19.474  0.00  0.00    +0.000 N 
ATOM     19  C   UNL     1       1.036   3.639  20.284  0.00  0.00    +0.000 C 
ATOM     20  C   UNL     1       1.371   3.286  21.746  0.00  0.00    +0.000 C 
ATOM     21  O   UNL     1       2.169   2.096  21.854  0.00  0.00    +0.000 OA
ATOM     22  C   UNL     1       3.405   2.260  21.138  0.00  0.00    +0.000 C 
ATOM     23  C   UNL     1       3.143   2.500  19.649  0.00  0.00    +0.000 C 
ENDBRANCH   3  18
BRANCH   1  24
ATOM     24  C   UNL     1       5.410   5.779  16.382  0.00  0.00    +0.000 C 
ATOM     25  C   UNL     1       5.407   6.461  15.029  0.00  0.00    +0.000 C 
ATOM     26  C   UNL     1       5.443   4.962  15.108  0.00  0.00    +0.000 C 
BRANCH  24  28
ATOM     27  C   UNL     1       6.607   5.685  18.956  0.00  0.00    +0.000 C 
ATOM     28  S   UNL     1       7.019   5.884  17.244  0.00  0.00    +0.000 S 
ATOM     29  O   UNL     1       7.501   7.236  17.039  0.00  0.00    +0.000 OA
ATOM     30  O   UNL     1       7.824   4.744  16.844  0.00  0.00    +0.000 OA
ENDBRANCH  24  28
ENDBRANCH   1  24
TORSDOF 4
ENDMDL
MODEL 4
REMARK VINA RESULT:      -8.1      2.232      4.970
REMARK  Name = 
REMARK  5 active torsions:
REMARK  status: ('A' for Active; 'I' for Inactive)
REMARK    1  A    between atoms: C_1  and  S_2
REMARK    2  A    between atoms: S_2  and  C_5
REMARK    3  A    between atoms: C_5  and  C_6
REMARK    4  A    between atoms: C_8  and  N_9
REMARK    5  A    between atoms: C_16  and  C_17
REMARK                            x       y       z     vdW  Elec       q    Type
REMARK                         _______ _______ _______ _____ _____    ______ ____
ROOT
ATOM      1  C   UNL     1       4.461   6.410  17.554  0.00  0.00    +0.000 A 
ATOM      2  C   UNL     1       3.760   5.224  17.718  0.00  0.00    +0.000 A 
ATOM      3  C   UNL     1       2.507   5.271  18.288  0.00  0.00    +0.000 A 
ATOM      4  N   UNL     1       1.965   6.451  18.613  0.00  0.00    +0.000 NA
ATOM      5  C   UNL     1       2.655   7.575  18.371  0.00  0.00    +0.000 A 
ATOM      6  N   UNL     1       3.894   7.597  17.853  0.00  0.00    +0.000 NA
ENDROOT
BRANCH   5   7
ATOM      7  C   UNL     1       2.072   8.854  18.798  0.00  0.00    +0.000 A 
ATOM      8  C   UNL     1       2.288  10.043  18.062  0.00  0.00    +0.000 A 
ATOM      9  C   UNL     1       1.785  11.268  18.486  0.00  0.00    +0.000 A 
ATOM     10 CL   UNL     1       2.102  12.683  17.556  0.00  0.00    +0.000 Cl
ATOM     11  C   UNL     1       1.037  11.378  19.656  0.00  0.00    +0.000 A 
ATOM     12  C   UNL     1       0.801  10.204  20.381  0.00  0.00    +0.000 A 
ATOM     13  N   UNL     1       0.101  10.027  21.555  0.00  0.00    +0.000 N 
ATOM     14  C   UNL     1       0.104   8.709  21.914  0.00  0.00    +0.000 A 
ATOM     15  C   UNL     1       0.819   8.022  20.964  0.00  0.00    +0.000 A 
ATOM     16  C   UNL     1       1.289   8.954  19.983  0.00  0.00    +0.000 A 
ATOM     17  H   UNL     1      -0.349  10.770  22.072  0.00  0.00    +0.000 HD
ENDBRANCH   5   7
BRANCH   3  18
ATOM     18  N   UNL     1       1.818   4.129  18.619  0.00  0.00    +0.000 N 
ATOM     19  C   UNL     1       1.015   3.976  19.835  0.00  0.00    +0.000 C 
ATOM     20  C   UNL     1       1.525   2.780  20.663  0.00  0.00    +0.000 C 
ATOM     21  O   UNL     1       1.644   1.581  19.879  0.00  0.00    +0.000 OA
ATOM     22  C   UNL     1       2.555   1.790  18.786  0.00  0.00    +0.000 C 
ATOM     23  C   UNL     1       2.045   2.895  17.857  0.00  0.00    +0.000 C 
ENDBRANCH   3  18
BRANCH   1  24
ATOM     24  C   UNL     1       5.902   6.400  17.143  0.00  0.00    +0.000 C 
ATOM     25  C   UNL     1       6.989   6.240  18.187  0.00  0.00    +0.000 C 
ATOM     26  C   UNL     1       6.814   7.558  17.488  0.00  0.00    +0.000 C 
BRANCH  24  28
ATOM     27  C   UNL     1       6.047   3.862  15.876  0.00  0.00    +0.000 C 
ATOM     28  S   UNL     1       6.295   5.587  15.554  0.00  0.00    +0.000 S 
ATOM     29  O   UNL     1       7.708   5.814  15.321  0.00  0.00    +0.000 OA
ATOM     30  O   UNL     1       5.308   6.004  14.574  0.00  0.00    +0.000 OA
ENDBRANCH  24  28
ENDBRANCH   1  24
TORSDOF 4
ENDMDL
MODEL 5
REMARK VINA RESULT:      -7.9      2.314      5.120
REMARK  Name = 
REMARK  5 active torsions:
REMARK  status: ('A' for Active; 'I' for Inactive)
REMARK    1  A    between atoms: C_1  and  S_2
REMARK    2  A    between atoms: S_2  and  C_5
REMARK    3  A    between atoms: C_5  and  C_6
REMARK    4  A    between atoms: C_8  and  N_9
REMARK    5  A    between atoms: C_16  and  C_17
REMARK                            x       y       z     vdW  Elec       q    Type
REMARK                         _______ _______ _______ _____ _____    ______ ____
ROOT
ATOM      1  C   UNL     1       4.895   6.136  17.679  0.00  0.00    +0.000 A 
ATOM      2  C   UNL     1       4.355   4.907  18.030  0.00  0.00    +0.000 A 
ATOM      3  C   UNL     1       3.139   4.880  18.676  0.00  0.00    +0.000 A 
ATOM      4  N   UNL     1       2.474   6.021  18.895  0.00  0.00    +0.000 NA
ATOM      5  C   UNL     1       3.007   7.178  18.476  0.00  0.00    +0.000 A 
ATOM      6  N   UNL     1       4.204   7.277  17.874  0.00  0.00    +0.000 NA
ENDROOT
BRANCH   5   7
ATOM      7  C   UNL     1       2.296   8.425  18.788  0.00  0.00    +0.000 A 
ATOM      8  C   UNL     1       2.475   9.590  18.005  0.00  0.00    +0.000 A 
ATOM      9  C   UNL     1       1.847  10.790  18.323  0.00  0.00    +0.000 A 
ATOM     10 CL   UNL     1       2.124  12.178  17.342  0.00  0.00    +0.000 Cl
ATOM     11  C   UNL     1       1.006  10.896  19.429  0.00  0.00    +0.000 A 
ATOM     12  C   UNL     1       0.807   9.743  20.198  0.00  0.00    +0.000 A 
ATOM     13  N   UNL     1       0.035   9.568  21.326  0.00  0.00    +0.000 N 
ATOM     14  C   UNL     1       0.113   8.274  21.757  0.00  0.00    +0.000 A 
ATOM     15  C   UNL     1       0.949   7.601  20.901  0.00  0.00    +0.000 A 
ATOM     16  C   UNL     1       1.419   8.519  19.907  0.00  0.00    +0.000 A 
ATOM     17  H   UNL     1      -0.509  10.297  21.768  0.00  0.00    +0.000 HD
ENDBRANCH   5   7
BRANCH   3  18
ATOM     18  N   UNL     1       2.613   3.718  19.185  0.00  0.00    +0.000 N 
ATOM     19  C   UNL     1       1.213   3.312  19.034  0.00  0.00    +0.000 C 
ATOM     20  C   UNL     1       0.567   3.104  20.417  0.00  0.00    +0.000 C 
ATOM     21  O   UNL     1       1.344   2.238  21.262  0.00  0.00    +0.000 OA
ATOM     22  C   UNL     1       2.658   2.788  21.460  0.00  0.00    +0.000 C 
ATOM     23  C   UNL     1       3.401   2.914  20.128  0.00  0.00    +0.000 C 
ENDBRANCH   3  18
BRANCH   1  24
ATOM     24  C   UNL     1       6.302   6.240  17.174  0.00  0.00    +0.000 C 
ATOM     25  C   UNL     1       7.442   6.479  18.142  0.00  0.00    +0.000 C 
ATOM     26  C   UNL     1       7.034   7.564  17.189  0.00  0.00    +0.000 C 
BRANCH  24  28
ATOM     27  C   UNL     1       5.287   5.096  14.781  0.00  0.00    +0.000 C 
ATOM     28  S   UNL     1       6.752   5.152  15.775  0.00  0.00    +0.000 S 
ATOM     29  O   UNL     1       6.978   3.836  16.340  0.00  0.00    +0.000 OA
ATOM     30  O   UNL     1       7.790   5.813  15.003  0.00  0.00    +0.000 OA
ENDBRANCH  24  28
ENDBRANCH   1  24
TORSDOF 4
ENDMDL
MODEL 6
REMARK VINA RESULT:      -7.7      2.023      2.610
REMARK  Name = 
REMARK  5 active torsions:
REMARK  status: ('A' for Active; 'I' for Inactive)
REMARK    1  A    between atoms: C_1  and  S_2
REMARK    2  A    between atoms: S_2  and  C_5
REMARK    3  A    between atoms: C_5  and  C_6
REMARK    4  A    between atoms: C_8  and  N_9
REMARK    5  A    between atoms: C_16  and  C_17
REMARK                            x       y       z     vdW  Elec       q    Type
REMARK                         _______ _______ _______ _____ _____    ______ ____
ROOT
ATOM      1  C   UNL     1       2.976   5.241  19.579  0.00  0.00    +0.000 A 
ATOM      2  C   UNL     1       4.042   5.422  18.709  0.00  0.00    +0.000 A 
ATOM      3  C   UNL     1       4.142   6.613  18.025  0.00  0.00    +0.000 A 
ATOM      4  N   UNL     1       3.255   7.590  18.254  0.00  0.00    +0.000 NA
ATOM      5  C   UNL     1       2.282   7.392  19.154  0.00  0.00    +0.000 A 
ATOM      6  N   UNL     1       2.107   6.243  19.828  0.00  0.00    +0.000 NA
ENDROOT
BRANCH   5   7
ATOM      7  C   UNL     1       1.279   8.449  19.340  0.00  0.00    +0.000 A 
ATOM      8  C   UNL     1       0.577   8.998  18.241  0.00  0.00    +0.000 A 
ATOM      9  C   UNL     1      -0.336  10.035  18.401  0.00  0.00    +0.000 A 
ATOM     10 CL   UNL     1      -1.142  10.675  17.019  0.00  0.00    +0.000 Cl
ATOM     11  C   UNL     1      -0.605  10.577  19.656  0.00  0.00    +0.000 A 
ATOM     12  C   UNL     1       0.070  10.026  20.752  0.00  0.00    +0.000 A 
ATOM     13  N   UNL     1      -0.008  10.364  22.085  0.00  0.00    +0.000 N 
ATOM     14  C   UNL     1       0.814   9.562  22.826  0.00  0.00    +0.000 A 
ATOM     15  C   UNL     1       1.437   8.695  21.961  0.00  0.00    +0.000 A 
ATOM     16  C   UNL     1       0.992   8.981  20.630  0.00  0.00    +0.000 A 
ATOM     17  H   UNL     1      -0.592  11.100  22.458  0.00  0.00    +0.000 HD
ENDBRANCH   5   7
BRANCH   3  18
ATOM     18  N   UNL     1       5.080   6.809  17.041  0.00  0.00    +0.000 N 
ATOM     19  C   UNL     1       4.940   6.328  15.664  0.00  0.00    +0.000 C 
ATOM     20  C   UNL     1       6.120   5.407  15.299  0.00  0.00    +0.000 C 
ATOM     21  O   UNL     1       7.394   6.005  15.588  0.00  0.00    +0.000 OA
ATOM     22  C   UNL     1       7.489   6.318  16.988  0.00  0.00    +0.000 C 
ATOM     23  C   UNL     1       6.409   7.325  17.394  0.00  0.00    +0.000 C 
ENDBRANCH   3  18
BRANCH   1  24
ATOM     24  C   UNL     1       2.697   3.898  20.181  0.00  0.00    +0.000 C 
ATOM     25  C   UNL     1       1.304   3.307  20.109  0.00  0.00    +0.000 C 
ATOM     26  C   UNL     1       1.849   3.770  21.429  0.00  0.00    +0.000 C 
BRANCH  24  28
ATOM     27  C   UNL     1       3.509   1.608  18.712  0.00  0.00    +0.000 C 
ATOM     28  S   UNL     1       4.025   2.649  20.049  0.00  0.00    +0.000 S 
ATOM     29  O   UNL     1       3.981   1.878  21.277  0.00  0.00    +0.000 OA
ATOM     30  O   UNL     1       5.245   3.324  19.644  0.00  0.00    +0.000 OA
ENDBRANCH  24  28
ENDBRANCH   1  24
TORSDOF 4
ENDMDL
MODEL 7
REMARK VINA RESULT:      -7.7      3.366      6.361
REMARK  Name = 
REMARK  5 active torsions:
REMARK  status: ('A' for Active; 'I' for Inactive)
REMARK    1  A    between atoms: C_1  and  S_2
REMARK    2  A    between atoms: S_2  and  C_5
REMARK    3  A    between atoms: C_5  and  C_6
REMARK    4  A    between atoms: C_8  and  N_9
REMARK    5  A    between atoms: C_16  and  C_17
REMARK                            x       y       z     vdW  Elec       q    Type
REMARK                         _______ _______ _______ _____ _____    ______ ____
ROOT
ATOM      1  C   UNL     1       2.136   4.643  18.959  0.00  0.00    +0.000 A 
ATOM      2  C   UNL     1       1.629   5.884  19.315  0.00  0.00    +0.000 A 
ATOM      3  C   UNL     1       2.233   7.014  18.808  0.00  0.00    +0.000 A 
ATOM      4  N   UNL     1       3.248   6.897  17.943  0.00  0.00    +0.000 NA
ATOM      5  C   UNL     1       3.657   5.674  17.577  0.00  0.00    +0.000 A 
ATOM      6  N   UNL     1       3.137   4.534  18.061  0.00  0.00    +0.000 NA
ENDROOT
BRANCH   5   7
ATOM      7  C   UNL     1       4.816   5.566  16.681  0.00  0.00    +0.000 A 
ATOM      8  C   UNL     1       4.807   4.694  15.568  0.00  0.00    +0.000 A 
ATOM      9  C   UNL     1       5.918   4.546  14.744  0.00  0.00    +0.000 A 
ATOM     10 CL   UNL     1       5.850   3.451  13.416  0.00  0.00    +0.000 Cl
ATOM     11  C   UNL     1       7.092   5.259  14.977  0.00  0.00    +0.000 A 
ATOM     12  C   UNL     1       7.104   6.140  16.065  0.00  0.00    +0.000 A 
ATOM     13  N   UNL     1       8.117   6.959  16.515  0.00  0.00    +0.000 N 
ATOM     14  C   UNL     1       7.703   7.668  17.606  0.00  0.00    +0.000 A 
ATOM     15  C   UNL     1       6.406   7.302  17.871  0.00  0.00    +0.000 A 
ATOM     16  C   UNL     1       6.005   6.317  16.913  0.00  0.00    +0.000 A 
ATOM     17  H   UNL     1       9.033   7.022  16.094  0.00  0.00    +0.000 HD
ENDBRANCH   5   7
BRANCH   3  18
ATOM     18  N   UNL     1       1.884   8.274  19.229  0.00  0.00    +0.000 N 
ATOM     19  C   UNL     1       1.437   8.593  20.588  0.00  0.00    +0.000 C 
ATOM     20  C   UNL     1       0.039   9.239  20.551  0.00  0.00    +0.000 C 
ATOM     21  O   UNL     1      -0.033  10.341  19.633  0.00  0.00    +0.000 OA
ATOM     22  C   UNL     1       0.292   9.901  18.303  0.00  0.00    +0.000 C 
ATOM     23  C   UNL     1       1.719   9.351  18.246  0.00  0.00    +0.000 C 
ENDBRANCH   3  18
BRANCH   1  24
ATOM     24  C   UNL     1       1.662   3.396  19.643  0.00  0.00    +0.000 C 
ATOM     25  C   UNL     1       1.394   2.142  18.837  0.00  0.00    +0.000 C 
ATOM     26  C   UNL     1       0.247   2.896  19.447  0.00  0.00    +0.000 C 
BRANCH  24  28
ATOM     27  C   UNL     1       3.883   2.233  20.977  0.00  0.00    +0.000 C 
ATOM     28  S   UNL     1       2.350   3.060  21.303  0.00  0.00    +0.000 S 
ATOM     29  O   UNL     1       1.444   2.121  21.935  0.00  0.00    +0.000 OA
ATOM     30  O   UNL     1       2.656   4.332  21.934  0.00  0.00    +0.000 OA
ENDBRANCH  24  28
ENDBRANCH   1  24
TORSDOF 4
ENDMDL
MODEL 8
REMARK VINA RESULT:      -7.7      1.883      4.720
REMARK  Name = 
REMARK  5 active torsions:
REMARK  status: ('A' for Active; 'I' for Inactive)
REMARK    1  A    between atoms: C_1  and  S_2
REMARK    2  A    between atoms: S_2  and  C_5
REMARK    3  A    between atoms: C_5  and  C_6
REMARK    4  A    between atoms: C_8  and  N_9
REMARK    5  A    between atoms: C_16  and  C_17
REMARK                            x       y       z     vdW  Elec       q    Type
REMARK                         _______ _______ _______ _____ _____    ______ ____
ROOT
ATOM      1  C   UNL     1       3.935   6.094  17.610  0.00  0.00    +0.000 A 
ATOM      2  C   UNL     1       3.559   4.830  18.042  0.00  0.00    +0.000 A 
ATOM      3  C   UNL     1       2.636   4.727  19.059  0.00  0.00    +0.000 A 
ATOM      4  N   UNL     1       2.076   5.832  19.567  0.00  0.00    +0.000 NA
ATOM      5  C   UNL     1       2.423   7.028  19.069  0.00  0.00    +0.000 A 
ATOM      6  N   UNL     1       3.342   7.200  18.104  0.00  0.00    +0.000 NA
ENDROOT
BRANCH   5   7
ATOM      7  C   UNL     1       1.850   8.232  19.686  0.00  0.00    +0.000 A 
ATOM      8  C   UNL     1       1.284   8.196  20.982  0.00  0.00    +0.000 A 
ATOM      9  C   UNL     1       0.693   9.318  21.553  0.00  0.00    +0.000 A 
ATOM     10 CL   UNL     1       0.002   9.203  23.127  0.00  0.00    +0.000 Cl
ATOM     11  C   UNL     1       0.637  10.533  20.874  0.00  0.00    +0.000 A 
ATOM     12  C   UNL     1       1.212  10.583  19.599  0.00  0.00    +0.000 A 
ATOM     13  N   UNL     1       1.299  11.641  18.720  0.00  0.00    +0.000 N 
ATOM     14  C   UNL     1       1.955  11.261  17.584  0.00  0.00    +0.000 A 
ATOM     15  C   UNL     1       2.295   9.938  17.724  0.00  0.00    +0.000 A 
ATOM     16  C   UNL     1       1.818   9.476  18.993  0.00  0.00    +0.000 A 
ATOM     17  H   UNL     1       0.928  12.565  18.897  0.00  0.00    +0.000 HD
ENDBRANCH   5   7
BRANCH   3  18
ATOM     18  N   UNL     1       2.326   3.521  19.638  0.00  0.00    +0.000 N 
ATOM     19  C   UNL     1       1.041   3.219  20.274  0.00  0.00    +0.000 C 
ATOM     20  C   UNL     1       1.257   2.802  21.742  0.00  0.00    +0.000 C 
ATOM     21  O   UNL     1       2.241   1.763  21.878  0.00  0.00    +0.000 OA
ATOM     22  C   UNL     1       3.503   2.202  21.347  0.00  0.00    +0.000 C 
ATOM     23  C   UNL     1       3.383   2.524  19.855  0.00  0.00    +0.000 C 
ENDBRANCH   3  18
BRANCH   1  24
ATOM     24  C   UNL     1       5.084   6.271  16.665  0.00  0.00    +0.000 C 
ATOM     25  C   UNL     1       4.863   6.910  15.310  0.00  0.00    +0.000 C 
ATOM     26  C   UNL     1       5.181   5.445  15.400  0.00  0.00    +0.000 C 
BRANCH  24  28
ATOM     27  C   UNL     1       6.754   5.725  18.896  0.00  0.00    +0.000 C 
ATOM     28  S   UNL     1       6.700   6.689  17.410  0.00  0.00    +0.000 S 
ATOM     29  O   UNL     1       6.630   8.091  17.772  0.00  0.00    +0.000 OA
ATOM     30  O   UNL     1       7.746   6.205  16.527  0.00  0.00    +0.000 OA
ENDBRANCH  24  28
ENDBRANCH   1  24
TORSDOF 4
ENDMDL
MODEL 9
REMARK VINA RESULT:      -7.6      2.013      2.731
REMARK  Name = 
REMARK  5 active torsions:
REMARK  status: ('A' for Active; 'I' for Inactive)
REMARK    1  A    between atoms: C_1  and  S_2
REMARK    2  A    between atoms: S_2  and  C_5
REMARK    3  A    between atoms: C_5  and  C_6
REMARK    4  A    between atoms: C_8  and  N_9
REMARK    5  A    between atoms: C_16  and  C_17
REMARK                            x       y       z     vdW  Elec       q    Type
REMARK                         _______ _______ _______ _____ _____    ______ ____
ROOT
ATOM      1  C   UNL     1       2.725   5.002  18.885  0.00  0.00    +0.000 A 
ATOM      2  C   UNL     1       3.881   4.959  18.119  0.00  0.00    +0.000 A 
ATOM      3  C   UNL     1       4.384   6.138  17.615  0.00  0.00    +0.000 A 
ATOM      4  N   UNL     1       3.793   7.300  17.920  0.00  0.00    +0.000 NA
ATOM      5  C   UNL     1       2.717   7.296  18.720  0.00  0.00    +0.000 A 
ATOM      6  N   UNL     1       2.156   6.180  19.214  0.00  0.00    +0.000 NA
ENDROOT
BRANCH   5   7
ATOM      7  C   UNL     1       2.042   8.573  18.987  0.00  0.00    +0.000 A 
ATOM      8  C   UNL     1       2.283   9.714  18.185  0.00  0.00    +0.000 A 
ATOM      9  C   UNL     1       1.689  10.941  18.461  0.00  0.00    +0.000 A 
ATOM     10 CL   UNL     1       2.040  12.297  17.459  0.00  0.00    +0.000 Cl
ATOM     11  C   UNL     1       0.823  11.100  19.540  0.00  0.00    +0.000 A 
ATOM     12  C   UNL     1       0.563   9.972  20.328  0.00  0.00    +0.000 A 
ATOM     13  N   UNL     1      -0.245   9.847  21.437  0.00  0.00    +0.000 N 
ATOM     14  C   UNL     1      -0.225   8.561  21.897  0.00  0.00    +0.000 A 
ATOM     15  C   UNL     1       0.611   7.842  21.078  0.00  0.00    +0.000 A 
ATOM     16  C   UNL     1       1.139   8.721  20.079  0.00  0.00    +0.000 A 
ATOM     17  H   UNL     1      -0.775  10.603  21.848  0.00  0.00    +0.000 HD
ENDBRANCH   5   7
BRANCH   3  18
ATOM     18  N   UNL     1       5.434   6.159  16.730  0.00  0.00    +0.000 N 
ATOM     19  C   UNL     1       5.286   6.063  15.275  0.00  0.00    +0.000 C 
ATOM     20  C   UNL     1       6.081   4.858  14.737  0.00  0.00    +0.000 C 
ATOM     21  O   UNL     1       7.444   4.852  15.193  0.00  0.00    +0.000 OA
ATOM     22  C   UNL     1       7.487   4.811  16.629  0.00  0.00    +0.000 C 
ATOM     23  C   UNL     1       6.810   6.046  17.229  0.00  0.00    +0.000 C 
ENDBRANCH   3  18
BRANCH   1  24
ATOM     24  C   UNL     1       2.016   3.742  19.276  0.00  0.00    +0.000 C 
ATOM     25  C   UNL     1       1.790   2.647  18.252  0.00  0.00    +0.000 C 
ATOM     26  C   UNL     1       0.624   3.444  18.760  0.00  0.00    +0.000 C 
BRANCH  24  28
ATOM     27  C   UNL     1       3.898   2.274  20.815  0.00  0.00    +0.000 C 
ATOM     28  S   UNL     1       2.341   3.107  20.959  0.00  0.00    +0.000 S 
ATOM     29  O   UNL     1       1.312   2.120  21.226  0.00  0.00    +0.000 OA
ATOM     30  O   UNL     1       2.523   4.243  21.845  0.00  0.00    +0.000 OA
ENDBRANCH  24  28
ENDBRANCH   1  24
TORSDOF 4
ENDMDL
