MODEL 1
REMARK VINA RESULT:      -8.1      0.000      0.000
REMARK  Name = 
REMARK  1 active torsions:
REMARK  status: ('A' for Active; 'I' for Inactive)
REMARK    1  A    between atoms: N_2  and  C_4
REMARK                            x       y       z     vdW  Elec       q    Type
REMARK                         _______ _______ _______ _____ _____    ______ ____
ROOT
ATOM      1  C   UNL     1       2.444   6.856  19.115  0.00  0.00    +0.000 A 
ATOM      2  C   UNL     1       3.317   7.231  18.086  0.00  0.00    +0.000 A 
ATOM      3  C   UNL     1       3.971   6.247  17.342  0.00  0.00    +0.000 A 
ATOM      4  C   UNL     1       4.859   6.592  16.313  0.00  0.00    +0.000 A 
ATOM      5  C   UNL     1       5.522   5.604  15.588  0.00  0.00    +0.000 A 
ATOM      6  C   UNL     1       5.300   4.260  15.878  0.00  0.00    +0.000 A 
ATOM      7  C   UNL     1       4.412   3.885  16.896  0.00  0.00    +0.000 A 
ATOM      8  C   UNL     1       4.180   2.537  17.186  0.00  0.00    +0.000 A 
ATOM      9  C   UNL     1       3.295   2.169  18.200  0.00  0.00    +0.000 A 
ATOM     10  C   UNL     1       2.619   3.140  18.949  0.00  0.00    +0.000 A 
ATOM     11  C   UNL     1       1.730   2.762  19.962  0.00  0.00    +0.000 A 
ATOM     12  C   UNL     1       1.049   3.723  20.699  0.00  0.00    +0.000 A 
ATOM     13  C   UNL     1       1.258   5.076  20.440  0.00  0.00    +0.000 A 
ATOM     14  C   UNL     1       2.162   5.506  19.435  0.00  0.00    +0.000 A 
ATOM     15  C   UNL     1       2.836   4.514  18.679  0.00  0.00    +0.000 A 
ATOM     16  C   UNL     1       3.739   4.883  17.641  0.00  0.00    +0.000 A 
ENDROOT
BRANCH   1  18
ATOM     17  O   UNL     1       1.400   8.900  19.231  0.00  0.00    +0.000 OA
ATOM     18  N   UNL     1       1.841   7.938  19.874  0.00  0.00    +0.000 N 
ATOM     19  O   UNL     1       1.840   7.838  21.109  0.00  0.00    +0.000 OA
ENDBRANCH   1  18
TORSDOF 1
ENDMDL
MODEL 2
REMARK VINA RESULT:      -7.8      2.539      3.797
REMARK  Name = 
REMARK  1 active torsions:
REMARK  status: ('A' for Active; 'I' for Inactive)
REMARK    1  A    between atoms: N_2  and  C_4
REMARK                            x       y       z     vdW  Elec       q    Type
REMARK                         _______ _______ _______ _____ _____    ______ ____
ROOT
ATOM      1  C   UNL     1       2.887   3.609  19.813  0.00  0.00    +0.000 A 
ATOM      2  C   UNL     1       3.744   3.060  18.850  0.00  0.00    +0.000 A 
ATOM      3  C   UNL     1       4.271   3.879  17.848  0.00  0.00    +0.000 A 
ATOM      4  C   UNL     1       5.122   3.355  16.864  0.00  0.00    +0.000 A 
ATOM      5  C   UNL     1       5.630   4.174  15.858  0.00  0.00    +0.000 A 
ATOM      6  C   UNL     1       5.299   5.527  15.828  0.00  0.00    +0.000 A 
ATOM      7  C   UNL     1       4.458   6.080  16.804  0.00  0.00    +0.000 A 
ATOM      8  C   UNL     1       4.129   7.438  16.783  0.00  0.00    +0.000 A 
ATOM      9  C   UNL     1       3.291   7.984  17.755  0.00  0.00    +0.000 A 
ATOM     10  C   UNL     1       2.761   7.184  18.776  0.00  0.00    +0.000 A 
ATOM     11  C   UNL     1       1.924   7.739  19.750  0.00  0.00    +0.000 A 
ATOM     12  C   UNL     1       1.406   6.950  20.770  0.00  0.00    +0.000 A 
ATOM     13  C   UNL     1       1.710   5.591  20.821  0.00  0.00    +0.000 A 
ATOM     14  C   UNL     1       2.539   4.981  19.846  0.00  0.00    +0.000 A 
ATOM     15  C   UNL     1       3.075   5.802  18.821  0.00  0.00    +0.000 A 
ATOM     16  C   UNL     1       3.933   5.253  17.826  0.00  0.00    +0.000 A 
ENDROOT
BRANCH   1  18
ATOM     17  O   UNL     1       1.258   2.148  20.516  0.00  0.00    +0.000 OA
ATOM     18  N   UNL     1       2.341   2.684  20.790  0.00  0.00    +0.000 N 
ATOM     19  O   UNL     1       2.975   2.524  21.842  0.00  0.00    +0.000 OA
ENDBRANCH   1  18
TORSDOF 1
ENDMDL
MODEL 3
REMARK VINA RESULT:      -7.7      3.027      5.344
REMARK  Name = 
REMARK  1 active torsions:
REMARK  status: ('A' for Active; 'I' for Inactive)
REMARK    1  A    between atoms: N_2  and  C_4
REMARK                            x       y       z     vdW  Elec       q    Type
REMARK                         _______ _______ _______ _____ _____    ______ ____
ROOT
ATOM      1  C   UNL     1       3.759   3.364  19.148  0.00  0.00    +0.000 A 
ATOM      2  C   UNL     1       2.881   3.891  20.104  0.00  0.00    +0.000 A 
ATOM      3  C   UNL     1       2.484   5.227  20.015  0.00  0.00    +0.000 A 
ATOM      4  C   UNL     1       1.615   5.785  20.964  0.00  0.00    +0.000 A 
ATOM      5  C   UNL     1       1.239   7.124  20.879  0.00  0.00    +0.000 A 
ATOM      6  C   UNL     1       1.720   7.918  19.841  0.00  0.00    +0.000 A 
ATOM      7  C   UNL     1       2.583   7.385  18.873  0.00  0.00    +0.000 A 
ATOM      8  C   UNL     1       3.064   8.176  17.826  0.00  0.00    +0.000 A 
ATOM      9  C   UNL     1       3.922   7.641  16.865  0.00  0.00    +0.000 A 
ATOM     10  C   UNL     1       4.323   6.301  16.928  0.00  0.00    +0.000 A 
ATOM     11  C   UNL     1       5.182   5.771  15.958  0.00  0.00    +0.000 A 
ATOM     12  C   UNL     1       5.571   4.438  16.012  0.00  0.00    +0.000 A 
ATOM     13  C   UNL     1       5.115   3.620  17.044  0.00  0.00    +0.000 A 
ATOM     14  C   UNL     1       4.258   4.118  18.058  0.00  0.00    +0.000 A 
ATOM     15  C   UNL     1       3.854   5.475  17.981  0.00  0.00    +0.000 A 
ATOM     16  C   UNL     1       2.975   6.027  18.956  0.00  0.00    +0.000 A 
ENDROOT
BRANCH   1  18
ATOM     17  O   UNL     1       3.632   1.134  18.605  0.00  0.00    +0.000 OA
ATOM     18  N   UNL     1       4.163   1.982  19.337  0.00  0.00    +0.000 N 
ATOM     19  O   UNL     1       4.981   1.743  20.236  0.00  0.00    +0.000 OA
ENDBRANCH   1  18
TORSDOF 1
ENDMDL
MODEL 4
REMARK VINA RESULT:      -7.7      3.169      5.360
REMARK  Name = 
REMARK  1 active torsions:
REMARK  status: ('A' for Active; 'I' for Inactive)
REMARK    1  A    between atoms: N_2  and  C_4
REMARK                            x       y       z     vdW  Elec       q    Type
REMARK                         _______ _______ _______ _____ _____    ______ ____
ROOT
ATOM      1  C   UNL     1       5.150   4.367  17.693  0.00  0.00    +0.000 A 
ATOM      2  C   UNL     1       4.917   3.289  18.557  0.00  0.00    +0.000 A 
ATOM      3  C   UNL     1       3.954   3.406  19.562  0.00  0.00    +0.000 A 
ATOM      4  C   UNL     1       3.707   2.348  20.449  0.00  0.00    +0.000 A 
ATOM      5  C   UNL     1       2.757   2.478  21.460  0.00  0.00    +0.000 A 
ATOM      6  C   UNL     1       2.040   3.665  21.592  0.00  0.00    +0.000 A 
ATOM      7  C   UNL     1       2.259   4.736  20.715  0.00  0.00    +0.000 A 
ATOM      8  C   UNL     1       1.537   5.926  20.839  0.00  0.00    +0.000 A 
ATOM      9  C   UNL     1       1.759   6.989  19.964  0.00  0.00    +0.000 A 
ATOM     10  C   UNL     1       2.711   6.889  18.941  0.00  0.00    +0.000 A 
ATOM     11  C   UNL     1       2.926   7.959  18.065  0.00  0.00    +0.000 A 
ATOM     12  C   UNL     1       3.861   7.858  17.043  0.00  0.00    +0.000 A 
ATOM     13  C   UNL     1       4.603   6.688  16.891  0.00  0.00    +0.000 A 
ATOM     14  C   UNL     1       4.432   5.585  17.765  0.00  0.00    +0.000 A 
ATOM     15  C   UNL     1       3.461   5.695  18.793  0.00  0.00    +0.000 A 
ATOM     16  C   UNL     1       3.227   4.613  19.688  0.00  0.00    +0.000 A 
ENDROOT
BRANCH   1  18
ATOM     17  O   UNL     1       5.870   3.710  15.611  0.00  0.00    +0.000 OA
ATOM     18  N   UNL     1       6.201   4.186  16.706  0.00  0.00    +0.000 N 
ATOM     19  O   UNL     1       7.356   4.487  17.039  0.00  0.00    +0.000 OA
ENDBRANCH   1  18
TORSDOF 1
ENDMDL
MODEL 5
REMARK VINA RESULT:      -7.7      3.064      4.118
REMARK  Name = 
REMARK  1 active torsions:
REMARK  status: ('A' for Active; 'I' for Inactive)
REMARK    1  A    between atoms: N_2  and  C_4
REMARK                            x       y       z     vdW  Elec       q    Type
REMARK                         _______ _______ _______ _____ _____    ______ ____
ROOT
ATOM      1  C   UNL     1       4.182   3.143  18.821  0.00  0.00    +0.000 A 
ATOM      2  C   UNL     1       4.951   3.415  17.682  0.00  0.00    +0.000 A 
ATOM      3  C   UNL     1       4.887   4.679  17.092  0.00  0.00    +0.000 A 
ATOM      4  C   UNL     1       5.637   4.977  15.944  0.00  0.00    +0.000 A 
ATOM      5  C   UNL     1       5.554   6.235  15.350  0.00  0.00    +0.000 A 
ATOM      6  C   UNL     1       4.726   7.211  15.900  0.00  0.00    +0.000 A 
ATOM      7  C   UNL     1       3.971   6.945  17.051  0.00  0.00    +0.000 A 
ATOM      8  C   UNL     1       3.144   7.923  17.611  0.00  0.00    +0.000 A 
ATOM      9  C   UNL     1       2.396   7.653  18.756  0.00  0.00    +0.000 A 
ATOM     10  C   UNL     1       2.455   6.397  19.372  0.00  0.00    +0.000 A 
ATOM     11  C   UNL     1       1.703   6.135  20.523  0.00  0.00    +0.000 A 
ATOM     12  C   UNL     1       1.769   4.893  21.142  0.00  0.00    +0.000 A 
ATOM     13  C   UNL     1       2.579   3.891  20.610  0.00  0.00    +0.000 A 
ATOM     14  C   UNL     1       3.345   4.105  19.436  0.00  0.00    +0.000 A 
ATOM     15  C   UNL     1       3.282   5.384  18.825  0.00  0.00    +0.000 A 
ATOM     16  C   UNL     1       4.046   5.667  17.657  0.00  0.00    +0.000 A 
ENDROOT
BRANCH   1  18
ATOM     17  O   UNL     1       5.026   1.607  20.308  0.00  0.00    +0.000 OA
ATOM     18  N   UNL     1       4.266   1.792  19.347  0.00  0.00    +0.000 N 
ATOM     19  O   UNL     1       3.600   0.915  18.779  0.00  0.00    +0.000 OA
ENDBRANCH   1  18
TORSDOF 1
ENDMDL
MODEL 6
REMARK VINA RESULT:      -7.6      2.515      4.327
REMARK  Name = 
REMARK  1 active torsions:
REMARK  status: ('A' for Active; 'I' for Inactive)
REMARK    1  A    between atoms: N_2  and  C_4
REMARK                            x       y       z     vdW  Elec       q    Type
REMARK                         _______ _______ _______ _____ _____    ______ ____
ROOT
ATOM      1  C   UNL     1       4.518   5.842  16.946  0.00  0.00    +0.000 A 
ATOM      2  C   UNL     1       4.673   4.451  16.887  0.00  0.00    +0.000 A 
ATOM      3  C   UNL     1       3.925   3.636  17.740  0.00  0.00    +0.000 A 
ATOM      4  C   UNL     1       4.067   2.241  17.712  0.00  0.00    +0.000 A 
ATOM      5  C   UNL     1       3.331   1.436  18.579  0.00  0.00    +0.000 A 
ATOM      6  C   UNL     1       2.440   2.016  19.479  0.00  0.00    +0.000 A 
ATOM      7  C   UNL     1       2.271   3.407  19.524  0.00  0.00    +0.000 A 
ATOM      8  C   UNL     1       1.373   3.993  20.421  0.00  0.00    +0.000 A 
ATOM      9  C   UNL     1       1.208   5.377  20.462  0.00  0.00    +0.000 A 
ATOM     10  C   UNL     1       1.939   6.212  19.607  0.00  0.00    +0.000 A 
ATOM     11  C   UNL     1       1.766   7.600  19.652  0.00  0.00    +0.000 A 
ATOM     12  C   UNL     1       2.480   8.429  18.796  0.00  0.00    +0.000 A 
ATOM     13  C   UNL     1       3.387   7.881  17.892  0.00  0.00    +0.000 A 
ATOM     14  C   UNL     1       3.609   6.482  17.822  0.00  0.00    +0.000 A 
ATOM     15  C   UNL     1       2.859   5.646  18.689  0.00  0.00    +0.000 A 
ATOM     16  C   UNL     1       3.020   4.232  18.650  0.00  0.00    +0.000 A 
ENDROOT
BRANCH   1  18
ATOM     17  O   UNL     1       4.931   6.858  14.926  0.00  0.00    +0.000 OA
ATOM     18  N   UNL     1       5.366   6.622  16.062  0.00  0.00    +0.000 N 
ATOM     19  O   UNL     1       6.476   6.967  16.491  0.00  0.00    +0.000 OA
ENDBRANCH   1  18
TORSDOF 1
ENDMDL
MODEL 7
REMARK VINA RESULT:      -7.6      2.874      4.776
REMARK  Name = 
REMARK  1 active torsions:
REMARK  status: ('A' for Active; 'I' for Inactive)
REMARK    1  A    between atoms: N_2  and  C_4
REMARK                            x       y       z     vdW  Elec       q    Type
REMARK                         _______ _______ _______ _____ _____    ______ ____
ROOT
ATOM      1  C   UNL     1       4.981   5.656  17.270  0.00  0.00    +0.000 A 
ATOM      2  C   UNL     1       5.214   4.361  17.749  0.00  0.00    +0.000 A 
ATOM      3  C   UNL     1       4.454   3.870  18.813  0.00  0.00    +0.000 A 
ATOM      4  C   UNL     1       4.672   2.581  19.321  0.00  0.00    +0.000 A 
ATOM      5  C   UNL     1       3.922   2.106  20.394  0.00  0.00    +0.000 A 
ATOM      6  C   UNL     1       2.939   2.910  20.967  0.00  0.00    +0.000 A 
ATOM      7  C   UNL     1       2.692   4.199  20.475  0.00  0.00    +0.000 A 
ATOM      8  C   UNL     1       1.703   5.008  21.042  0.00  0.00    +0.000 A 
ATOM      9  C   UNL     1       1.461   6.290  20.549  0.00  0.00    +0.000 A 
ATOM     10  C   UNL     1       2.204   6.797  19.474  0.00  0.00    +0.000 A 
ATOM     11  C   UNL     1       1.953   8.083  18.983  0.00  0.00    +0.000 A 
ATOM     12  C   UNL     1       2.680   8.584  17.910  0.00  0.00    +0.000 A 
ATOM     13  C   UNL     1       3.677   7.808  17.322  0.00  0.00    +0.000 A 
ATOM     14  C   UNL     1       3.979   6.506  17.798  0.00  0.00    +0.000 A 
ATOM     15  C   UNL     1       3.216   6.001  18.881  0.00  0.00    +0.000 A 
ATOM     16  C   UNL     1       3.455   4.692  19.388  0.00  0.00    +0.000 A 
ENDROOT
BRANCH   1  18
ATOM     17  O   UNL     1       5.426   5.975  15.038  0.00  0.00    +0.000 OA
ATOM     18  N   UNL     1       5.846   6.112  16.196  0.00  0.00    +0.000 N 
ATOM     19  O   UNL     1       6.953   6.571  16.509  0.00  0.00    +0.000 OA
ENDBRANCH   1  18
TORSDOF 1
ENDMDL
MODEL 8
REMARK VINA RESULT:      -7.5      3.170      4.473
REMARK  Name = 
REMARK  1 active torsions:
REMARK  status: ('A' for Active; 'I' for Inactive)
REMARK    1  A    between atoms: N_2  and  C_4
REMARK                            x       y       z     vdW  Elec       q    Type
REMARK                         _______ _______ _______ _____ _____    ______ ____
ROOT
ATOM      1  C   UNL     1       5.082   4.890  17.315  0.00  0.00    +0.000 A 
ATOM      2  C   UNL     1       4.734   6.205  16.982  0.00  0.00    +0.000 A 
ATOM      3  C   UNL     1       3.751   6.868  17.721  0.00  0.00    +0.000 A 
ATOM      4  C   UNL     1       3.374   8.181  17.403  0.00  0.00    +0.000 A 
ATOM      5  C   UNL     1       2.380   8.829  18.134  0.00  0.00    +0.000 A 
ATOM      6  C   UNL     1       1.757   8.175  19.194  0.00  0.00    +0.000 A 
ATOM      7  C   UNL     1       2.120   6.866  19.540  0.00  0.00    +0.000 A 
ATOM      8  C   UNL     1       1.502   6.208  20.608  0.00  0.00    +0.000 A 
ATOM      9  C   UNL     1       1.866   4.905  20.948  0.00  0.00    +0.000 A 
ATOM     10  C   UNL     1       2.858   4.227  20.228  0.00  0.00    +0.000 A 
ATOM     11  C   UNL     1       3.220   2.920  20.578  0.00  0.00    +0.000 A 
ATOM     12  C   UNL     1       4.211   2.249  19.873  0.00  0.00    +0.000 A 
ATOM     13  C   UNL     1       4.846   2.872  18.800  0.00  0.00    +0.000 A 
ATOM     14  C   UNL     1       4.500   4.188  18.399  0.00  0.00    +0.000 A 
ATOM     15  C   UNL     1       3.500   4.868  19.139  0.00  0.00    +0.000 A 
ATOM     16  C   UNL     1       3.125   6.199  18.799  0.00  0.00    +0.000 A 
ENDROOT
BRANCH   1  18
ATOM     17  O   UNL     1       7.263   4.389  16.795  0.00  0.00    +0.000 OA
ATOM     18  N   UNL     1       6.076   4.253  16.470  0.00  0.00    +0.000 N 
ATOM     19  O   UNL     1       5.671   3.649  15.467  0.00  0.00    +0.000 OA
ENDBRANCH   1  18
TORSDOF 1
ENDMDL
MODEL 9
REMARK VINA RESULT:      -7.5      2.758      4.786
REMARK  Name = 
REMARK  1 active torsions:
REMARK  status: ('A' for Active; 'I' for Inactive)
REMARK    1  A    between atoms: N_2  and  C_4
REMARK                            x       y       z     vdW  Elec       q    Type
REMARK                         _______ _______ _______ _____ _____    ______ ____
ROOT
ATOM      1  C   UNL     1       4.627   5.113  16.764  0.00  0.00    +0.000 A 
ATOM      2  C   UNL     1       4.562   3.728  16.966  0.00  0.00    +0.000 A 
ATOM      3  C   UNL     1       3.711   3.212  17.946  0.00  0.00    +0.000 A 
ATOM      4  C   UNL     1       3.634   1.831  18.178  0.00  0.00    +0.000 A 
ATOM      5  C   UNL     1       2.797   1.325  19.170  0.00  0.00    +0.000 A 
ATOM      6  C   UNL     1       2.022   2.193  19.937  0.00  0.00    +0.000 A 
ATOM      7  C   UNL     1       2.073   3.578  19.722  0.00  0.00    +0.000 A 
ATOM      8  C   UNL     1       1.292   4.452  20.484  0.00  0.00    +0.000 A 
ATOM      9  C   UNL     1       1.346   5.828  20.266  0.00  0.00    +0.000 A 
ATOM     10  C   UNL     1       2.183   6.366  19.279  0.00  0.00    +0.000 A 
ATOM     11  C   UNL     1       2.228   7.749  19.065  0.00  0.00    +0.000 A 
ATOM     12  C   UNL     1       3.048   8.284  18.079  0.00  0.00    +0.000 A 
ATOM     13  C   UNL     1       3.844   7.443  17.303  0.00  0.00    +0.000 A 
ATOM     14  C   UNL     1       3.843   6.038  17.496  0.00  0.00    +0.000 A 
ATOM     15  C   UNL     1       2.987   5.504  18.493  0.00  0.00    +0.000 A 
ATOM     16  C   UNL     1       2.926   4.099  18.719  0.00  0.00    +0.000 A 
ENDROOT
BRANCH   1  18
ATOM     17  O   UNL     1       6.585   6.158  16.168  0.00  0.00    +0.000 OA
ATOM     18  N   UNL     1       5.570   5.575  15.761  0.00  0.00    +0.000 N 
ATOM     19  O   UNL     1       5.279   5.385  14.572  0.00  0.00    +0.000 OA
ENDBRANCH   1  18
TORSDOF 1
ENDMDL
