MODEL 1
REMARK VINA RESULT:      -7.8      0.000      0.000
REMARK  Name = 
REMARK  5 active torsions:
REMARK  status: ('A' for Active; 'I' for Inactive)
REMARK    1  A    between atoms: C_2  and  C_15
REMARK    2  A    between atoms: N_3  and  C_4
REMARK    3  A    between atoms: C_4  and  C_5
REMARK    4  A    between atoms: C_5  and  N_6
REMARK    5  A    between atoms: C_7  and  C_9
REMARK                            x       y       z     vdW  Elec       q    Type
REMARK                         _______ _______ _______ _____ _____    ______ ____
ROOT
ATOM      1  C   UNL     1       5.011   4.303  19.158  0.00  0.00    +0.000 C 
ENDROOT
BRANCH   1   4
ATOM      2  O   UNL     1       3.590   5.784  17.215  0.00  0.00    +0.000 OA
ATOM      3  C   UNL     1       3.488   6.099  18.395  0.00  0.00    +0.000 C 
ATOM      4  N   UNL     1       4.133   5.436  19.416  0.00  0.00    +0.000 N 
ATOM      5  H   UNL     1       3.943   5.674  20.381  0.00  0.00    +0.000 HD
BRANCH   3   6
ATOM      6  C   UNL     1       2.611   7.238  18.787  0.00  0.00    +0.000 A 
ATOM      7  C   UNL     1       2.344   8.232  17.832  0.00  0.00    +0.000 A 
ATOM      8  C   UNL     1       1.558   9.337  18.168  0.00  0.00    +0.000 A 
ATOM      9  C   UNL     1       1.049   9.457  19.459  0.00  0.00    +0.000 A 
ATOM     10 CL   UNL     1       0.101  10.830  19.881  0.00  0.00    +0.000 Cl
ATOM     11  C   UNL     1       1.313   8.478  20.417  0.00  0.00    +0.000 A 
ATOM     12  C   UNL     1       2.096   7.366  20.083  0.00  0.00    +0.000 A 
ENDBRANCH   3   6
ENDBRANCH   1   4
BRANCH   1  13
ATOM     13  C   UNL     1       6.353   4.726  18.554  0.00  0.00    +0.000 C 
BRANCH  13  14
ATOM     14  N   UNL     1       6.432   4.466  17.129  0.00  0.00    +0.000 N 
ATOM     15  C   UNL     1       6.976   5.362  16.234  0.00  0.00    +0.000 C 
ATOM     16  O   UNL     1       7.446   6.447  16.562  0.00  0.00    +0.000 OA
ATOM     17  H   UNL     1       6.117   3.576  16.750  0.00  0.00    +0.000 HD
BRANCH  15  18
ATOM     18  C   UNL     1       6.954   4.917  14.799  0.00  0.00    +0.000 A 
ATOM     19  C   UNL     1       6.053   3.937  14.397  0.00  0.00    +0.000 A 
ATOM     20  C   UNL     1       6.062   3.538  13.064  0.00  0.00    +0.000 A 
ATOM     21  C   UNL     1       6.965   4.127  12.184  0.00  0.00    +0.000 A 
ATOM     22  C   UNL     1       7.827   5.098  12.673  0.00  0.00    +0.000 A 
ATOM     23  N   UNL     1       7.849   5.513  13.961  0.00  0.00    +0.000 NA
ENDBRANCH  15  18
ENDBRANCH  13  14
ENDBRANCH   1  13
TORSDOF 5
ENDMDL
MODEL 2
REMARK VINA RESULT:      -7.5      0.985      1.423
REMARK  Name = 
REMARK  5 active torsions:
REMARK  status: ('A' for Active; 'I' for Inactive)
REMARK    1  A    between atoms: C_2  and  C_15
REMARK    2  A    between atoms: N_3  and  C_4
REMARK    3  A    between atoms: C_4  and  C_5
REMARK    4  A    between atoms: C_5  and  N_6
REMARK    5  A    between atoms: C_7  and  C_9
REMARK                            x       y       z     vdW  Elec       q    Type
REMARK                         _______ _______ _______ _____ _____    ______ ____
ROOT
ATOM      1  C   UNL     1       4.398   4.288  18.621  0.00  0.00    +0.000 C 
ENDROOT
BRANCH   1   4
ATOM      2  O   UNL     1       2.634   5.368  20.547  0.00  0.00    +0.000 OA
ATOM      3  C   UNL     1       2.877   6.015  19.534  0.00  0.00    +0.000 C 
ATOM      4  N   UNL     1       3.728   5.578  18.541  0.00  0.00    +0.000 N 
ATOM      5  H   UNL     1       3.970   6.187  17.771  0.00  0.00    +0.000 HD
BRANCH   3   6
ATOM      6  C   UNL     1       2.257   7.355  19.340  0.00  0.00    +0.000 A 
ATOM      7  C   UNL     1       1.611   7.954  20.433  0.00  0.00    +0.000 A 
ATOM      8  C   UNL     1       0.984   9.194  20.286  0.00  0.00    +0.000 A 
ATOM      9  C   UNL     1       0.990   9.830  19.047  0.00  0.00    +0.000 A 
ATOM     10 CL   UNL     1       0.196  11.346  18.858  0.00  0.00    +0.000 Cl
ATOM     11  C   UNL     1       1.625   9.241  17.953  0.00  0.00    +0.000 A 
ATOM     12  C   UNL     1       2.259   8.001  18.097  0.00  0.00    +0.000 A 
ENDBRANCH   3   6
ENDBRANCH   1   4
BRANCH   1  13
ATOM     13  C   UNL     1       5.884   4.374  18.258  0.00  0.00    +0.000 C 
BRANCH  13  14
ATOM     14  N   UNL     1       6.124   4.204  16.838  0.00  0.00    +0.000 N 
ATOM     15  C   UNL     1       6.636   5.205  16.041  0.00  0.00    +0.000 C 
ATOM     16  O   UNL     1       6.940   6.317  16.461  0.00  0.00    +0.000 OA
ATOM     17  H   UNL     1       5.954   3.306  16.391  0.00  0.00    +0.000 HD
BRANCH  15  18
ATOM     18  C   UNL     1       6.800   4.841  14.592  0.00  0.00    +0.000 A 
ATOM     19  C   UNL     1       5.985   3.862  14.034  0.00  0.00    +0.000 A 
ATOM     20  C   UNL     1       6.167   3.538  12.693  0.00  0.00    +0.000 A 
ATOM     21  C   UNL     1       7.148   4.199  11.960  0.00  0.00    +0.000 A 
ATOM     22  C   UNL     1       7.914   5.163  12.600  0.00  0.00    +0.000 A 
ATOM     23  N   UNL     1       7.768   5.506  13.901  0.00  0.00    +0.000 NA
ENDBRANCH  15  18
ENDBRANCH  13  14
ENDBRANCH   1  13
TORSDOF 5
ENDMDL
MODEL 3
REMARK VINA RESULT:      -7.4      0.476      1.153
REMARK  Name = 
REMARK  5 active torsions:
REMARK  status: ('A' for Active; 'I' for Inactive)
REMARK    1  A    between atoms: C_2  and  C_15
REMARK    2  A    between atoms: N_3  and  C_4
REMARK    3  A    between atoms: C_4  and  C_5
REMARK    4  A    between atoms: C_5  and  N_6
REMARK    5  A    between atoms: C_7  and  C_9
REMARK                            x       y       z     vdW  Elec       q    Type
REMARK                         _______ _______ _______ _____ _____    ______ ____
ROOT
ATOM      1  C   UNL     1       4.300   3.906  18.682  0.00  0.00    +0.000 C 
ENDROOT
BRANCH   1   4
ATOM      2  O   UNL     1       3.730   6.175  17.096  0.00  0.00    +0.000 OA
ATOM      3  C   UNL     1       3.319   6.138  18.251  0.00  0.00    +0.000 C 
ATOM      4  N   UNL     1       3.539   5.075  19.100  0.00  0.00    +0.000 N 
ATOM      5  H   UNL     1       3.100   5.049  20.011  0.00  0.00    +0.000 HD
BRANCH   3   6
ATOM      6  C   UNL     1       2.520   7.272  18.792  0.00  0.00    +0.000 A 
ATOM      7  C   UNL     1       2.148   7.239  20.144  0.00  0.00    +0.000 A 
ATOM      8  C   UNL     1       1.366   8.264  20.685  0.00  0.00    +0.000 A 
ATOM      9  C   UNL     1       0.946   9.315  19.872  0.00  0.00    +0.000 A 
ATOM     10 CL   UNL     1      -0.038  10.565  20.529  0.00  0.00    +0.000 Cl
ATOM     11  C   UNL     1       1.306   9.354  18.525  0.00  0.00    +0.000 A 
ATOM     12  C   UNL     1       2.093   8.332  17.981  0.00  0.00    +0.000 A 
ENDBRANCH   3   6
ENDBRANCH   1   4
BRANCH   1  13
ATOM     13  C   UNL     1       5.744   4.250  18.303  0.00  0.00    +0.000 C 
BRANCH  13  14
ATOM     14  N   UNL     1       5.983   4.164  16.875  0.00  0.00    +0.000 N 
ATOM     15  C   UNL     1       6.830   5.021  16.205  0.00  0.00    +0.000 C 
ATOM     16  O   UNL     1       7.458   5.920  16.755  0.00  0.00    +0.000 OA
ATOM     17  H   UNL     1       5.553   3.424  16.325  0.00  0.00    +0.000 HD
BRANCH  15  18
ATOM     18  C   UNL     1       6.936   4.779  14.726  0.00  0.00    +0.000 A 
ATOM     19  C   UNL     1       6.107   3.841  14.123  0.00  0.00    +0.000 A 
ATOM     20  C   UNL     1       6.234   3.632  12.752  0.00  0.00    +0.000 A 
ATOM     21  C   UNL     1       7.179   4.362  12.038  0.00  0.00    +0.000 A 
ATOM     22  C   UNL     1       7.962   5.279  12.723  0.00  0.00    +0.000 A 
ATOM     23  N   UNL     1       7.869   5.511  14.054  0.00  0.00    +0.000 NA
ENDBRANCH  15  18
ENDBRANCH  13  14
ENDBRANCH   1  13
TORSDOF 5
ENDMDL
MODEL 4
REMARK VINA RESULT:      -7.2      2.855      3.616
REMARK  Name = 
REMARK  5 active torsions:
REMARK  status: ('A' for Active; 'I' for Inactive)
REMARK    1  A    between atoms: C_2  and  C_15
REMARK    2  A    between atoms: N_3  and  C_4
REMARK    3  A    between atoms: C_4  and  C_5
REMARK    4  A    between atoms: C_5  and  N_6
REMARK    5  A    between atoms: C_7  and  C_9
REMARK                            x       y       z     vdW  Elec       q    Type
REMARK                         _______ _______ _______ _____ _____    ______ ____
ROOT
ATOM      1  C   UNL     1       2.305   2.529  19.361  0.00  0.00    +0.000 C 
ENDROOT
BRANCH   1   4
ATOM      2  O   UNL     1       2.544   4.615  21.252  0.00  0.00    +0.000 OA
ATOM      3  C   UNL     1       2.248   4.892  20.095  0.00  0.00    +0.000 C 
ATOM      4  N   UNL     1       2.115   3.948  19.100  0.00  0.00    +0.000 N 
ATOM      5  H   UNL     1       1.963   4.234  18.141  0.00  0.00    +0.000 HD
BRANCH   3   6
ATOM      6  C   UNL     1       2.036   6.313  19.702  0.00  0.00    +0.000 A 
ATOM      7  C   UNL     1       2.385   6.703  18.400  0.00  0.00    +0.000 A 
ATOM      8  C   UNL     1       2.238   8.034  18.000  0.00  0.00    +0.000 A 
ATOM      9  C   UNL     1       1.754   8.978  18.904  0.00  0.00    +0.000 A 
ATOM     10 CL   UNL     1       1.596  10.623  18.422  0.00  0.00    +0.000 Cl
ATOM     11  C   UNL     1       1.410   8.602  20.203  0.00  0.00    +0.000 A 
ATOM     12  C   UNL     1       1.551   7.268  20.605  0.00  0.00    +0.000 A 
ENDBRANCH   3   6
ENDBRANCH   1   4
BRANCH   1  13
ATOM     13  C   UNL     1       3.731   2.061  19.056  0.00  0.00    +0.000 C 
BRANCH  13  14
ATOM     14  N   UNL     1       4.683   3.155  19.021  0.00  0.00    +0.000 N 
ATOM     15  C   UNL     1       4.960   3.869  17.875  0.00  0.00    +0.000 C 
ATOM     16  O   UNL     1       4.423   3.650  16.793  0.00  0.00    +0.000 OA
ATOM     17  H   UNL     1       5.151   3.457  19.872  0.00  0.00    +0.000 HD
BRANCH  15  18
ATOM     18  C   UNL     1       5.985   4.956  18.037  0.00  0.00    +0.000 A 
ATOM     19  C   UNL     1       5.957   6.058  17.191  0.00  0.00    +0.000 A 
ATOM     20  C   UNL     1       6.925   7.044  17.359  0.00  0.00    +0.000 A 
ATOM     21  C   UNL     1       7.880   6.896  18.360  0.00  0.00    +0.000 A 
ATOM     22  C   UNL     1       7.830   5.763  19.159  0.00  0.00    +0.000 A 
ATOM     23  N   UNL     1       6.906   4.782  19.027  0.00  0.00    +0.000 NA
ENDBRANCH  15  18
ENDBRANCH  13  14
ENDBRANCH   1  13
TORSDOF 5
ENDMDL
MODEL 5
REMARK VINA RESULT:      -7.0      0.990      1.471
REMARK  Name = 
REMARK  5 active torsions:
REMARK  status: ('A' for Active; 'I' for Inactive)
REMARK    1  A    between atoms: C_2  and  C_15
REMARK    2  A    between atoms: N_3  and  C_4
REMARK    3  A    between atoms: C_4  and  C_5
REMARK    4  A    between atoms: C_5  and  N_6
REMARK    5  A    between atoms: C_7  and  C_9
REMARK                            x       y       z     vdW  Elec       q    Type
REMARK                         _______ _______ _______ _____ _____    ______ ____
ROOT
ATOM      1  C   UNL     1       3.939   4.184  19.728  0.00  0.00    +0.000 C 
ENDROOT
BRANCH   1   4
ATOM      2  O   UNL     1       2.694   5.605  17.626  0.00  0.00    +0.000 OA
ATOM      3  C   UNL     1       2.772   6.128  18.733  0.00  0.00    +0.000 C 
ATOM      4  N   UNL     1       3.353   5.514  19.821  0.00  0.00    +0.000 N 
ATOM      5  H   UNL     1       3.310   5.946  20.735  0.00  0.00    +0.000 HD
BRANCH   3   6
ATOM      6  C   UNL     1       2.201   7.485  18.955  0.00  0.00    +0.000 A 
ATOM      7  C   UNL     1       1.718   7.803  20.234  0.00  0.00    +0.000 A 
ATOM      8  C   UNL     1       1.141   9.052  20.478  0.00  0.00    +0.000 A 
ATOM      9  C   UNL     1       1.034   9.979  19.443  0.00  0.00    +0.000 A 
ATOM     10 CL   UNL     1       0.301  11.508  19.735  0.00  0.00    +0.000 Cl
ATOM     11  C   UNL     1       1.507   9.671  18.167  0.00  0.00    +0.000 A 
ATOM     12  C   UNL     1       2.091   8.422  17.920  0.00  0.00    +0.000 A 
ENDBRANCH   3   6
ENDBRANCH   1   4
BRANCH   1  13
ATOM     13  C   UNL     1       5.408   4.219  19.296  0.00  0.00    +0.000 C 
BRANCH  13  14
ATOM     14  N   UNL     1       5.566   4.251  17.854  0.00  0.00    +0.000 N 
ATOM     15  C   UNL     1       6.790   4.412  17.239  0.00  0.00    +0.000 C 
ATOM     16  O   UNL     1       7.845   4.533  17.852  0.00  0.00    +0.000 OA
ATOM     17  H   UNL     1       4.764   4.110  17.245  0.00  0.00    +0.000 HD
BRANCH  15  18
ATOM     18  C   UNL     1       6.746   4.433  15.737  0.00  0.00    +0.000 A 
ATOM     19  C   UNL     1       5.815   3.648  15.067  0.00  0.00    +0.000 A 
ATOM     20  C   UNL     1       5.805   3.681  13.675  0.00  0.00    +0.000 A 
ATOM     21  C   UNL     1       6.718   4.490  13.007  0.00  0.00    +0.000 A 
ATOM     22  C   UNL     1       7.611   5.240  13.759  0.00  0.00    +0.000 A 
ATOM     23  N   UNL     1       7.652   5.237  15.112  0.00  0.00    +0.000 NA
ENDBRANCH  15  18
ENDBRANCH  13  14
ENDBRANCH   1  13
TORSDOF 5
ENDMDL
MODEL 6
REMARK VINA RESULT:      -7.0      3.689      7.079
REMARK  Name = 
REMARK  5 active torsions:
REMARK  status: ('A' for Active; 'I' for Inactive)
REMARK    1  A    between atoms: C_2  and  C_15
REMARK    2  A    between atoms: N_3  and  C_4
REMARK    3  A    between atoms: C_4  and  C_5
REMARK    4  A    between atoms: C_5  and  N_6
REMARK    5  A    between atoms: C_7  and  C_9
REMARK                            x       y       z     vdW  Elec       q    Type
REMARK                         _______ _______ _______ _____ _____    ______ ____
ROOT
ATOM      1  C   UNL     1       7.802   4.841  18.339  0.00  0.00    +0.000 C 
ENDROOT
BRANCH   1   4
ATOM      2  O   UNL     1       7.746   6.248  15.888  0.00  0.00    +0.000 OA
ATOM      3  C   UNL     1       7.218   5.143  15.953  0.00  0.00    +0.000 C 
ATOM      4  N   UNL     1       7.198   4.377  17.098  0.00  0.00    +0.000 N 
ATOM      5  H   UNL     1       6.833   3.434  17.076  0.00  0.00    +0.000 HD
BRANCH   3   6
ATOM      6  C   UNL     1       6.572   4.557  14.745  0.00  0.00    +0.000 A 
ATOM      7  C   UNL     1       7.298   4.539  13.544  0.00  0.00    +0.000 A 
ATOM      8  C   UNL     1       6.718   4.033  12.378  0.00  0.00    +0.000 A 
ATOM      9  C   UNL     1       5.410   3.556  12.408  0.00  0.00    +0.000 A 
ATOM     10 CL   UNL     1       4.684   2.955  10.967  0.00  0.00    +0.000 Cl
ATOM     11  C   UNL     1       4.677   3.574  13.595  0.00  0.00    +0.000 A 
ATOM     12  C   UNL     1       5.257   4.076  14.767  0.00  0.00    +0.000 A 
ENDBRANCH   3   6
ENDBRANCH   1   4
BRANCH   1  13
ATOM     13  C   UNL     1       6.869   5.755  19.141  0.00  0.00    +0.000 C 
BRANCH  13  14
ATOM     14  N   UNL     1       5.571   5.155  19.383  0.00  0.00    +0.000 N 
ATOM     15  C   UNL     1       4.456   5.458  18.631  0.00  0.00    +0.000 C 
ATOM     16  O   UNL     1       4.465   6.249  17.693  0.00  0.00    +0.000 OA
ATOM     17  H   UNL     1       5.457   4.447  20.104  0.00  0.00    +0.000 HD
BRANCH  15  18
ATOM     18  C   UNL     1       3.200   4.743  19.044  0.00  0.00    +0.000 A 
ATOM     19  C   UNL     1       2.411   4.128  18.079  0.00  0.00    +0.000 A 
ATOM     20  C   UNL     1       1.249   3.482  18.492  0.00  0.00    +0.000 A 
ATOM     21  C   UNL     1       0.917   3.473  19.842  0.00  0.00    +0.000 A 
ATOM     22  C   UNL     1       1.765   4.113  20.735  0.00  0.00    +0.000 A 
ATOM     23  N   UNL     1       2.903   4.752  20.375  0.00  0.00    +0.000 NA
ENDBRANCH  15  18
ENDBRANCH  13  14
ENDBRANCH   1  13
TORSDOF 5
ENDMDL
MODEL 7
REMARK VINA RESULT:      -7.0      2.681      3.598
REMARK  Name = 
REMARK  5 active torsions:
REMARK  status: ('A' for Active; 'I' for Inactive)
REMARK    1  A    between atoms: C_2  and  C_15
REMARK    2  A    between atoms: N_3  and  C_4
REMARK    3  A    between atoms: C_4  and  C_5
REMARK    4  A    between atoms: C_5  and  N_6
REMARK    5  A    between atoms: C_7  and  C_9
REMARK                            x       y       z     vdW  Elec       q    Type
REMARK                         _______ _______ _______ _____ _____    ______ ____
ROOT
ATOM      1  C   UNL     1       1.281   2.729  19.760  0.00  0.00    +0.000 C 
ENDROOT
BRANCH   1   4
ATOM      2  O   UNL     1       2.432   4.751  21.364  0.00  0.00    +0.000 OA
ATOM      3  C   UNL     1       1.885   5.065  20.312  0.00  0.00    +0.000 C 
ATOM      4  N   UNL     1       1.302   4.153  19.460  0.00  0.00    +0.000 N 
ATOM      5  H   UNL     1       0.947   4.449  18.559  0.00  0.00    +0.000 HD
BRANCH   3   6
ATOM      6  C   UNL     1       1.848   6.493  19.891  0.00  0.00    +0.000 A 
ATOM      7  C   UNL     1       1.287   7.433  20.770  0.00  0.00    +0.000 A 
ATOM      8  C   UNL     1       1.198   8.778  20.400  0.00  0.00    +0.000 A 
ATOM      9  C   UNL     1       1.658   9.182  19.148  0.00  0.00    +0.000 A 
ATOM     10 CL   UNL     1       1.526  10.833  18.681  0.00  0.00    +0.000 Cl
ATOM     11  C   UNL     1       2.212   8.255  18.265  0.00  0.00    +0.000 A 
ATOM     12  C   UNL     1       2.308   6.908  18.635  0.00  0.00    +0.000 A 
ENDBRANCH   3   6
ENDBRANCH   1   4
BRANCH   1  13
ATOM     13  C   UNL     1       2.436   1.972  19.097  0.00  0.00    +0.000 C 
BRANCH  13  14
ATOM     14  N   UNL     1       3.349   2.851  18.391  0.00  0.00    +0.000 N 
ATOM     15  C   UNL     1       4.577   3.217  18.898  0.00  0.00    +0.000 C 
ATOM     16  O   UNL     1       5.008   2.828  19.978  0.00  0.00    +0.000 OA
ATOM     17  H   UNL     1       3.117   3.195  17.462  0.00  0.00    +0.000 HD
BRANCH  15  18
ATOM     18  C   UNL     1       5.372   4.146  18.023  0.00  0.00    +0.000 A 
ATOM     19  C   UNL     1       4.787   4.684  16.883  0.00  0.00    +0.000 A 
ATOM     20  C   UNL     1       5.551   5.534  16.088  0.00  0.00    +0.000 A 
ATOM     21  C   UNL     1       6.863   5.813  16.455  0.00  0.00    +0.000 A 
ATOM     22  C   UNL     1       7.364   5.231  17.611  0.00  0.00    +0.000 A 
ATOM     23  N   UNL     1       6.654   4.401  18.411  0.00  0.00    +0.000 NA
ENDBRANCH  15  18
ENDBRANCH  13  14
ENDBRANCH   1  13
TORSDOF 5
ENDMDL
MODEL 8
REMARK VINA RESULT:      -7.0      3.648      7.092
REMARK  Name = 
REMARK  5 active torsions:
REMARK  status: ('A' for Active; 'I' for Inactive)
REMARK    1  A    between atoms: C_2  and  C_15
REMARK    2  A    between atoms: N_3  and  C_4
REMARK    3  A    between atoms: C_4  and  C_5
REMARK    4  A    between atoms: C_5  and  N_6
REMARK    5  A    between atoms: C_7  and  C_9
REMARK                            x       y       z     vdW  Elec       q    Type
REMARK                         _______ _______ _______ _____ _____    ______ ____
ROOT
ATOM      1  C   UNL     1       7.938   4.842  18.408  0.00  0.00    +0.000 C 
ENDROOT
BRANCH   1   4
ATOM      2  O   UNL     1       7.595   6.360  16.049  0.00  0.00    +0.000 OA
ATOM      3  C   UNL     1       7.209   5.196  16.069  0.00  0.00    +0.000 C 
ATOM      4  N   UNL     1       7.337   4.374  17.168  0.00  0.00    +0.000 N 
ATOM      5  H   UNL     1       7.089   3.395  17.105  0.00  0.00    +0.000 HD
BRANCH   3   6
ATOM      6  C   UNL     1       6.583   4.600  14.856  0.00  0.00    +0.000 A 
ATOM      7  C   UNL     1       7.322   4.588  13.663  0.00  0.00    +0.000 A 
ATOM      8  C   UNL     1       6.760   4.073  12.492  0.00  0.00    +0.000 A 
ATOM      9  C   UNL     1       5.457   3.580  12.509  0.00  0.00    +0.000 A 
ATOM     10 CL   UNL     1       4.754   2.968  11.062  0.00  0.00    +0.000 Cl
ATOM     11  C   UNL     1       4.712   3.592  13.689  0.00  0.00    +0.000 A 
ATOM     12  C   UNL     1       5.273   4.103  14.865  0.00  0.00    +0.000 A 
ENDBRANCH   3   6
ENDBRANCH   1   4
BRANCH   1  13
ATOM     13  C   UNL     1       6.957   5.643  19.271  0.00  0.00    +0.000 C 
BRANCH  13  14
ATOM     14  N   UNL     1       5.718   4.930  19.517  0.00  0.00    +0.000 N 
ATOM     15  C   UNL     1       4.520   5.291  18.938  0.00  0.00    +0.000 C 
ATOM     16  O   UNL     1       4.399   6.234  18.163  0.00  0.00    +0.000 OA
ATOM     17  H   UNL     1       5.709   4.100  20.105  0.00  0.00    +0.000 HD
BRANCH  15  18
ATOM     18  C   UNL     1       3.346   4.438  19.327  0.00  0.00    +0.000 A 
ATOM     19  C   UNL     1       2.484   4.872  20.328  0.00  0.00    +0.000 A 
ATOM     20  C   UNL     1       1.410   4.055  20.674  0.00  0.00    +0.000 A 
ATOM     21  C   UNL     1       1.236   2.844  20.013  0.00  0.00    +0.000 A 
ATOM     22  C   UNL     1       2.146   2.493  19.026  0.00  0.00    +0.000 A 
ATOM     23  N   UNL     1       3.201   3.258  18.661  0.00  0.00    +0.000 NA
ENDBRANCH  15  18
ENDBRANCH  13  14
ENDBRANCH   1  13
TORSDOF 5
ENDMDL
MODEL 9
REMARK VINA RESULT:      -6.9      5.196      6.841
REMARK  Name = 
REMARK  5 active torsions:
REMARK  status: ('A' for Active; 'I' for Inactive)
REMARK    1  A    between atoms: C_2  and  C_15
REMARK    2  A    between atoms: N_3  and  C_4
REMARK    3  A    between atoms: C_4  and  C_5
REMARK    4  A    between atoms: C_5  and  N_6
REMARK    5  A    between atoms: C_7  and  C_9
REMARK                            x       y       z     vdW  Elec       q    Type
REMARK                         _______ _______ _______ _____ _____    ______ ____
ROOT
ATOM      1  C   UNL     1       7.823   6.064  19.005  0.00  0.00    +0.000 C 
ENDROOT
BRANCH   1   4
ATOM      2  O   UNL     1       6.699   4.272  17.130  0.00  0.00    +0.000 OA
ATOM      3  C   UNL     1       6.031   4.614  18.100  0.00  0.00    +0.000 C 
ATOM      4  N   UNL     1       6.492   5.477  19.071  0.00  0.00    +0.000 N 
ATOM      5  H   UNL     1       5.940   5.655  19.901  0.00  0.00    +0.000 HD
BRANCH   3   6
ATOM      6  C   UNL     1       4.655   4.074  18.283  0.00  0.00    +0.000 A 
ATOM      7  C   UNL     1       4.435   3.147  19.314  0.00  0.00    +0.000 A 
ATOM      8  C   UNL     1       3.168   2.587  19.498  0.00  0.00    +0.000 A 
ATOM      9  C   UNL     1       2.125   2.942  18.646  0.00  0.00    +0.000 A 
ATOM     10 CL   UNL     1       0.570   2.234  18.855  0.00  0.00    +0.000 Cl
ATOM     11  C   UNL     1       2.334   3.859  17.615  0.00  0.00    +0.000 A 
ATOM     12  C   UNL     1       3.601   4.426  17.431  0.00  0.00    +0.000 A 
ENDBRANCH   3   6
ENDBRANCH   1   4
BRANCH   1  13
ATOM     13  C   UNL     1       7.865   7.326  18.139  0.00  0.00    +0.000 C 
BRANCH  13  14
ATOM     14  N   UNL     1       8.697   8.369  18.710  0.00  0.00    +0.000 N 
ATOM     15  C   UNL     1       8.600   9.692  18.335  0.00  0.00    +0.000 C 
ATOM     16  O   UNL     1       7.802  10.103  17.499  0.00  0.00    +0.000 OA
ATOM     17  H   UNL     1       9.361   8.150  19.449  0.00  0.00    +0.000 HD
BRANCH  15  18
ATOM     18  C   UNL     1       9.557  10.619  19.031  0.00  0.00    +0.000 A 
ATOM     19  C   UNL     1       9.371  10.914  20.376  0.00  0.00    +0.000 A 
ATOM     20  C   UNL     1      10.268  11.784  20.991  0.00  0.00    +0.000 A 
ATOM     21  C   UNL     1      11.311  12.324  20.246  0.00  0.00    +0.000 A 
ATOM     22  C   UNL     1      11.420  11.971  18.908  0.00  0.00    +0.000 A 
ATOM     23  N   UNL     1      10.569  11.130  18.274  0.00  0.00    +0.000 NA
ENDBRANCH  15  18
ENDBRANCH  13  14
ENDBRANCH   1  13
TORSDOF 5
ENDMDL
