MODEL 1
REMARK VINA RESULT:      -6.8      0.000      0.000
REMARK  Name = 
REMARK  11 active torsions:
REMARK  status: ('A' for Active; 'I' for Inactive)
REMARK    1  A    between atoms: C_1  and  O_2
REMARK    2  A    between atoms: O_2  and  C_3
REMARK    3  A    between atoms: C_6  and  C_7
REMARK    4  A    between atoms: C_9  and  C_11
REMARK    5  A    between atoms: C_13  and  O_14
REMARK    6  A    between atoms: O_14  and  C_15
REMARK    7  A    between atoms: C_16  and  O_17
REMARK    8  A    between atoms: O_17  and  C_18
REMARK    9  A    between atoms: C_19  and  O_20
REMARK   10  A    between atoms: O_20  and  C_21
REMARK   11  A    between atoms: C_24  and  N_25
REMARK                            x       y       z     vdW  Elec       q    Type
REMARK                         _______ _______ _______ _____ _____    ______ ____
ROOT
ATOM      1  C   UNL     1       1.444   8.448  19.392  0.00  0.00    +0.000 C 
ATOM      2  F   UNL     1       1.323   7.774  20.563  0.00  0.00    +0.000 F 
ATOM      3  C   UNL     1       2.162   7.903  18.392  0.00  0.00    +0.000 C 
ATOM      4  F   UNL     1       2.405   8.608  17.262  0.00  0.00    +0.000 F 
ENDROOT
BRANCH   1   8
ATOM      5  C   UNL     1      -0.402  12.298  19.425  0.00  0.00    +0.000 A 
ATOM      6  C   UNL     1       0.389  11.870  20.492  0.00  0.00    +0.000 A 
ATOM      7  C   UNL     1       0.997  10.616  20.452  0.00  0.00    +0.000 A 
ATOM      8  C   UNL     1       0.801   9.762  19.362  0.00  0.00    +0.000 A 
ATOM      9  C   UNL     1      -0.060  10.164  18.334  0.00  0.00    +0.000 A 
ATOM     10  C   UNL     1      -0.629  11.443  18.328  0.00  0.00    +0.000 A 
BRANCH  10  11
ATOM     11  N   UNL     1      -1.570  11.767  17.335  0.00  0.00    +0.000 N 
ATOM     12  H   UNL     1      -1.591  12.748  17.084  0.00  0.00    +0.000 HD
ATOM     13  H   UNL     1      -2.487  11.385  17.562  0.00  0.00    +0.000 HD
ENDBRANCH  10  11
BRANCH   5  15
ATOM     14  C   UNL     1      -0.123  14.605  19.052  0.00  0.00    +0.000 C 
ATOM     15  O   UNL     1      -1.004  13.532  19.374  0.00  0.00    +0.000 OA
ENDBRANCH   5  15
ENDBRANCH   1   8
BRANCH   3  16
ATOM     16  C   UNL     1       2.745   6.556  18.457  0.00  0.00    +0.000 A 
ATOM     17  C   UNL     1       1.998   5.441  18.078  0.00  0.00    +0.000 A 
ATOM     18  C   UNL     1       2.538   4.156  18.126  0.00  0.00    +0.000 A 
ATOM     19  C   UNL     1       3.863   3.971  18.571  0.00  0.00    +0.000 A 
ATOM     20  C   UNL     1       4.637   5.092  18.940  0.00  0.00    +0.000 A 
ATOM     21  C   UNL     1       4.070   6.377  18.854  0.00  0.00    +0.000 A 
BRANCH  18  22
ATOM     22  O   UNL     1       1.819   3.038  17.766  0.00  0.00    +0.000 OA
ATOM     23  C   UNL     1       0.838   2.591  18.696  0.00  0.00    +0.000 C 
ENDBRANCH  18  22
BRANCH  19  24
ATOM     24  O   UNL     1       4.264   2.659  18.666  0.00  0.00    +0.000 OA
ATOM     25  C   UNL     1       4.322   2.096  19.969  0.00  0.00    +0.000 C 
ENDBRANCH  19  24
BRANCH  20  26
ATOM     26  O   UNL     1       5.911   4.872  19.399  0.00  0.00    +0.000 OA
ATOM     27  C   UNL     1       6.973   5.640  18.850  0.00  0.00    +0.000 C 
ENDBRANCH  20  26
ENDBRANCH   3  16
TORSDOF 7
ENDMDL
MODEL 2
REMARK VINA RESULT:      -6.8      1.707      3.077
REMARK  Name = 
REMARK  11 active torsions:
REMARK  status: ('A' for Active; 'I' for Inactive)
REMARK    1  A    between atoms: C_1  and  O_2
REMARK    2  A    between atoms: O_2  and  C_3
REMARK    3  A    between atoms: C_6  and  C_7
REMARK    4  A    between atoms: C_9  and  C_11
REMARK    5  A    between atoms: C_13  and  O_14
REMARK    6  A    between atoms: O_14  and  C_15
REMARK    7  A    between atoms: C_16  and  O_17
REMARK    8  A    between atoms: O_17  and  C_18
REMARK    9  A    between atoms: C_19  and  O_20
REMARK   10  A    between atoms: O_20  and  C_21
REMARK   11  A    between atoms: C_24  and  N_25
REMARK                            x       y       z     vdW  Elec       q    Type
REMARK                         _______ _______ _______ _____ _____    ______ ____
ROOT
ATOM      1  C   UNL     1       1.815   8.358  18.693  0.00  0.00    +0.000 C 
ATOM      2  F   UNL     1       1.895   7.765  17.475  0.00  0.00    +0.000 F 
ATOM      3  C   UNL     1       2.098   7.636  19.794  0.00  0.00    +0.000 C 
ATOM      4  F   UNL     1       1.903   8.164  21.026  0.00  0.00    +0.000 F 
ENDROOT
BRANCH   1   8
ATOM      5  C   UNL     1       0.383  12.380  18.670  0.00  0.00    +0.000 A 
ATOM      6  C   UNL     1      -0.434  11.328  19.086  0.00  0.00    +0.000 A 
ATOM      7  C   UNL     1       0.060  10.025  19.102  0.00  0.00    +0.000 A 
ATOM      8  C   UNL     1       1.364   9.750  18.678  0.00  0.00    +0.000 A 
ATOM      9  C   UNL     1       2.150  10.798  18.184  0.00  0.00    +0.000 A 
ATOM     10  C   UNL     1       1.693  12.120  18.219  0.00  0.00    +0.000 A 
BRANCH  10  11
ATOM     11  N   UNL     1       2.468  13.127  17.616  0.00  0.00    +0.000 N 
ATOM     12  H   UNL     1       1.952  13.967  17.381  0.00  0.00    +0.000 HD
ATOM     13  H   UNL     1       3.014  12.754  16.841  0.00  0.00    +0.000 HD
ENDBRANCH  10  11
BRANCH   5  15
ATOM     14  C   UNL     1      -0.202  14.264  19.954  0.00  0.00    +0.000 C 
ATOM     15  O   UNL     1      -0.018  13.695  18.660  0.00  0.00    +0.000 OA
ENDBRANCH   5  15
ENDBRANCH   1   8
BRANCH   3  16
ATOM     16  C   UNL     1       2.596   6.255  19.749  0.00  0.00    +0.000 A 
ATOM     17  C   UNL     1       3.891   5.982  19.310  0.00  0.00    +0.000 A 
ATOM     18  C   UNL     1       4.382   4.677  19.268  0.00  0.00    +0.000 A 
ATOM     19  C   UNL     1       3.557   3.607  19.670  0.00  0.00    +0.000 A 
ATOM     20  C   UNL     1       2.251   3.870  20.134  0.00  0.00    +0.000 A 
ATOM     21  C   UNL     1       1.796   5.200  20.190  0.00  0.00    +0.000 A 
BRANCH  18  22
ATOM     22  O   UNL     1       5.654   4.380  18.831  0.00  0.00    +0.000 OA
ATOM     23  C   UNL     1       6.653   5.364  19.080  0.00  0.00    +0.000 C 
ENDBRANCH  18  22
BRANCH  19  24
ATOM     24  O   UNL     1       4.108   2.358  19.503  0.00  0.00    +0.000 OA
ATOM     25  C   UNL     1       3.606   1.571  18.433  0.00  0.00    +0.000 C 
ENDBRANCH  19  24
BRANCH  20  26
ATOM     26  O   UNL     1       1.466   2.801  20.487  0.00  0.00    +0.000 OA
ATOM     27  C   UNL     1       1.368   2.454  21.862  0.00  0.00    +0.000 C 
ENDBRANCH  20  26
ENDBRANCH   3  16
TORSDOF 7
ENDMDL
MODEL 3
REMARK VINA RESULT:      -6.8      1.736      2.045
REMARK  Name = 
REMARK  11 active torsions:
REMARK  status: ('A' for Active; 'I' for Inactive)
REMARK    1  A    between atoms: C_1  and  O_2
REMARK    2  A    between atoms: O_2  and  C_3
REMARK    3  A    between atoms: C_6  and  C_7
REMARK    4  A    between atoms: C_9  and  C_11
REMARK    5  A    between atoms: C_13  and  O_14
REMARK    6  A    between atoms: O_14  and  C_15
REMARK    7  A    between atoms: C_16  and  O_17
REMARK    8  A    between atoms: O_17  and  C_18
REMARK    9  A    between atoms: C_19  and  O_20
REMARK   10  A    between atoms: O_20  and  C_21
REMARK   11  A    between atoms: C_24  and  N_25
REMARK                            x       y       z     vdW  Elec       q    Type
REMARK                         _______ _______ _______ _____ _____    ______ ____
ROOT
ATOM      1  C   UNL     1       1.852   8.285  18.700  0.00  0.00    +0.000 C 
ATOM      2  F   UNL     1       1.927   7.703  17.477  0.00  0.00    +0.000 F 
ATOM      3  C   UNL     1       2.140   7.554  19.794  0.00  0.00    +0.000 C 
ATOM      4  F   UNL     1       1.951   8.071  21.031  0.00  0.00    +0.000 F 
ENDROOT
BRANCH   1   8
ATOM      5  C   UNL     1       0.420  12.308  18.723  0.00  0.00    +0.000 A 
ATOM      6  C   UNL     1      -0.384  11.255  19.162  0.00  0.00    +0.000 A 
ATOM      7  C   UNL     1       0.110   9.952  19.163  0.00  0.00    +0.000 A 
ATOM      8  C   UNL     1       1.401   9.678  18.700  0.00  0.00    +0.000 A 
ATOM      9  C   UNL     1       2.172  10.726  18.184  0.00  0.00    +0.000 A 
ATOM     10  C   UNL     1       1.715  12.048  18.233  0.00  0.00    +0.000 A 
BRANCH  10  11
ATOM     11  N   UNL     1       2.472  13.055  17.607  0.00  0.00    +0.000 N 
ATOM     12  H   UNL     1       2.250  13.995  17.913  0.00  0.00    +0.000 HD
ATOM     13  H   UNL     1       2.464  12.944  16.595  0.00  0.00    +0.000 HD
ENDBRANCH  10  11
BRANCH   5  15
ATOM     14  C   UNL     1      -0.194  14.170  20.024  0.00  0.00    +0.000 C 
ATOM     15  O   UNL     1       0.019  13.622  18.726  0.00  0.00    +0.000 OA
ENDBRANCH   5  15
ENDBRANCH   1   8
BRANCH   3  16
ATOM     16  C   UNL     1       2.638   6.174  19.734  0.00  0.00    +0.000 A 
ATOM     17  C   UNL     1       1.819   5.107  20.102  0.00  0.00    +0.000 A 
ATOM     18  C   UNL     1       2.274   3.789  20.044  0.00  0.00    +0.000 A 
ATOM     19  C   UNL     1       3.589   3.523  19.611  0.00  0.00    +0.000 A 
ATOM     20  C   UNL     1       4.423   4.591  19.218  0.00  0.00    +0.000 A 
ATOM     21  C   UNL     1       3.924   5.906  19.263  0.00  0.00    +0.000 A 
BRANCH  18  22
ATOM     22  O   UNL     1       1.488   2.719  20.409  0.00  0.00    +0.000 OA
ATOM     23  C   UNL     1       1.329   2.501  21.807  0.00  0.00    +0.000 C 
ENDBRANCH  18  22
BRANCH  19  24
ATOM     24  O   UNL     1       3.963   2.201  19.678  0.00  0.00    +0.000 OA
ATOM     25  C   UNL     1       3.745   1.411  18.519  0.00  0.00    +0.000 C 
ENDBRANCH  19  24
BRANCH  20  26
ATOM     26  O   UNL     1       5.707   4.297  18.833  0.00  0.00    +0.000 OA
ATOM     27  C   UNL     1       6.108   4.615  17.507  0.00  0.00    +0.000 C 
ENDBRANCH  20  26
ENDBRANCH   3  16
TORSDOF 7
ENDMDL
MODEL 4
REMARK VINA RESULT:      -6.8      1.174      1.276
REMARK  Name = 
REMARK  11 active torsions:
REMARK  status: ('A' for Active; 'I' for Inactive)
REMARK    1  A    between atoms: C_1  and  O_2
REMARK    2  A    between atoms: O_2  and  C_3
REMARK    3  A    between atoms: C_6  and  C_7
REMARK    4  A    between atoms: C_9  and  C_11
REMARK    5  A    between atoms: C_13  and  O_14
REMARK    6  A    between atoms: O_14  and  C_15
REMARK    7  A    between atoms: C_16  and  O_17
REMARK    8  A    between atoms: O_17  and  C_18
REMARK    9  A    between atoms: C_19  and  O_20
REMARK   10  A    between atoms: O_20  and  C_21
REMARK   11  A    between atoms: C_24  and  N_25
REMARK                            x       y       z     vdW  Elec       q    Type
REMARK                         _______ _______ _______ _____ _____    ______ ____
ROOT
ATOM      1  C   UNL     1       1.855   8.410  19.049  0.00  0.00    +0.000 C 
ATOM      2  F   UNL     1       1.736   7.860  20.284  0.00  0.00    +0.000 F 
ATOM      3  C   UNL     1       2.493   7.724  18.083  0.00  0.00    +0.000 C 
ATOM      4  F   UNL     1       2.737   8.300  16.882  0.00  0.00    +0.000 F 
ENDROOT
BRANCH   1   8
ATOM      5  C   UNL     1       0.128  12.297  18.673  0.00  0.00    +0.000 A 
ATOM      6  C   UNL     1      -0.633  11.211  19.108  0.00  0.00    +0.000 A 
ATOM      7  C   UNL     1      -0.044   9.955  19.241  0.00  0.00    +0.000 A 
ATOM      8  C   UNL     1       1.302   9.759  18.914  0.00  0.00    +0.000 A 
ATOM      9  C   UNL     1       2.037  10.834  18.400  0.00  0.00    +0.000 A 
ATOM     10  C   UNL     1       1.479  12.114  18.318  0.00  0.00    +0.000 A 
BRANCH  10  11
ATOM     11  N   UNL     1       2.213  13.141  17.697  0.00  0.00    +0.000 N 
ATOM     12  H   UNL     1       2.697  12.857  16.853  0.00  0.00    +0.000 HD
ATOM     13  H   UNL     1       2.812  13.620  18.368  0.00  0.00    +0.000 HD
ENDBRANCH  10  11
BRANCH   5  15
ATOM     14  C   UNL     1      -0.599  14.236  19.791  0.00  0.00    +0.000 C 
ATOM     15  O   UNL     1      -0.371  13.572  18.551  0.00  0.00    +0.000 OA
ENDBRANCH   5  15
ENDBRANCH   1   8
BRANCH   3  16
ATOM     16  C   UNL     1       2.985   6.351  18.258  0.00  0.00    +0.000 A 
ATOM     17  C   UNL     1       2.109   5.268  18.182  0.00  0.00    +0.000 A 
ATOM     18  C   UNL     1       2.560   3.958  18.338  0.00  0.00    +0.000 A 
ATOM     19  C   UNL     1       3.927   3.714  18.584  0.00  0.00    +0.000 A 
ATOM     20  C   UNL     1       4.828   4.799  18.645  0.00  0.00    +0.000 A 
ATOM     21  C   UNL     1       4.344   6.106  18.456  0.00  0.00    +0.000 A 
BRANCH  18  22
ATOM     22  O   UNL     1       1.715   2.872  18.275  0.00  0.00    +0.000 OA
ATOM     23  C   UNL     1       0.763   2.752  19.327  0.00  0.00    +0.000 C 
ENDBRANCH  18  22
BRANCH  19  24
ATOM     24  O   UNL     1       4.248   2.397  18.812  0.00  0.00    +0.000 OA
ATOM     25  C   UNL     1       4.409   1.999  20.166  0.00  0.00    +0.000 C 
ENDBRANCH  19  24
BRANCH  20  26
ATOM     26  O   UNL     1       6.145   4.527  18.918  0.00  0.00    +0.000 OA
ATOM     27  C   UNL     1       7.110   4.751  17.899  0.00  0.00    +0.000 C 
ENDBRANCH  20  26
ENDBRANCH   3  16
TORSDOF 7
ENDMDL
MODEL 5
REMARK VINA RESULT:      -6.8      0.157      2.544
REMARK  Name = 
REMARK  11 active torsions:
REMARK  status: ('A' for Active; 'I' for Inactive)
REMARK    1  A    between atoms: C_1  and  O_2
REMARK    2  A    between atoms: O_2  and  C_3
REMARK    3  A    between atoms: C_6  and  C_7
REMARK    4  A    between atoms: C_9  and  C_11
REMARK    5  A    between atoms: C_13  and  O_14
REMARK    6  A    between atoms: O_14  and  C_15
REMARK    7  A    between atoms: C_16  and  O_17
REMARK    8  A    between atoms: O_17  and  C_18
REMARK    9  A    between atoms: C_19  and  O_20
REMARK   10  A    between atoms: O_20  and  C_21
REMARK   11  A    between atoms: C_24  and  N_25
REMARK                            x       y       z     vdW  Elec       q    Type
REMARK                         _______ _______ _______ _____ _____    ______ ____
ROOT
ATOM      1  C   UNL     1       1.420   8.539  19.457  0.00  0.00    +0.000 C 
ATOM      2  F   UNL     1       1.310   7.894  20.646  0.00  0.00    +0.000 F 
ATOM      3  C   UNL     1       2.131   7.970  18.465  0.00  0.00    +0.000 C 
ATOM      4  F   UNL     1       2.364   8.647  17.316  0.00  0.00    +0.000 F 
ENDROOT
BRANCH   1   8
ATOM      5  C   UNL     1      -0.428  12.388  19.410  0.00  0.00    +0.000 A 
ATOM      6  C   UNL     1       0.370  11.986  20.482  0.00  0.00    +0.000 A 
ATOM      7  C   UNL     1       0.978  10.732  20.468  0.00  0.00    +0.000 A 
ATOM      8  C   UNL     1       0.776   9.853  19.400  0.00  0.00    +0.000 A 
ATOM      9  C   UNL     1      -0.092  10.229  18.368  0.00  0.00    +0.000 A 
ATOM     10  C   UNL     1      -0.661  11.507  18.336  0.00  0.00    +0.000 A 
BRANCH  10  11
ATOM     11  N   UNL     1      -1.610  11.806  17.342  0.00  0.00    +0.000 N 
ATOM     12  H   UNL     1      -2.426  12.303  17.679  0.00  0.00    +0.000 HD
ATOM     13  H   UNL     1      -1.835  10.980  16.789  0.00  0.00    +0.000 HD
ENDBRANCH  10  11
BRANCH   5  15
ATOM     14  C   UNL     1      -0.151  14.688  18.994  0.00  0.00    +0.000 C 
ATOM     15  O   UNL     1      -1.032  13.620  19.333  0.00  0.00    +0.000 OA
ENDBRANCH   5  15
ENDBRANCH   1   8
BRANCH   3  16
ATOM     16  C   UNL     1       2.715   6.626  18.558  0.00  0.00    +0.000 A 
ATOM     17  C   UNL     1       3.997   6.443  19.075  0.00  0.00    +0.000 A 
ATOM     18  C   UNL     1       4.564   5.173  19.178  0.00  0.00    +0.000 A 
ATOM     19  C   UNL     1       3.834   4.046  18.748  0.00  0.00    +0.000 A 
ATOM     20  C   UNL     1       2.528   4.214  18.240  0.00  0.00    +0.000 A 
ATOM     21  C   UNL     1       1.976   5.506  18.175  0.00  0.00    +0.000 A 
BRANCH  18  22
ATOM     22  O   UNL     1       5.830   4.966  19.678  0.00  0.00    +0.000 OA
ATOM     23  C   UNL     1       6.897   5.591  18.972  0.00  0.00    +0.000 C 
ENDBRANCH  18  22
BRANCH  19  24
ATOM     24  O   UNL     1       4.519   2.855  18.809  0.00  0.00    +0.000 OA
ATOM     25  C   UNL     1       4.368   2.086  19.994  0.00  0.00    +0.000 C 
ENDBRANCH  19  24
BRANCH  20  26
ATOM     26  O   UNL     1       1.861   3.098  17.800  0.00  0.00    +0.000 OA
ATOM     27  C   UNL     1       0.930   2.474  18.675  0.00  0.00    +0.000 C 
ENDBRANCH  20  26
ENDBRANCH   3  16
TORSDOF 7
ENDMDL
MODEL 6
REMARK VINA RESULT:      -6.8      2.203      3.671
REMARK  Name = 
REMARK  11 active torsions:
REMARK  status: ('A' for Active; 'I' for Inactive)
REMARK    1  A    between atoms: C_1  and  O_2
REMARK    2  A    between atoms: O_2  and  C_3
REMARK    3  A    between atoms: C_6  and  C_7
REMARK    4  A    between atoms: C_9  and  C_11
REMARK    5  A    between atoms: C_13  and  O_14
REMARK    6  A    between atoms: O_14  and  C_15
REMARK    7  A    between atoms: C_16  and  O_17
REMARK    8  A    between atoms: O_17  and  C_18
REMARK    9  A    between atoms: C_19  and  O_20
REMARK   10  A    between atoms: O_20  and  C_21
REMARK   11  A    between atoms: C_24  and  N_25
REMARK                            x       y       z     vdW  Elec       q    Type
REMARK                         _______ _______ _______ _____ _____    ______ ____
ROOT
ATOM      1  C   UNL     1       2.051   8.303  18.380  0.00  0.00    +0.000 C 
ATOM      2  F   UNL     1       2.475   8.717  17.159  0.00  0.00    +0.000 F 
ATOM      3  C   UNL     1       2.489   7.124  18.861  0.00  0.00    +0.000 C 
ATOM      4  F   UNL     1       1.985   6.628  20.016  0.00  0.00    +0.000 F 
ENDROOT
BRANCH   1   8
ATOM      5  C   UNL     1      -0.766  10.950  20.194  0.00  0.00    +0.000 A 
ATOM      6  C   UNL     1      -0.586  10.930  18.810  0.00  0.00    +0.000 A 
ATOM      7  C   UNL     1       0.327  10.045  18.238  0.00  0.00    +0.000 A 
ATOM      8  C   UNL     1       1.091   9.190  19.039  0.00  0.00    +0.000 A 
ATOM      9  C   UNL     1       0.965   9.274  20.430  0.00  0.00    +0.000 A 
ATOM     10  C   UNL     1       0.010  10.112  21.018  0.00  0.00    +0.000 A 
BRANCH  10  11
ATOM     11  N   UNL     1      -0.010  10.247  22.418  0.00  0.00    +0.000 N 
ATOM     12  H   UNL     1       0.160  11.189  22.749  0.00  0.00    +0.000 HD
ATOM     13  H   UNL     1       0.581   9.546  22.862  0.00  0.00    +0.000 HD
ENDBRANCH  10  11
BRANCH   5  15
ATOM     14  C   UNL     1      -2.586  12.423  19.956  0.00  0.00    +0.000 C 
ATOM     15  O   UNL     1      -1.670  11.767  20.829  0.00  0.00    +0.000 OA
ENDBRANCH   5  15
ENDBRANCH   1   8
BRANCH   3  16
ATOM     16  C   UNL     1       3.493   6.297  18.180  0.00  0.00    +0.000 A 
ATOM     17  C   UNL     1       4.662   6.869  17.678  0.00  0.00    +0.000 A 
ATOM     18  C   UNL     1       5.629   6.097  17.036  0.00  0.00    +0.000 A 
ATOM     19  C   UNL     1       5.427   4.710  16.882  0.00  0.00    +0.000 A 
ATOM     20  C   UNL     1       4.258   4.114  17.402  0.00  0.00    +0.000 A 
ATOM     21  C   UNL     1       3.315   4.917  18.068  0.00  0.00    +0.000 A 
BRANCH  18  22
ATOM     22  O   UNL     1       6.788   6.638  16.524  0.00  0.00    +0.000 OA
ATOM     23  C   UNL     1       7.596   7.374  17.436  0.00  0.00    +0.000 C 
ENDBRANCH  18  22
BRANCH  19  24
ATOM     24  O   UNL     1       6.399   4.061  16.156  0.00  0.00    +0.000 OA
ATOM     25  C   UNL     1       6.160   3.897  14.765  0.00  0.00    +0.000 C 
ENDBRANCH  19  24
BRANCH  20  26
ATOM     26  O   UNL     1       4.080   2.768  17.205  0.00  0.00    +0.000 OA
ATOM     27  C   UNL     1       3.351   2.030  18.176  0.00  0.00    +0.000 C 
ENDBRANCH  20  26
ENDBRANCH   3  16
TORSDOF 7
ENDMDL
MODEL 7
REMARK VINA RESULT:      -6.7      1.968      2.502
REMARK  Name = 
REMARK  11 active torsions:
REMARK  status: ('A' for Active; 'I' for Inactive)
REMARK    1  A    between atoms: C_1  and  O_2
REMARK    2  A    between atoms: O_2  and  C_3
REMARK    3  A    between atoms: C_6  and  C_7
REMARK    4  A    between atoms: C_9  and  C_11
REMARK    5  A    between atoms: C_13  and  O_14
REMARK    6  A    between atoms: O_14  and  C_15
REMARK    7  A    between atoms: C_16  and  O_17
REMARK    8  A    between atoms: O_17  and  C_18
REMARK    9  A    between atoms: C_19  and  O_20
REMARK   10  A    between atoms: O_20  and  C_21
REMARK   11  A    between atoms: C_24  and  N_25
REMARK                            x       y       z     vdW  Elec       q    Type
REMARK                         _______ _______ _______ _____ _____    ______ ____
ROOT
ATOM      1  C   UNL     1       1.851   8.554  18.534  0.00  0.00    +0.000 C 
ATOM      2  F   UNL     1       2.216   8.987  17.301  0.00  0.00    +0.000 F 
ATOM      3  C   UNL     1       2.293   7.358  18.967  0.00  0.00    +0.000 C 
ATOM      4  F   UNL     1       1.843   6.845  20.137  0.00  0.00    +0.000 F 
ENDROOT
BRANCH   1   8
ATOM      5  C   UNL     1      -0.754  11.098  20.764  0.00  0.00    +0.000 A 
ATOM      6  C   UNL     1       0.239  10.350  21.399  0.00  0.00    +0.000 A 
ATOM      7  C   UNL     1       1.090   9.540  20.649  0.00  0.00    +0.000 A 
ATOM      8  C   UNL     1       0.944   9.442  19.262  0.00  0.00    +0.000 A 
ATOM      9  C   UNL     1      -0.106  10.130  18.642  0.00  0.00    +0.000 A 
ATOM     10  C   UNL     1      -0.930  10.995  19.370  0.00  0.00    +0.000 A 
BRANCH  10  11
ATOM     11  N   UNL     1      -2.037  11.582  18.731  0.00  0.00    +0.000 N 
ATOM     12  H   UNL     1      -1.973  11.605  17.720  0.00  0.00    +0.000 HD
ATOM     13  H   UNL     1      -2.262  12.486  19.145  0.00  0.00    +0.000 HD
ENDBRANCH  10  11
BRANCH   5  15
ATOM     14  C   UNL     1      -1.551  11.845  22.849  0.00  0.00    +0.000 C 
ATOM     15  O   UNL     1      -1.607  11.946  21.428  0.00  0.00    +0.000 OA
ENDBRANCH   5  15
ENDBRANCH   1   8
BRANCH   3  16
ATOM     16  C   UNL     1       3.245   6.528  18.216  0.00  0.00    +0.000 A 
ATOM     17  C   UNL     1       2.985   5.176  17.992  0.00  0.00    +0.000 A 
ATOM     18  C   UNL     1       3.874   4.376  17.275  0.00  0.00    +0.000 A 
ATOM     19  C   UNL     1       5.065   4.936  16.767  0.00  0.00    +0.000 A 
ATOM     20  C   UNL     1       5.331   6.307  16.971  0.00  0.00    +0.000 A 
ATOM     21  C   UNL     1       4.401   7.092  17.675  0.00  0.00    +0.000 A 
BRANCH  18  22
ATOM     22  O   UNL     1       3.645   3.038  17.046  0.00  0.00    +0.000 OA
ATOM     23  C   UNL     1       2.538   2.461  17.731  0.00  0.00    +0.000 C 
ENDBRANCH  18  22
BRANCH  19  24
ATOM     24  O   UNL     1       5.910   4.041  16.156  0.00  0.00    +0.000 OA
ATOM     25  C   UNL     1       5.970   4.077  14.737  0.00  0.00    +0.000 C 
ENDBRANCH  19  24
BRANCH  20  26
ATOM     26  O   UNL     1       6.515   6.810  16.491  0.00  0.00    +0.000 OA
ATOM     27  C   UNL     1       7.467   7.310  17.421  0.00  0.00    +0.000 C 
ENDBRANCH  20  26
ENDBRANCH   3  16
TORSDOF 7
ENDMDL
MODEL 8
REMARK VINA RESULT:      -6.7      2.395      3.632
REMARK  Name = 
REMARK  11 active torsions:
REMARK  status: ('A' for Active; 'I' for Inactive)
REMARK    1  A    between atoms: C_1  and  O_2
REMARK    2  A    between atoms: O_2  and  C_3
REMARK    3  A    between atoms: C_6  and  C_7
REMARK    4  A    between atoms: C_9  and  C_11
REMARK    5  A    between atoms: C_13  and  O_14
REMARK    6  A    between atoms: O_14  and  C_15
REMARK    7  A    between atoms: C_16  and  O_17
REMARK    8  A    between atoms: O_17  and  C_18
REMARK    9  A    between atoms: C_19  and  O_20
REMARK   10  A    between atoms: O_20  and  C_21
REMARK   11  A    between atoms: C_24  and  N_25
REMARK                            x       y       z     vdW  Elec       q    Type
REMARK                         _______ _______ _______ _____ _____    ______ ____
ROOT
ATOM      1  C   UNL     1       2.043   7.840  19.630  0.00  0.00    +0.000 C 
ATOM      2  F   UNL     1       2.605   6.994  20.529  0.00  0.00    +0.000 F 
ATOM      3  C   UNL     1       2.416   7.768  18.338  0.00  0.00    +0.000 C 
ATOM      4  F   UNL     1       1.967   8.682  17.445  0.00  0.00    +0.000 F 
ENDROOT
BRANCH   1   8
ATOM      5  C   UNL     1      -0.693  10.732  21.173  0.00  0.00    +0.000 A 
ATOM      6  C   UNL     1      -0.181  10.845  19.880  0.00  0.00    +0.000 A 
ATOM      7  C   UNL     1       0.698   9.880  19.390  0.00  0.00    +0.000 A 
ATOM      8  C   UNL     1       1.097   8.806  20.192  0.00  0.00    +0.000 A 
ATOM      9  C   UNL     1       0.644   8.744  21.515  0.00  0.00    +0.000 A 
ATOM     10  C   UNL     1      -0.285   9.670  22.003  0.00  0.00    +0.000 A 
BRANCH  10  11
ATOM     11  N   UNL     1      -0.631   9.636  23.366  0.00  0.00    +0.000 N 
ATOM     12  H   UNL     1      -1.292  10.351  23.646  0.00  0.00    +0.000 HD
ATOM     13  H   UNL     1       0.200   9.597  23.954  0.00  0.00    +0.000 HD
ENDBRANCH  10  11
BRANCH   5  15
ATOM     14  C   UNL     1      -1.928  12.712  20.860  0.00  0.00    +0.000 C 
ATOM     15  O   UNL     1      -1.590  11.622  21.714  0.00  0.00    +0.000 OA
ENDBRANCH   5  15
ENDBRANCH   1   8
BRANCH   3  16
ATOM     16  C   UNL     1       3.332   6.744  17.818  0.00  0.00    +0.000 A 
ATOM     17  C   UNL     1       4.615   7.089  17.396  0.00  0.00    +0.000 A 
ATOM     18  C   UNL     1       5.500   6.128  16.907  0.00  0.00    +0.000 A 
ATOM     19  C   UNL     1       5.094   4.780  16.829  0.00  0.00    +0.000 A 
ATOM     20  C   UNL     1       3.805   4.414  17.269  0.00  0.00    +0.000 A 
ATOM     21  C   UNL     1       2.947   5.404  17.783  0.00  0.00    +0.000 A 
BRANCH  18  22
ATOM     22  O   UNL     1       6.770   6.443  16.477  0.00  0.00    +0.000 OA
ATOM     23  C   UNL     1       7.579   7.183  17.386  0.00  0.00    +0.000 C 
ENDBRANCH  18  22
BRANCH  19  24
ATOM     24  O   UNL     1       6.010   3.933  16.248  0.00  0.00    +0.000 OA
ATOM     25  C   UNL     1       5.977   3.823  14.833  0.00  0.00    +0.000 C 
ENDBRANCH  19  24
BRANCH  20  26
ATOM     26  O   UNL     1       3.433   3.099  17.148  0.00  0.00    +0.000 OA
ATOM     27  C   UNL     1       3.356   2.303  18.324  0.00  0.00    +0.000 C 
ENDBRANCH  20  26
ENDBRANCH   3  16
TORSDOF 7
ENDMDL
MODEL 9
REMARK VINA RESULT:      -6.7      2.002      3.463
REMARK  Name = 
REMARK  11 active torsions:
REMARK  status: ('A' for Active; 'I' for Inactive)
REMARK    1  A    between atoms: C_1  and  O_2
REMARK    2  A    between atoms: O_2  and  C_3
REMARK    3  A    between atoms: C_6  and  C_7
REMARK    4  A    between atoms: C_9  and  C_11
REMARK    5  A    between atoms: C_13  and  O_14
REMARK    6  A    between atoms: O_14  and  C_15
REMARK    7  A    between atoms: C_16  and  O_17
REMARK    8  A    between atoms: O_17  and  C_18
REMARK    9  A    between atoms: C_19  and  O_20
REMARK   10  A    between atoms: O_20  and  C_21
REMARK   11  A    between atoms: C_24  and  N_25
REMARK                            x       y       z     vdW  Elec       q    Type
REMARK                         _______ _______ _______ _____ _____    ______ ____
ROOT
ATOM      1  C   UNL     1       1.835   8.567  18.547  0.00  0.00    +0.000 C 
ATOM      2  F   UNL     1       2.184   9.000  17.309  0.00  0.00    +0.000 F 
ATOM      3  C   UNL     1       2.281   7.370  18.973  0.00  0.00    +0.000 C 
ATOM      4  F   UNL     1       1.846   6.858  20.149  0.00  0.00    +0.000 F 
ENDROOT
BRANCH   1   8
ATOM      5  C   UNL     1      -0.743  11.108  20.811  0.00  0.00    +0.000 A 
ATOM      6  C   UNL     1       0.212  10.309  21.440  0.00  0.00    +0.000 A 
ATOM      7  C   UNL     1       1.055   9.500  20.680  0.00  0.00    +0.000 A 
ATOM      8  C   UNL     1       0.938   9.457  19.287  0.00  0.00    +0.000 A 
ATOM      9  C   UNL     1      -0.077  10.197  18.670  0.00  0.00    +0.000 A 
ATOM     10  C   UNL     1      -0.891  11.061  19.411  0.00  0.00    +0.000 A 
BRANCH  10  11
ATOM     11  N   UNL     1      -1.966  11.704  18.771  0.00  0.00    +0.000 N 
ATOM     12  H   UNL     1      -1.832  11.853  17.778  0.00  0.00    +0.000 HD
ATOM     13  H   UNL     1      -2.242  12.545  19.275  0.00  0.00    +0.000 HD
ENDBRANCH  10  11
BRANCH   5  15
ATOM     14  C   UNL     1      -1.613  11.761  22.899  0.00  0.00    +0.000 C 
ATOM     15  O   UNL     1      -1.586  11.958  21.488  0.00  0.00    +0.000 OA
ENDBRANCH   5  15
ENDBRANCH   1   8
BRANCH   3  16
ATOM     16  C   UNL     1       3.221   6.540  18.209  0.00  0.00    +0.000 A 
ATOM     17  C   UNL     1       4.400   7.086  17.704  0.00  0.00    +0.000 A 
ATOM     18  C   UNL     1       5.308   6.310  16.983  0.00  0.00    +0.000 A 
ATOM     19  C   UNL     1       5.032   4.946  16.752  0.00  0.00    +0.000 A 
ATOM     20  C   UNL     1       3.852   4.376  17.274  0.00  0.00    +0.000 A 
ATOM     21  C   UNL     1       2.971   5.180  18.019  0.00  0.00    +0.000 A 
BRANCH  18  22
ATOM     22  O   UNL     1       6.475   6.826  16.466  0.00  0.00    +0.000 OA
ATOM     23  C   UNL     1       7.442   7.271  17.413  0.00  0.00    +0.000 C 
ENDBRANCH  18  22
BRANCH  19  24
ATOM     24  O   UNL     1       5.947   4.299  15.955  0.00  0.00    +0.000 OA
ATOM     25  C   UNL     1       5.689   4.286  14.558  0.00  0.00    +0.000 C 
ENDBRANCH  19  24
BRANCH  20  26
ATOM     26  O   UNL     1       3.601   3.055  17.001  0.00  0.00    +0.000 OA
ATOM     27  C   UNL     1       3.329   2.178  18.086  0.00  0.00    +0.000 C 
ENDBRANCH  20  26
ENDBRANCH   3  16
TORSDOF 7
ENDMDL
