MODEL 1
REMARK VINA RESULT:      -7.3      0.000      0.000
REMARK  Name = 
REMARK  8 active torsions:
REMARK  status: ('A' for Active; 'I' for Inactive)
REMARK    1  A    between atoms: C_1  and  O_2
REMARK    2  A    between atoms: O_2  and  C_3
REMARK    3  A    between atoms: C_3  and  C_4
REMARK    4  A    between atoms: C_4  and  C_5
REMARK    5  A    between atoms: C_9  and  C_10
REMARK    6  A    between atoms: C_10  and  C_12
REMARK    7  A    between atoms: C_21  and  C_22
REMARK    8  A    between atoms: C_22  and  O_24
REMARK                            x       y       z     vdW  Elec       q    Type
REMARK                         _______ _______ _______ _____ _____    ______ ____
ROOT
ATOM      1  C   UNL     1       2.803   4.485  17.724  0.00  0.00    +0.000 A 
ATOM      2  C   UNL     1       3.677   4.185  16.630  0.00  0.00    +0.000 A 
ATOM      3  C   UNL     1       4.660   5.132  16.659  0.00  0.00    +0.000 A 
ATOM      4  N   UNL     1       4.376   6.021  17.651  0.00  0.00    +0.000 N 
ATOM      5  C   UNL     1       3.259   5.660  18.344  0.00  0.00    +0.000 A 
ATOM      6  C   UNL     1       5.382   7.062  17.774  0.00  0.00    +0.000 C 
ATOM      7  C   UNL     1       6.520   6.577  16.864  0.00  0.00    +0.000 C 
ATOM      8  C   UNL     1       5.926   5.472  15.959  0.00  0.00    +0.000 C 
ENDROOT
BRANCH   5   9
ATOM      9  C   UNL     1       2.681   6.316  19.508  0.00  0.00    +0.000 C 
ATOM     10  O   UNL     1       2.685   5.798  20.624  0.00  0.00    +0.000 OA
BRANCH   9  11
ATOM     11  C   UNL     1       2.012   7.643  19.386  0.00  0.00    +0.000 A 
ATOM     12  C   UNL     1       2.007   8.276  18.136  0.00  0.00    +0.000 A 
ATOM     13  C   UNL     1       1.422   9.536  17.987  0.00  0.00    +0.000 A 
ATOM     14  C   UNL     1       0.838  10.162  19.087  0.00  0.00    +0.000 A 
ATOM     15 CL   UNL     1       0.124  11.716  18.907  0.00  0.00    +0.000 Cl
ATOM     16  C   UNL     1       0.844   9.544  20.336  0.00  0.00    +0.000 A 
ATOM     17  C   UNL     1       1.454   8.296  20.493  0.00  0.00    +0.000 A 
ENDBRANCH   9  11
ENDBRANCH   5   9
BRANCH   8  18
ATOM     18  C   UNL     1       6.900   4.312  15.841  0.00  0.00    +0.000 C 
ATOM     19  O   UNL     1       7.858   4.183  16.592  0.00  0.00    +0.000 OA
BRANCH  18  20
ATOM     20  O   UNL     1       6.593   3.365  14.924  0.00  0.00    +0.000 OA
ATOM     21  H   UNL     1       5.748   2.903  15.095  0.00  0.00    +0.000 HD
ENDBRANCH  18  20
ENDBRANCH   8  18
BRANCH   1  22
ATOM     22  C   UNL     1       1.606   3.650  18.102  0.00  0.00    +0.000 C 
BRANCH  22  23
ATOM     23  C   UNL     1       1.883   2.622  19.198  0.00  0.00    +0.000 C 
BRANCH  23  25
ATOM     24  C   UNL     1       1.572   2.649  21.533  0.00  0.00    +0.000 C 
ATOM     25  O   UNL     1       0.942   2.775  20.266  0.00  0.00    +0.000 OA
ENDBRANCH  23  25
ENDBRANCH  22  23
ENDBRANCH   1  22
TORSDOF 7
ENDMDL
MODEL 2
REMARK VINA RESULT:      -7.3      0.384      1.060
REMARK  Name = 
REMARK  8 active torsions:
REMARK  status: ('A' for Active; 'I' for Inactive)
REMARK    1  A    between atoms: C_1  and  O_2
REMARK    2  A    between atoms: O_2  and  C_3
REMARK    3  A    between atoms: C_3  and  C_4
REMARK    4  A    between atoms: C_4  and  C_5
REMARK    5  A    between atoms: C_9  and  C_10
REMARK    6  A    between atoms: C_10  and  C_12
REMARK    7  A    between atoms: C_21  and  C_22
REMARK    8  A    between atoms: C_22  and  O_24
REMARK                            x       y       z     vdW  Elec       q    Type
REMARK                         _______ _______ _______ _____ _____    ______ ____
ROOT
ATOM      1  C   UNL     1       2.739   4.416  17.811  0.00  0.00    +0.000 A 
ATOM      2  C   UNL     1       3.594   4.106  16.705  0.00  0.00    +0.000 A 
ATOM      3  C   UNL     1       4.534   5.095  16.663  0.00  0.00    +0.000 A 
ATOM      4  N   UNL     1       4.240   6.013  17.624  0.00  0.00    +0.000 N 
ATOM      5  C   UNL     1       3.160   5.636  18.366  0.00  0.00    +0.000 A 
ATOM      6  C   UNL     1       5.202   7.101  17.672  0.00  0.00    +0.000 C 
ATOM      7  C   UNL     1       6.334   6.626  16.749  0.00  0.00    +0.000 C 
ATOM      8  C   UNL     1       5.764   5.457  15.910  0.00  0.00    +0.000 C 
ENDROOT
BRANCH   5   9
ATOM      9  C   UNL     1       2.587   6.317  19.517  0.00  0.00    +0.000 C 
ATOM     10  O   UNL     1       2.541   5.800  20.632  0.00  0.00    +0.000 OA
BRANCH   9  11
ATOM     11  C   UNL     1       1.984   7.674  19.383  0.00  0.00    +0.000 A 
ATOM     12  C   UNL     1       1.431   8.276  20.522  0.00  0.00    +0.000 A 
ATOM     13  C   UNL     1       0.824   9.531  20.431  0.00  0.00    +0.000 A 
ATOM     14  C   UNL     1       0.775  10.189  19.203  0.00  0.00    +0.000 A 
ATOM     15 CL   UNL     1       0.023  11.730  19.088  0.00  0.00    +0.000 Cl
ATOM     16  C   UNL     1       1.316   9.596  18.063  0.00  0.00    +0.000 A 
ATOM     17  C   UNL     1       1.898   8.328  18.147  0.00  0.00    +0.000 A 
ENDBRANCH   9  11
ENDBRANCH   5   9
BRANCH   8  18
ATOM     18  C   UNL     1       6.785   4.336  15.814  0.00  0.00    +0.000 C 
ATOM     19  O   UNL     1       7.814   4.329  16.476  0.00  0.00    +0.000 OA
BRANCH  18  20
ATOM     20  O   UNL     1       6.446   3.286  15.029  0.00  0.00    +0.000 OA
ATOM     21  H   UNL     1       7.030   2.508  15.130  0.00  0.00    +0.000 HD
ENDBRANCH  18  20
ENDBRANCH   8  18
BRANCH   1  22
ATOM     22  C   UNL     1       1.591   3.548  18.261  0.00  0.00    +0.000 C 
BRANCH  22  23
ATOM     23  C   UNL     1       2.021   2.249  18.942  0.00  0.00    +0.000 C 
BRANCH  23  25
ATOM     24  C   UNL     1       1.578   2.574  21.232  0.00  0.00    +0.000 C 
ATOM     25  O   UNL     1       2.583   2.530  20.228  0.00  0.00    +0.000 OA
ENDBRANCH  23  25
ENDBRANCH  22  23
ENDBRANCH   1  22
TORSDOF 7
ENDMDL
MODEL 3
REMARK VINA RESULT:      -7.2      4.684      7.316
REMARK  Name = 
REMARK  8 active torsions:
REMARK  status: ('A' for Active; 'I' for Inactive)
REMARK    1  A    between atoms: C_1  and  O_2
REMARK    2  A    between atoms: O_2  and  C_3
REMARK    3  A    between atoms: C_3  and  C_4
REMARK    4  A    between atoms: C_4  and  C_5
REMARK    5  A    between atoms: C_9  and  C_10
REMARK    6  A    between atoms: C_10  and  C_12
REMARK    7  A    between atoms: C_21  and  C_22
REMARK    8  A    between atoms: C_22  and  O_24
REMARK                            x       y       z     vdW  Elec       q    Type
REMARK                         _______ _______ _______ _____ _____    ______ ____
ROOT
ATOM      1  C   UNL     1       6.427   5.477  17.895  0.00  0.00    +0.000 A 
ATOM      2  C   UNL     1       6.026   4.772  19.076  0.00  0.00    +0.000 A 
ATOM      3  C   UNL     1       4.872   4.117  18.753  0.00  0.00    +0.000 A 
ATOM      4  N   UNL     1       4.523   4.455  17.482  0.00  0.00    +0.000 N 
ATOM      5  C   UNL     1       5.451   5.272  16.907  0.00  0.00    +0.000 A 
ATOM      6  C   UNL     1       3.311   3.788  17.038  0.00  0.00    +0.000 C 
ATOM      7  C   UNL     1       3.046   2.748  18.138  0.00  0.00    +0.000 C 
ATOM      8  C   UNL     1       3.910   3.155  19.354  0.00  0.00    +0.000 C 
ENDROOT
BRANCH   5   9
ATOM      9  C   UNL     1       5.463   5.788  15.545  0.00  0.00    +0.000 C 
ATOM     10  O   UNL     1       5.076   6.922  15.269  0.00  0.00    +0.000 OA
BRANCH   9  11
ATOM     11  C   UNL     1       5.911   4.935  14.407  0.00  0.00    +0.000 A 
ATOM     12  C   UNL     1       7.207   5.118  13.905  0.00  0.00    +0.000 A 
ATOM     13  C   UNL     1       7.654   4.364  12.816  0.00  0.00    +0.000 A 
ATOM     14  C   UNL     1       6.807   3.424  12.232  0.00  0.00    +0.000 A 
ATOM     15 CL   UNL     1       7.352   2.501  10.888  0.00  0.00    +0.000 Cl
ATOM     16  C   UNL     1       5.514   3.240  12.719  0.00  0.00    +0.000 A 
ATOM     17  C   UNL     1       5.056   4.013  13.790  0.00  0.00    +0.000 A 
ENDBRANCH   9  11
ENDBRANCH   5   9
BRANCH   8  18
ATOM     18  C   UNL     1       4.562   1.927  19.967  0.00  0.00    +0.000 C 
ATOM     19  O   UNL     1       4.909   1.888  21.140  0.00  0.00    +0.000 OA
BRANCH  18  20
ATOM     20  O   UNL     1       4.645   0.835  19.172  0.00  0.00    +0.000 OA
ATOM     21  H   UNL     1       5.348   0.205  19.430  0.00  0.00    +0.000 HD
ENDBRANCH  18  20
ENDBRANCH   8  18
BRANCH   1  22
ATOM     22  C   UNL     1       7.692   6.290  17.786  0.00  0.00    +0.000 C 
BRANCH  22  23
ATOM     23  C   UNL     1       7.461   7.799  17.744  0.00  0.00    +0.000 C 
BRANCH  23  25
ATOM     24  C   UNL     1       8.533   9.855  18.157  0.00  0.00    +0.000 C 
ATOM     25  O   UNL     1       8.480   8.475  18.488  0.00  0.00    +0.000 OA
ENDBRANCH  23  25
ENDBRANCH  22  23
ENDBRANCH   1  22
TORSDOF 7
ENDMDL
MODEL 4
REMARK VINA RESULT:      -6.9      3.197      6.661
REMARK  Name = 
REMARK  8 active torsions:
REMARK  status: ('A' for Active; 'I' for Inactive)
REMARK    1  A    between atoms: C_1  and  O_2
REMARK    2  A    between atoms: O_2  and  C_3
REMARK    3  A    between atoms: C_3  and  C_4
REMARK    4  A    between atoms: C_4  and  C_5
REMARK    5  A    between atoms: C_9  and  C_10
REMARK    6  A    between atoms: C_10  and  C_12
REMARK    7  A    between atoms: C_21  and  C_22
REMARK    8  A    between atoms: C_22  and  O_24
REMARK                            x       y       z     vdW  Elec       q    Type
REMARK                         _______ _______ _______ _____ _____    ______ ____
ROOT
ATOM      1  C   UNL     1       3.116   6.103  18.228  0.00  0.00    +0.000 A 
ATOM      2  C   UNL     1       2.134   5.291  18.883  0.00  0.00    +0.000 A 
ATOM      3  C   UNL     1       2.682   4.046  18.992  0.00  0.00    +0.000 A 
ATOM      4  N   UNL     1       3.893   4.050  18.370  0.00  0.00    +0.000 N 
ATOM      5  C   UNL     1       4.212   5.289  17.900  0.00  0.00    +0.000 A 
ATOM      6  C   UNL     1       4.567   2.765  18.450  0.00  0.00    +0.000 C 
ATOM      7  C   UNL     1       3.717   1.970  19.452  0.00  0.00    +0.000 C 
ATOM      8  C   UNL     1       2.369   2.719  19.585  0.00  0.00    +0.000 C 
ENDROOT
BRANCH   5   9
ATOM      9  C   UNL     1       5.443   5.703  17.241  0.00  0.00    +0.000 C 
ATOM     10  O   UNL     1       6.200   6.541  17.729  0.00  0.00    +0.000 OA
BRANCH   9  11
ATOM     11  C   UNL     1       5.821   5.153  15.908  0.00  0.00    +0.000 A 
ATOM     12  C   UNL     1       7.119   5.387  15.432  0.00  0.00    +0.000 A 
ATOM     13  C   UNL     1       7.502   4.919  14.173  0.00  0.00    +0.000 A 
ATOM     14  C   UNL     1       6.591   4.212  13.390  0.00  0.00    +0.000 A 
ATOM     15 CL   UNL     1       7.058   3.642  11.838  0.00  0.00    +0.000 Cl
ATOM     16  C   UNL     1       5.296   3.980  13.852  0.00  0.00    +0.000 A 
ATOM     17  C   UNL     1       4.902   4.472  15.099  0.00  0.00    +0.000 A 
ENDBRANCH   9  11
ENDBRANCH   5   9
BRANCH   8  18
ATOM     18  C   UNL     1       1.943   2.775  21.042  0.00  0.00    +0.000 C 
ATOM     19  O   UNL     1       2.749   2.729  21.961  0.00  0.00    +0.000 OA
BRANCH  18  20
ATOM     20  O   UNL     1       0.626   2.985  21.271  0.00  0.00    +0.000 OA
ATOM     21  H   UNL     1       0.428   3.837  21.710  0.00  0.00    +0.000 HD
ENDBRANCH  18  20
ENDBRANCH   8  18
BRANCH   1  22
ATOM     22  C   UNL     1       2.949   7.576  17.957  0.00  0.00    +0.000 C 
BRANCH  22  23
ATOM     23  C   UNL     1       1.923   8.264  18.856  0.00  0.00    +0.000 C 
BRANCH  23  25
ATOM     24  C   UNL     1       1.401  10.533  18.503  0.00  0.00    +0.000 C 
ATOM     25  O   UNL     1       1.148   9.196  18.095  0.00  0.00    +0.000 OA
ENDBRANCH  23  25
ENDBRANCH  22  23
ENDBRANCH   1  22
TORSDOF 7
ENDMDL
MODEL 5
REMARK VINA RESULT:      -6.9      4.708      7.268
REMARK  Name = 
REMARK  8 active torsions:
REMARK  status: ('A' for Active; 'I' for Inactive)
REMARK    1  A    between atoms: C_1  and  O_2
REMARK    2  A    between atoms: O_2  and  C_3
REMARK    3  A    between atoms: C_3  and  C_4
REMARK    4  A    between atoms: C_4  and  C_5
REMARK    5  A    between atoms: C_9  and  C_10
REMARK    6  A    between atoms: C_10  and  C_12
REMARK    7  A    between atoms: C_21  and  C_22
REMARK    8  A    between atoms: C_22  and  O_24
REMARK                            x       y       z     vdW  Elec       q    Type
REMARK                         _______ _______ _______ _____ _____    ______ ____
ROOT
ATOM      1  C   UNL     1       6.378   5.458  17.770  0.00  0.00    +0.000 A 
ATOM      2  C   UNL     1       6.000   4.745  18.953  0.00  0.00    +0.000 A 
ATOM      3  C   UNL     1       4.843   4.088  18.646  0.00  0.00    +0.000 A 
ATOM      4  N   UNL     1       4.470   4.433  17.383  0.00  0.00    +0.000 N 
ATOM      5  C   UNL     1       5.385   5.256  16.797  0.00  0.00    +0.000 A 
ATOM      6  C   UNL     1       3.252   3.765  16.956  0.00  0.00    +0.000 C 
ATOM      7  C   UNL     1       3.010   2.718  18.054  0.00  0.00    +0.000 C 
ATOM      8  C   UNL     1       3.894   3.120  19.257  0.00  0.00    +0.000 C 
ENDROOT
BRANCH   5   9
ATOM      9  C   UNL     1       5.373   5.780  15.439  0.00  0.00    +0.000 C 
ATOM     10  O   UNL     1       4.919   6.891  15.167  0.00  0.00    +0.000 OA
BRANCH   9  11
ATOM     11  C   UNL     1       5.877   4.964  14.298  0.00  0.00    +0.000 A 
ATOM     12  C   UNL     1       5.025   4.003  13.736  0.00  0.00    +0.000 A 
ATOM     13  C   UNL     1       5.471   3.192  12.689  0.00  0.00    +0.000 A 
ATOM     14  C   UNL     1       6.767   3.345  12.199  0.00  0.00    +0.000 A 
ATOM     15 CL   UNL     1       7.319   2.344  10.915  0.00  0.00    +0.000 Cl
ATOM     16  C   UNL     1       7.624   4.293  12.755  0.00  0.00    +0.000 A 
ATOM     17  C   UNL     1       7.189   5.085  13.822  0.00  0.00    +0.000 A 
ENDBRANCH   9  11
ENDBRANCH   5   9
BRANCH   8  18
ATOM     18  C   UNL     1       4.560   1.891  19.852  0.00  0.00    +0.000 C 
ATOM     19  O   UNL     1       4.971   1.862  21.003  0.00  0.00    +0.000 OA
BRANCH  18  20
ATOM     20  O   UNL     1       4.580   0.786  19.070  0.00  0.00    +0.000 OA
ATOM     21  H   UNL     1       5.464   0.569  18.708  0.00  0.00    +0.000 HD
ENDBRANCH  18  20
ENDBRANCH   8  18
BRANCH   1  22
ATOM     22  C   UNL     1       7.639   6.275  17.643  0.00  0.00    +0.000 C 
BRANCH  22  23
ATOM     23  C   UNL     1       8.162   6.824  18.969  0.00  0.00    +0.000 C 
BRANCH  23  25
ATOM     24  C   UNL     1       7.932   8.816  17.734  0.00  0.00    +0.000 C 
ATOM     25  O   UNL     1       8.613   8.172  18.801  0.00  0.00    +0.000 OA
ENDBRANCH  23  25
ENDBRANCH  22  23
ENDBRANCH   1  22
TORSDOF 7
ENDMDL
MODEL 6
REMARK VINA RESULT:      -6.8      3.957      7.046
REMARK  Name = 
REMARK  8 active torsions:
REMARK  status: ('A' for Active; 'I' for Inactive)
REMARK    1  A    between atoms: C_1  and  O_2
REMARK    2  A    between atoms: O_2  and  C_3
REMARK    3  A    between atoms: C_3  and  C_4
REMARK    4  A    between atoms: C_4  and  C_5
REMARK    5  A    between atoms: C_9  and  C_10
REMARK    6  A    between atoms: C_10  and  C_12
REMARK    7  A    between atoms: C_21  and  C_22
REMARK    8  A    between atoms: C_22  and  O_24
REMARK                            x       y       z     vdW  Elec       q    Type
REMARK                         _______ _______ _______ _____ _____    ______ ____
ROOT
ATOM      1  C   UNL     1       6.019   5.220  18.334  0.00  0.00    +0.000 A 
ATOM      2  C   UNL     1       5.393   4.698  19.512  0.00  0.00    +0.000 A 
ATOM      3  C   UNL     1       4.055   4.660  19.245  0.00  0.00    +0.000 A 
ATOM      4  N   UNL     1       3.842   5.204  18.016  0.00  0.00    +0.000 N 
ATOM      5  C   UNL     1       5.014   5.547  17.409  0.00  0.00    +0.000 A 
ATOM      6  C   UNL     1       2.441   5.190  17.632  0.00  0.00    +0.000 C 
ATOM      7  C   UNL     1       1.779   4.313  18.706  0.00  0.00    +0.000 C 
ATOM      8  C   UNL     1       2.788   4.202  19.874  0.00  0.00    +0.000 C 
ENDROOT
BRANCH   5   9
ATOM      9  C   UNL     1       5.200   6.090  16.071  0.00  0.00    +0.000 C 
ATOM     10  O   UNL     1       4.938   7.260  15.795  0.00  0.00    +0.000 OA
BRANCH   9  11
ATOM     11  C   UNL     1       5.681   5.228  14.954  0.00  0.00    +0.000 A 
ATOM     12  C   UNL     1       6.984   5.422  14.475  0.00  0.00    +0.000 A 
ATOM     13  C   UNL     1       7.462   4.660  13.405  0.00  0.00    +0.000 A 
ATOM     14  C   UNL     1       6.640   3.699  12.819  0.00  0.00    +0.000 A 
ATOM     15 CL   UNL     1       7.223   2.765  11.499  0.00  0.00    +0.000 Cl
ATOM     16  C   UNL     1       5.340   3.504  13.284  0.00  0.00    +0.000 A 
ATOM     17  C   UNL     1       4.851   4.286  14.334  0.00  0.00    +0.000 A 
ENDBRANCH   9  11
ENDBRANCH   5   9
BRANCH   8  18
ATOM     18  C   UNL     1       2.833   2.774  20.392  0.00  0.00    +0.000 C 
ATOM     19  O   UNL     1       3.196   2.502  21.528  0.00  0.00    +0.000 OA
BRANCH  18  20
ATOM     20  O   UNL     1       2.350   1.822  19.560  0.00  0.00    +0.000 OA
ATOM     21  H   UNL     1       1.423   1.565  19.743  0.00  0.00    +0.000 HD
ENDBRANCH  18  20
ENDBRANCH   8  18
BRANCH   1  22
ATOM     22  C   UNL     1       7.509   5.377  18.168  0.00  0.00    +0.000 C 
BRANCH  22  23
ATOM     23  C   UNL     1       8.031   6.773  18.503  0.00  0.00    +0.000 C 
BRANCH  23  25
ATOM     24  C   UNL     1       7.974   9.011  17.771  0.00  0.00    +0.000 C 
ATOM     25  O   UNL     1       7.845   7.650  17.387  0.00  0.00    +0.000 OA
ENDBRANCH  23  25
ENDBRANCH  22  23
ENDBRANCH   1  22
TORSDOF 7
ENDMDL
MODEL 7
REMARK VINA RESULT:      -6.8      3.214      6.720
REMARK  Name = 
REMARK  8 active torsions:
REMARK  status: ('A' for Active; 'I' for Inactive)
REMARK    1  A    between atoms: C_1  and  O_2
REMARK    2  A    between atoms: O_2  and  C_3
REMARK    3  A    between atoms: C_3  and  C_4
REMARK    4  A    between atoms: C_4  and  C_5
REMARK    5  A    between atoms: C_9  and  C_10
REMARK    6  A    between atoms: C_10  and  C_12
REMARK    7  A    between atoms: C_21  and  C_22
REMARK    8  A    between atoms: C_22  and  O_24
REMARK                            x       y       z     vdW  Elec       q    Type
REMARK                         _______ _______ _______ _____ _____    ______ ____
ROOT
ATOM      1  C   UNL     1       3.220   6.155  17.905  0.00  0.00    +0.000 A 
ATOM      2  C   UNL     1       2.139   5.398  18.464  0.00  0.00    +0.000 A 
ATOM      3  C   UNL     1       2.564   4.101  18.500  0.00  0.00    +0.000 A 
ATOM      4  N   UNL     1       3.795   4.032  17.922  0.00  0.00    +0.000 N 
ATOM      5  C   UNL     1       4.248   5.264  17.556  0.00  0.00    +0.000 A 
ATOM      6  C   UNL     1       4.342   2.685  17.931  0.00  0.00    +0.000 C 
ATOM      7  C   UNL     1       3.379   1.909  18.842  0.00  0.00    +0.000 C 
ATOM      8  C   UNL     1       2.103   2.772  18.981  0.00  0.00    +0.000 C 
ENDROOT
BRANCH   5   9
ATOM      9  C   UNL     1       5.539   5.603  16.974  0.00  0.00    +0.000 C 
ATOM     10  O   UNL     1       6.345   6.337  17.544  0.00  0.00    +0.000 OA
BRANCH   9  11
ATOM     11  C   UNL     1       5.925   5.102  15.624  0.00  0.00    +0.000 A 
ATOM     12  C   UNL     1       4.982   4.372  14.887  0.00  0.00    +0.000 A 
ATOM     13  C   UNL     1       5.316   3.854  13.633  0.00  0.00    +0.000 A 
ATOM     14  C   UNL     1       6.590   4.070  13.112  0.00  0.00    +0.000 A 
ATOM     15 CL   UNL     1       7.005   3.428  11.573  0.00  0.00    +0.000 Cl
ATOM     16  C   UNL     1       7.538   4.788  13.840  0.00  0.00    +0.000 A 
ATOM     17  C   UNL     1       7.214   5.282  15.107  0.00  0.00    +0.000 A 
ENDBRANCH   9  11
ENDBRANCH   5   9
BRANCH   8  18
ATOM     18  C   UNL     1       1.623   2.767  20.423  0.00  0.00    +0.000 C 
ATOM     19  O   UNL     1       2.366   2.501  21.358  0.00  0.00    +0.000 OA
BRANCH  18  20
ATOM     20  O   UNL     1       0.350   3.177  20.630  0.00  0.00    +0.000 OA
ATOM     21  H   UNL     1       0.080   3.182  21.570  0.00  0.00    +0.000 HD
ENDBRANCH  18  20
ENDBRANCH   8  18
BRANCH   1  22
ATOM     22  C   UNL     1       3.203   7.653  17.737  0.00  0.00    +0.000 C 
BRANCH  22  23
ATOM     23  C   UNL     1       2.134   8.362  18.567  0.00  0.00    +0.000 C 
BRANCH  23  25
ATOM     24  C   UNL     1       0.409   9.955  18.386  0.00  0.00    +0.000 C 
ATOM     25  O   UNL     1       1.156   8.956  17.707  0.00  0.00    +0.000 OA
ENDBRANCH  23  25
ENDBRANCH  22  23
ENDBRANCH   1  22
TORSDOF 7
ENDMDL
MODEL 8
REMARK VINA RESULT:      -6.7      1.932      4.547
REMARK  Name = 
REMARK  8 active torsions:
REMARK  status: ('A' for Active; 'I' for Inactive)
REMARK    1  A    between atoms: C_1  and  O_2
REMARK    2  A    between atoms: O_2  and  C_3
REMARK    3  A    between atoms: C_3  and  C_4
REMARK    4  A    between atoms: C_4  and  C_5
REMARK    5  A    between atoms: C_9  and  C_10
REMARK    6  A    between atoms: C_10  and  C_12
REMARK    7  A    between atoms: C_21  and  C_22
REMARK    8  A    between atoms: C_22  and  O_24
REMARK                            x       y       z     vdW  Elec       q    Type
REMARK                         _______ _______ _______ _____ _____    ______ ____
ROOT
ATOM      1  C   UNL     1       4.050   6.141  18.125  0.00  0.00    +0.000 A 
ATOM      2  C   UNL     1       4.263   4.780  18.517  0.00  0.00    +0.000 A 
ATOM      3  C   UNL     1       3.145   4.403  19.204  0.00  0.00    +0.000 A 
ATOM      4  N   UNL     1       2.320   5.481  19.313  0.00  0.00    +0.000 N 
ATOM      5  C   UNL     1       2.820   6.565  18.655  0.00  0.00    +0.000 A 
ATOM      6  C   UNL     1       1.086   5.172  20.015  0.00  0.00    +0.000 C 
ATOM      7  C   UNL     1       1.111   3.640  20.136  0.00  0.00    +0.000 C 
ATOM      8  C   UNL     1       2.563   3.194  19.843  0.00  0.00    +0.000 C 
ENDROOT
BRANCH   5   9
ATOM      9  C   UNL     1       2.200   7.871  18.489  0.00  0.00    +0.000 C 
ATOM     10  O   UNL     1       2.261   8.499  17.432  0.00  0.00    +0.000 OA
BRANCH   9  11
ATOM     11  C   UNL     1       1.491   8.533  19.621  0.00  0.00    +0.000 A 
ATOM     12  C   UNL     1       0.607   9.582  19.335  0.00  0.00    +0.000 A 
ATOM     13  C   UNL     1      -0.050  10.252  20.371  0.00  0.00    +0.000 A 
ATOM     14  C   UNL     1       0.172   9.870  21.692  0.00  0.00    +0.000 A 
ATOM     15 CL   UNL     1      -0.629  10.698  22.968  0.00  0.00    +0.000 Cl
ATOM     16  C   UNL     1       1.055   8.833  21.988  0.00  0.00    +0.000 A 
ATOM     17  C   UNL     1       1.735   8.181  20.955  0.00  0.00    +0.000 A 
ENDBRANCH   9  11
ENDBRANCH   5   9
BRANCH   8  18
ATOM     18  C   UNL     1       2.561   1.962  18.953  0.00  0.00    +0.000 C 
ATOM     19  O   UNL     1       3.586   1.355  18.676  0.00  0.00    +0.000 OA
BRANCH  18  20
ATOM     20  O   UNL     1       1.347   1.507  18.566  0.00  0.00    +0.000 OA
ATOM     21  H   UNL     1       0.595   2.020  18.926  0.00  0.00    +0.000 HD
ENDBRANCH  18  20
ENDBRANCH   8  18
BRANCH   1  22
ATOM     22  C   UNL     1       5.016   6.940  17.288  0.00  0.00    +0.000 C 
BRANCH  22  23
ATOM     23  C   UNL     1       5.261   6.363  15.895  0.00  0.00    +0.000 C 
BRANCH  23  25
ATOM     24  C   UNL     1       6.766   4.581  15.565  0.00  0.00    +0.000 C 
ATOM     25  O   UNL     1       6.634   5.983  15.753  0.00  0.00    +0.000 OA
ENDBRANCH  23  25
ENDBRANCH  22  23
ENDBRANCH   1  22
TORSDOF 7
ENDMDL
MODEL 9
REMARK VINA RESULT:      -6.7      1.989      2.322
REMARK  Name = 
REMARK  8 active torsions:
REMARK  status: ('A' for Active; 'I' for Inactive)
REMARK    1  A    between atoms: C_1  and  O_2
REMARK    2  A    between atoms: O_2  and  C_3
REMARK    3  A    between atoms: C_3  and  C_4
REMARK    4  A    between atoms: C_4  and  C_5
REMARK    5  A    between atoms: C_9  and  C_10
REMARK    6  A    between atoms: C_10  and  C_12
REMARK    7  A    between atoms: C_21  and  C_22
REMARK    8  A    between atoms: C_22  and  O_24
REMARK                            x       y       z     vdW  Elec       q    Type
REMARK                         _______ _______ _______ _____ _____    ______ ____
ROOT
ATOM      1  C   UNL     1       3.791   4.681  19.565  0.00  0.00    +0.000 A 
ATOM      2  C   UNL     1       5.196   4.399  19.568  0.00  0.00    +0.000 A 
ATOM      3  C   UNL     1       5.749   5.212  18.622  0.00  0.00    +0.000 A 
ATOM      4  N   UNL     1       4.749   5.898  18.002  0.00  0.00    +0.000 N 
ATOM      5  C   UNL     1       3.534   5.621  18.554  0.00  0.00    +0.000 A 
ATOM      6  C   UNL     1       5.243   6.811  16.986  0.00  0.00    +0.000 C 
ATOM      7  C   UNL     1       6.764   6.809  17.204  0.00  0.00    +0.000 C 
ATOM      8  C   UNL     1       7.085   5.578  18.084  0.00  0.00    +0.000 C 
ENDROOT
BRANCH   5   9
ATOM      9  C   UNL     1       2.245   6.204  18.210  0.00  0.00    +0.000 C 
ATOM     10  O   UNL     1       1.435   5.629  17.485  0.00  0.00    +0.000 OA
BRANCH   9  11
ATOM     11  C   UNL     1       1.865   7.562  18.696  0.00  0.00    +0.000 A 
ATOM     12  C   UNL     1       1.856   8.622  17.778  0.00  0.00    +0.000 A 
ATOM     13  C   UNL     1       1.541   9.916  18.200  0.00  0.00    +0.000 A 
ATOM     14  C   UNL     1       1.228  10.151  19.537  0.00  0.00    +0.000 A 
ATOM     15 CL   UNL     1       0.847  11.744  20.059  0.00  0.00    +0.000 Cl
ATOM     16  C   UNL     1       1.240   9.105  20.459  0.00  0.00    +0.000 A 
ATOM     17  C   UNL     1       1.584   7.815  20.044  0.00  0.00    +0.000 A 
ENDBRANCH   9  11
ENDBRANCH   5   9
BRANCH   8  18
ATOM     18  C   UNL     1       8.103   5.949  19.150  0.00  0.00    +0.000 C 
ATOM     19  O   UNL     1       8.534   5.134  19.955  0.00  0.00    +0.000 OA
BRANCH  18  20
ATOM     20  O   UNL     1       8.589   7.211  19.098  0.00  0.00    +0.000 OA
ATOM     21  H   UNL     1       8.544   7.619  18.209  0.00  0.00    +0.000 HD
ENDBRANCH  18  20
ENDBRANCH   8  18
BRANCH   1  22
ATOM     22  C   UNL     1       2.800   4.045  20.505  0.00  0.00    +0.000 C 
BRANCH  22  23
ATOM     23  C   UNL     1       2.722   2.523  20.395  0.00  0.00    +0.000 C 
BRANCH  23  25
ATOM     24  C   UNL     1       0.903   2.452  18.900  0.00  0.00    +0.000 C 
ATOM     25  O   UNL     1       2.278   2.146  19.087  0.00  0.00    +0.000 OA
ENDBRANCH  23  25
ENDBRANCH  22  23
ENDBRANCH   1  22
TORSDOF 7
ENDMDL
