MODEL 1
REMARK VINA RESULT:      -8.3      0.000      0.000
REMARK  Name = 
REMARK  3 active torsions:
REMARK  status: ('A' for Active; 'I' for Inactive)
REMARK    1  A    between atoms: C_2  and  C_3
REMARK    2  A    between atoms: N_9  and  C_10
REMARK    3  A    between atoms: C_10  and  C_11
REMARK                            x       y       z     vdW  Elec       q    Type
REMARK                         _______ _______ _______ _____ _____    ______ ____
ROOT
ATOM      1  C   UNL     1       1.680   8.244  19.596  0.00  0.00    +0.000 A 
ATOM      2  C   UNL     1       1.238   8.080  20.907  0.00  0.00    +0.000 A 
ATOM      3  C   UNL     1       0.648   9.148  21.596  0.00  0.00    +0.000 A 
ATOM      4  C   UNL     1       0.406  10.363  20.952  0.00  0.00    +0.000 A 
ATOM      5  C   UNL     1       0.739  10.490  19.598  0.00  0.00    +0.000 A 
ATOM      6  C   UNL     1       1.373   9.439  18.924  0.00  0.00    +0.000 A 
ATOM      7  N   UNL     1       0.445  11.688  18.908  0.00  0.00    +0.000 N 
ATOM      8  C   UNL     1      -0.856  12.083  18.619  0.00  0.00    +0.000 C 
ATOM      9  O   UNL     1      -1.140  12.594  17.536  0.00  0.00    +0.000 OA
ATOM     10  C   UNL     1      -1.932  12.047  19.654  0.00  0.00    +0.000 A 
ATOM     11  C   UNL     1      -3.230  12.324  19.162  0.00  0.00    +0.000 A 
ATOM     12  C   UNL     1      -4.301  12.571  20.017  0.00  0.00    +0.000 A 
ATOM     13  C   UNL     1      -4.104  12.525  21.387  0.00  0.00    +0.000 A 
ATOM     14  C   UNL     1      -2.839  12.223  21.893  0.00  0.00    +0.000 A 
ATOM     15  C   UNL     1      -1.737  11.984  21.045  0.00  0.00    +0.000 A 
ATOM     16  S   UNL     1      -0.131  11.815  21.861  0.00  0.00    +0.000 S 
ATOM     17  O   UNL     1      -0.396  11.355  23.341  0.00  0.00    +0.000 OA
ENDROOT
BRANCH   1  19
ATOM     18  O   UNL     1       3.068   7.501  17.876  0.00  0.00    +0.000 OA
ATOM     19  C   UNL     1       2.438   7.168  18.873  0.00  0.00    +0.000 C 
ATOM     20  N   UNL     1       2.420   5.851  19.351  0.00  0.00    +0.000 N 
ATOM     21  C   UNL     1       3.107   4.800  18.598  0.00  0.00    +0.000 C 
ATOM     22  C   UNL     1       2.175   3.613  18.335  0.00  0.00    +0.000 C 
ATOM     23  C   UNL     1       1.457   3.133  19.601  0.00  0.00    +0.000 C 
ATOM     24  C   UNL     1       0.844   4.298  20.379  0.00  0.00    +0.000 C 
ATOM     25  C   UNL     1       1.890   5.381  20.631  0.00  0.00    +0.000 C 
ENDBRANCH   1  19
BRANCH   7  26
ATOM     26  C   UNL     1       1.524  12.639  18.638  0.00  0.00    +0.000 C 
BRANCH  26  27
ATOM     27  C   UNL     1       1.658  13.750  19.639  0.00  0.00    +0.000 A 
ATOM     28  C   UNL     1       2.680  13.709  20.598  0.00  0.00    +0.000 A 
ATOM     29  C   UNL     1       2.763  14.680  21.591  0.00  0.00    +0.000 A 
ATOM     30  C   UNL     1       1.841  15.721  21.614  0.00  0.00    +0.000 A 
ATOM     31  C   UNL     1       0.853  15.803  20.634  0.00  0.00    +0.000 A 
ATOM     32  C   UNL     1       0.760  14.821  19.647  0.00  0.00    +0.000 A 
ENDBRANCH  26  27
ENDBRANCH   7  26
TORSDOF 3
ENDMDL
MODEL 2
REMARK VINA RESULT:      -7.9      3.869      6.936
REMARK  Name = 
REMARK  3 active torsions:
REMARK  status: ('A' for Active; 'I' for Inactive)
REMARK    1  A    between atoms: C_2  and  C_3
REMARK    2  A    between atoms: N_9  and  C_10
REMARK    3  A    between atoms: C_10  and  C_11
REMARK                            x       y       z     vdW  Elec       q    Type
REMARK                         _______ _______ _______ _____ _____    ______ ____
ROOT
ATOM      1  C   UNL     1       1.910  14.415  19.727  0.00  0.00    +0.000 A 
ATOM      2  C   UNL     1       2.482  13.634  18.724  0.00  0.00    +0.000 A 
ATOM      3  C   UNL     1       1.966  12.364  18.433  0.00  0.00    +0.000 A 
ATOM      4  C   UNL     1       0.816  11.898  19.072  0.00  0.00    +0.000 A 
ATOM      5  C   UNL     1       0.169  12.732  19.993  0.00  0.00    +0.000 A 
ATOM      6  C   UNL     1       0.712  13.981  20.320  0.00  0.00    +0.000 A 
ATOM      7  N   UNL     1      -1.032  12.309  20.605  0.00  0.00    +0.000 N 
ATOM      8  C   UNL     1      -2.222  12.174  19.900  0.00  0.00    +0.000 C 
ATOM      9  O   UNL     1      -3.296  12.523  20.391  0.00  0.00    +0.000 OA
ATOM     10  C   UNL     1      -2.277  11.466  18.586  0.00  0.00    +0.000 A 
ATOM     11  C   UNL     1      -3.522  11.556  17.921  0.00  0.00    +0.000 A 
ATOM     12  C   UNL     1      -3.824  10.762  16.817  0.00  0.00    +0.000 A 
ATOM     13  C   UNL     1      -2.875   9.875  16.336  0.00  0.00    +0.000 A 
ATOM     14  C   UNL     1      -1.629   9.794  16.959  0.00  0.00    +0.000 A 
ATOM     15  C   UNL     1      -1.308  10.577  18.087  0.00  0.00    +0.000 A 
ATOM     16  S   UNL     1       0.266  10.199  18.894  0.00  0.00    +0.000 S 
ATOM     17  O   UNL     1       1.200   9.527  17.823  0.00  0.00    +0.000 OA
ENDROOT
BRANCH   1  19
ATOM     18  O   UNL     1       2.101  16.736  19.615  0.00  0.00    +0.000 OA
ATOM     19  C   UNL     1       2.515  15.719  20.161  0.00  0.00    +0.000 C 
ATOM     20  N   UNL     1       3.495  15.741  21.161  0.00  0.00    +0.000 N 
ATOM     21  C   UNL     1       4.125  17.012  21.525  0.00  0.00    +0.000 C 
ATOM     22  C   UNL     1       5.653  16.902  21.483  0.00  0.00    +0.000 C 
ATOM     23  C   UNL     1       6.178  15.681  22.247  0.00  0.00    +0.000 C 
ATOM     24  C   UNL     1       5.410  14.410  21.877  0.00  0.00    +0.000 C 
ATOM     25  C   UNL     1       3.907  14.634  22.023  0.00  0.00    +0.000 C 
ENDBRANCH   1  19
BRANCH   7  26
ATOM     26  C   UNL     1      -0.998  11.826  21.986  0.00  0.00    +0.000 C 
BRANCH  26  27
ATOM     27  C   UNL     1      -1.755  12.666  22.973  0.00  0.00    +0.000 A 
ATOM     28  C   UNL     1      -2.967  12.203  23.504  0.00  0.00    +0.000 A 
ATOM     29  C   UNL     1      -3.729  13.007  24.347  0.00  0.00    +0.000 A 
ATOM     30  C   UNL     1      -3.268  14.272  24.692  0.00  0.00    +0.000 A 
ATOM     31  C   UNL     1      -2.038  14.725  24.215  0.00  0.00    +0.000 A 
ATOM     32  C   UNL     1      -1.282  13.925  23.358  0.00  0.00    +0.000 A 
ENDBRANCH  26  27
ENDBRANCH   7  26
TORSDOF 3
ENDMDL
MODEL 3
REMARK VINA RESULT:      -7.9      3.856      7.293
REMARK  Name = 
REMARK  3 active torsions:
REMARK  status: ('A' for Active; 'I' for Inactive)
REMARK    1  A    between atoms: C_2  and  C_3
REMARK    2  A    between atoms: N_9  and  C_10
REMARK    3  A    between atoms: C_10  and  C_11
REMARK                            x       y       z     vdW  Elec       q    Type
REMARK                         _______ _______ _______ _____ _____    ______ ____
ROOT
ATOM      1  C   UNL     1       1.960  14.016  19.826  0.00  0.00    +0.000 A 
ATOM      2  C   UNL     1       2.507  13.223  18.819  0.00  0.00    +0.000 A 
ATOM      3  C   UNL     1       1.907  12.006  18.470  0.00  0.00    +0.000 A 
ATOM      4  C   UNL     1       0.701  11.613  19.053  0.00  0.00    +0.000 A 
ATOM      5  C   UNL     1       0.087  12.467  19.977  0.00  0.00    +0.000 A 
ATOM      6  C   UNL     1       0.711  13.660  20.363  0.00  0.00    +0.000 A 
ATOM      7  N   UNL     1      -1.166  12.121  20.534  0.00  0.00    +0.000 N 
ATOM      8  C   UNL     1      -2.335  12.100  19.783  0.00  0.00    +0.000 C 
ATOM      9  O   UNL     1      -3.397  12.517  20.248  0.00  0.00    +0.000 OA
ATOM     10  C   UNL     1      -2.395  11.437  18.446  0.00  0.00    +0.000 A 
ATOM     11  C   UNL     1      -3.605  11.644  17.742  0.00  0.00    +0.000 A 
ATOM     12  C   UNL     1      -3.925  10.909  16.603  0.00  0.00    +0.000 A 
ATOM     13  C   UNL     1      -3.030   9.965  16.127  0.00  0.00    +0.000 A 
ATOM     14  C   UNL     1      -1.818   9.768  16.789  0.00  0.00    +0.000 A 
ATOM     15  C   UNL     1      -1.480  10.491  17.953  0.00  0.00    +0.000 A 
ATOM     16  S   UNL     1       0.030   9.968  18.801  0.00  0.00    +0.000 S 
ATOM     17  O   UNL     1       0.949   9.257  17.742  0.00  0.00    +0.000 OA
ENDROOT
BRANCH   1  19
ATOM     18  O   UNL     1       3.796  15.133  20.729  0.00  0.00    +0.000 OA
ATOM     19  C   UNL     1       2.647  15.256  20.323  0.00  0.00    +0.000 C 
ATOM     20  N   UNL     1       1.981  16.488  20.293  0.00  0.00    +0.000 N 
ATOM     21  C   UNL     1       2.638  17.676  20.844  0.00  0.00    +0.000 C 
ATOM     22  C   UNL     1       1.730  18.389  21.851  0.00  0.00    +0.000 C 
ATOM     23  C   UNL     1       0.318  18.629  21.308  0.00  0.00    +0.000 C 
ATOM     24  C   UNL     1      -0.264  17.367  20.669  0.00  0.00    +0.000 C 
ATOM     25  C   UNL     1       0.708  16.792  19.641  0.00  0.00    +0.000 C 
ENDBRANCH   1  19
BRANCH   7  26
ATOM     26  C   UNL     1      -1.219  11.596  21.899  0.00  0.00    +0.000 C 
BRANCH  26  27
ATOM     27  C   UNL     1      -1.845  12.514  22.909  0.00  0.00    +0.000 A 
ATOM     28  C   UNL     1      -3.083  12.189  23.480  0.00  0.00    +0.000 A 
ATOM     29  C   UNL     1      -3.722  13.071  24.345  0.00  0.00    +0.000 A 
ATOM     30  C   UNL     1      -3.110  14.276  24.674  0.00  0.00    +0.000 A 
ATOM     31  C   UNL     1      -1.854  14.589  24.156  0.00  0.00    +0.000 A 
ATOM     32  C   UNL     1      -1.220  13.711  23.276  0.00  0.00    +0.000 A 
ENDBRANCH  26  27
ENDBRANCH   7  26
TORSDOF 3
ENDMDL
MODEL 4
REMARK VINA RESULT:      -7.8      3.464      6.535
REMARK  Name = 
REMARK  3 active torsions:
REMARK  status: ('A' for Active; 'I' for Inactive)
REMARK    1  A    between atoms: C_2  and  C_3
REMARK    2  A    between atoms: N_9  and  C_10
REMARK    3  A    between atoms: C_10  and  C_11
REMARK                            x       y       z     vdW  Elec       q    Type
REMARK                         _______ _______ _______ _____ _____    ______ ____
ROOT
ATOM      1  C   UNL     1      -1.640  12.959  20.221  0.00  0.00    +0.000 A 
ATOM      2  C   UNL     1      -1.613  14.256  20.731  0.00  0.00    +0.000 A 
ATOM      3  C   UNL     1      -2.801  14.983  20.885  0.00  0.00    +0.000 A 
ATOM      4  C   UNL     1      -4.038  14.390  20.624  0.00  0.00    +0.000 A 
ATOM      5  C   UNL     1      -4.075  13.048  20.228  0.00  0.00    +0.000 A 
ATOM      6  C   UNL     1      -2.885  12.336  20.026  0.00  0.00    +0.000 A 
ATOM      7  N   UNL     1      -5.317  12.407  20.019  0.00  0.00    +0.000 N 
ATOM      8  C   UNL     1      -6.191  12.118  21.061  0.00  0.00    +0.000 C 
ATOM      9  O   UNL     1      -6.810  11.054  21.094  0.00  0.00    +0.000 OA
ATOM     10  C   UNL     1      -6.536  13.136  22.098  0.00  0.00    +0.000 A 
ATOM     11  C   UNL     1      -7.307  12.639  23.175  0.00  0.00    +0.000 A 
ATOM     12  C   UNL     1      -7.917  13.489  24.094  0.00  0.00    +0.000 A 
ATOM     13  C   UNL     1      -7.750  14.858  23.971  0.00  0.00    +0.000 A 
ATOM     14  C   UNL     1      -6.968  15.367  22.934  0.00  0.00    +0.000 A 
ATOM     15  C   UNL     1      -6.353  14.525  21.983  0.00  0.00    +0.000 A 
ATOM     16  S   UNL     1      -5.551  15.354  20.590  0.00  0.00    +0.000 S 
ATOM     17  O   UNL     1      -5.176  16.809  21.054  0.00  0.00    +0.000 OA
ENDROOT
BRANCH   1  19
ATOM     18  O   UNL     1       0.135  12.395  18.819  0.00  0.00    +0.000 OA
ATOM     19  C   UNL     1      -0.382  12.199  19.912  0.00  0.00    +0.000 C 
ATOM     20  N   UNL     1       0.162  11.325  20.862  0.00  0.00    +0.000 N 
ATOM     21  C   UNL     1       1.351  10.540  20.522  0.00  0.00    +0.000 C 
ATOM     22  C   UNL     1       1.128   9.052  20.810  0.00  0.00    +0.000 C 
ATOM     23  C   UNL     1       0.570   8.799  22.215  0.00  0.00    +0.000 C 
ATOM     24  C   UNL     1      -0.611   9.719  22.528  0.00  0.00    +0.000 C 
ATOM     25  C   UNL     1      -0.238  11.175  22.261  0.00  0.00    +0.000 C 
ENDBRANCH   1  19
BRANCH   7  26
ATOM     26  C   UNL     1      -5.789  12.194  18.651  0.00  0.00    +0.000 C 
BRANCH  26  27
ATOM     27  C   UNL     1      -4.883  11.364  17.788  0.00  0.00    +0.000 A 
ATOM     28  C   UNL     1      -4.363  10.156  18.276  0.00  0.00    +0.000 A 
ATOM     29  C   UNL     1      -3.449   9.421  17.528  0.00  0.00    +0.000 A 
ATOM     30  C   UNL     1      -3.069   9.872  16.268  0.00  0.00    +0.000 A 
ATOM     31  C   UNL     1      -3.619  11.044  15.749  0.00  0.00    +0.000 A 
ATOM     32  C   UNL     1      -4.525  11.789  16.505  0.00  0.00    +0.000 A 
ENDBRANCH  26  27
ENDBRANCH   7  26
TORSDOF 3
ENDMDL
MODEL 5
REMARK VINA RESULT:      -7.7      3.605      6.312
REMARK  Name = 
REMARK  3 active torsions:
REMARK  status: ('A' for Active; 'I' for Inactive)
REMARK    1  A    between atoms: C_2  and  C_3
REMARK    2  A    between atoms: N_9  and  C_10
REMARK    3  A    between atoms: C_10  and  C_11
REMARK                            x       y       z     vdW  Elec       q    Type
REMARK                         _______ _______ _______ _____ _____    ______ ____
ROOT
ATOM      1  C   UNL     1      -4.391  12.370  19.555  0.00  0.00    +0.000 A 
ATOM      2  C   UNL     1      -5.408  12.583  20.484  0.00  0.00    +0.000 A 
ATOM      3  C   UNL     1      -5.115  12.664  21.852  0.00  0.00    +0.000 A 
ATOM      4  C   UNL     1      -3.793  12.630  22.300  0.00  0.00    +0.000 A 
ATOM      5  C   UNL     1      -2.761  12.538  21.357  0.00  0.00    +0.000 A 
ATOM      6  C   UNL     1      -3.057  12.407  19.995  0.00  0.00    +0.000 A 
ATOM      7  N   UNL     1      -1.413  12.566  21.781  0.00  0.00    +0.000 N 
ATOM      8  C   UNL     1      -0.821  13.706  22.310  0.00  0.00    +0.000 C 
ATOM      9  O   UNL     1       0.335  14.016  22.020  0.00  0.00    +0.000 OA
ATOM     10  C   UNL     1      -1.496  14.521  23.365  0.00  0.00    +0.000 A 
ATOM     11  C   UNL     1      -0.839  15.734  23.679  0.00  0.00    +0.000 A 
ATOM     12  C   UNL     1      -1.190  16.490  24.796  0.00  0.00    +0.000 A 
ATOM     13  C   UNL     1      -2.223  16.060  25.612  0.00  0.00    +0.000 A 
ATOM     14  C   UNL     1      -2.904  14.883  25.301  0.00  0.00    +0.000 A 
ATOM     15  C   UNL     1      -2.556  14.094  24.184  0.00  0.00    +0.000 A 
ATOM     16  S   UNL     1      -3.397  12.499  24.046  0.00  0.00    +0.000 S 
ATOM     17  O   UNL     1      -4.755  12.608  24.831  0.00  0.00    +0.000 OA
ENDROOT
BRANCH   1  19
ATOM     18  O   UNL     1      -5.796  12.448  17.696  0.00  0.00    +0.000 OA
ATOM     19  C   UNL     1      -4.680  12.142  18.099  0.00  0.00    +0.000 C 
ATOM     20  N   UNL     1      -3.690  11.615  17.260  0.00  0.00    +0.000 N 
ATOM     21  C   UNL     1      -4.007  11.334  15.858  0.00  0.00    +0.000 C 
ATOM     22  C   UNL     1      -3.619   9.900  15.484  0.00  0.00    +0.000 C 
ATOM     23  C   UNL     1      -2.187   9.547  15.903  0.00  0.00    +0.000 C 
ATOM     24  C   UNL     1      -1.906   9.953  17.350  0.00  0.00    +0.000 C 
ATOM     25  C   UNL     1      -2.275  11.417  17.575  0.00  0.00    +0.000 C 
ENDBRANCH   1  19
BRANCH   7  26
ATOM     26  C   UNL     1      -0.656  11.314  21.834  0.00  0.00    +0.000 C 
BRANCH  26  27
ATOM     27  C   UNL     1       0.106  10.979  20.585  0.00  0.00    +0.000 A 
ATOM     28  C   UNL     1       0.375   9.641  20.266  0.00  0.00    +0.000 A 
ATOM     29  C   UNL     1       1.160   9.316  19.164  0.00  0.00    +0.000 A 
ATOM     30  C   UNL     1       1.657  10.328  18.351  0.00  0.00    +0.000 A 
ATOM     31  C   UNL     1       1.353  11.661  18.626  0.00  0.00    +0.000 A 
ATOM     32  C   UNL     1       0.579  11.988  19.739  0.00  0.00    +0.000 A 
ENDBRANCH  26  27
ENDBRANCH   7  26
TORSDOF 3
ENDMDL
MODEL 6
REMARK VINA RESULT:      -7.6      6.623     10.554
REMARK  Name = 
REMARK  3 active torsions:
REMARK  status: ('A' for Active; 'I' for Inactive)
REMARK    1  A    between atoms: C_2  and  C_3
REMARK    2  A    between atoms: N_9  and  C_10
REMARK    3  A    between atoms: C_10  and  C_11
REMARK                            x       y       z     vdW  Elec       q    Type
REMARK                         _______ _______ _______ _____ _____    ______ ____
ROOT
ATOM      1  C   UNL     1       5.623  16.275  19.652  0.00  0.00    +0.000 A 
ATOM      2  C   UNL     1       6.320  17.071  18.744  0.00  0.00    +0.000 A 
ATOM      3  C   UNL     1       7.714  16.975  18.642  0.00  0.00    +0.000 A 
ATOM      4  C   UNL     1       8.419  16.017  19.374  0.00  0.00    +0.000 A 
ATOM      5  C   UNL     1       7.706  15.135  20.196  0.00  0.00    +0.000 A 
ATOM      6  C   UNL     1       6.318  15.263  20.335  0.00  0.00    +0.000 A 
ATOM      7  N   UNL     1       8.389  14.116  20.897  0.00  0.00    +0.000 N 
ATOM      8  C   UNL     1       8.978  13.034  20.254  0.00  0.00    +0.000 C 
ATOM      9  O   UNL     1       8.912  11.900  20.729  0.00  0.00    +0.000 OA
ATOM     10  C   UNL     1       9.841  13.215  19.049  0.00  0.00    +0.000 A 
ATOM     11  C   UNL     1      10.230  12.009  18.419  0.00  0.00    +0.000 A 
ATOM     12  C   UNL     1      11.221  11.979  17.440  0.00  0.00    +0.000 A 
ATOM     13  C   UNL     1      11.831  13.160  17.052  0.00  0.00    +0.000 A 
ATOM     14  C   UNL     1      11.440  14.364  17.640  0.00  0.00    +0.000 A 
ATOM     15  C   UNL     1      10.449  14.415  18.643  0.00  0.00    +0.000 A 
ATOM     16  S   UNL     1      10.212  16.021  19.442  0.00  0.00    +0.000 S 
ATOM     17  O   UNL     1      10.705  17.128  18.440  0.00  0.00    +0.000 OA
ENDROOT
BRANCH   1  19
ATOM     18  O   UNL     1       3.809  17.270  20.726  0.00  0.00    +0.000 OA
ATOM     19  C   UNL     1       4.150  16.443  19.888  0.00  0.00    +0.000 C 
ATOM     20  N   UNL     1       3.229  15.685  19.154  0.00  0.00    +0.000 N 
ATOM     21  C   UNL     1       1.798  15.810  19.443  0.00  0.00    +0.000 C 
ATOM     22  C   UNL     1       1.163  14.437  19.679  0.00  0.00    +0.000 C 
ATOM     23  C   UNL     1       1.510  13.427  18.579  0.00  0.00    +0.000 C 
ATOM     24  C   UNL     1       3.009  13.421  18.272  0.00  0.00    +0.000 C 
ATOM     25  C   UNL     1       3.503  14.838  17.994  0.00  0.00    +0.000 C 
ENDBRANCH   1  19
BRANCH   7  26
ATOM     26  C   UNL     1       8.645  14.284  22.328  0.00  0.00    +0.000 C 
BRANCH  26  27
ATOM     27  C   UNL     1       7.903  13.333  23.222  0.00  0.00    +0.000 A 
ATOM     28  C   UNL     1       8.565  12.714  24.291  0.00  0.00    +0.000 A 
ATOM     29  C   UNL     1       7.921  11.760  25.072  0.00  0.00    +0.000 A 
ATOM     30  C   UNL     1       6.593  11.439  24.810  0.00  0.00    +0.000 A 
ATOM     31  C   UNL     1       5.906  12.085  23.783  0.00  0.00    +0.000 A 
ATOM     32  C   UNL     1       6.557  13.031  22.991  0.00  0.00    +0.000 A 
ENDBRANCH  26  27
ENDBRANCH   7  26
TORSDOF 3
ENDMDL
MODEL 7
REMARK VINA RESULT:      -7.6      3.793      7.119
REMARK  Name = 
REMARK  3 active torsions:
REMARK  status: ('A' for Active; 'I' for Inactive)
REMARK    1  A    between atoms: C_2  and  C_3
REMARK    2  A    between atoms: N_9  and  C_10
REMARK    3  A    between atoms: C_10  and  C_11
REMARK                            x       y       z     vdW  Elec       q    Type
REMARK                         _______ _______ _______ _____ _____    ______ ____
ROOT
ATOM      1  C   UNL     1       2.065  13.567  19.836  0.00  0.00    +0.000 A 
ATOM      2  C   UNL     1       2.569  12.719  18.851  0.00  0.00    +0.000 A 
ATOM      3  C   UNL     1       1.873  11.559  18.489  0.00  0.00    +0.000 A 
ATOM      4  C   UNL     1       0.618  11.281  19.036  0.00  0.00    +0.000 A 
ATOM      5  C   UNL     1       0.055  12.195  19.936  0.00  0.00    +0.000 A 
ATOM      6  C   UNL     1       0.773  13.329  20.335  0.00  0.00    +0.000 A 
ATOM      7  N   UNL     1      -1.240  11.969  20.454  0.00  0.00    +0.000 N 
ATOM      8  C   UNL     1      -2.383  12.048  19.666  0.00  0.00    +0.000 C 
ATOM      9  O   UNL     1      -3.416  12.563  20.095  0.00  0.00    +0.000 OA
ATOM     10  C   UNL     1      -2.461  11.382  18.331  0.00  0.00    +0.000 A 
ATOM     11  C   UNL     1      -3.624  11.691  17.588  0.00  0.00    +0.000 A 
ATOM     12  C   UNL     1      -3.974  10.979  16.443  0.00  0.00    +0.000 A 
ATOM     13  C   UNL     1      -3.154   9.954  16.001  0.00  0.00    +0.000 A 
ATOM     14  C   UNL     1      -1.986   9.654  16.703  0.00  0.00    +0.000 A 
ATOM     15  C   UNL     1      -1.620  10.353  17.873  0.00  0.00    +0.000 A 
ATOM     16  S   UNL     1      -0.192   9.702  18.772  0.00  0.00    +0.000 S 
ATOM     17  O   UNL     1       0.692   8.902  17.746  0.00  0.00    +0.000 OA
ENDROOT
BRANCH   1  19
ATOM     18  O   UNL     1       3.693  14.522  21.205  0.00  0.00    +0.000 OA
ATOM     19  C   UNL     1       2.846  14.743  20.347  0.00  0.00    +0.000 C 
ATOM     20  N   UNL     1       2.605  16.024  19.834  0.00  0.00    +0.000 N 
ATOM     21  C   UNL     1       3.325  17.172  20.391  0.00  0.00    +0.000 C 
ATOM     22  C   UNL     1       2.355  18.286  20.796  0.00  0.00    +0.000 C 
ATOM     23  C   UNL     1       1.354  18.631  19.687  0.00  0.00    +0.000 C 
ATOM     24  C   UNL     1       0.712  17.375  19.096  0.00  0.00    +0.000 C 
ATOM     25  C   UNL     1       1.785  16.374  18.675  0.00  0.00    +0.000 C 
ENDBRANCH   1  19
BRANCH   7  26
ATOM     26  C   UNL     1      -1.384  11.462  21.819  0.00  0.00    +0.000 C 
BRANCH  26  27
ATOM     27  C   UNL     1      -1.956  12.441  22.803  0.00  0.00    +0.000 A 
ATOM     28  C   UNL     1      -1.236  13.594  23.144  0.00  0.00    +0.000 A 
ATOM     29  C   UNL     1      -1.707  14.464  24.123  0.00  0.00    +0.000 A 
ATOM     30  C   UNL     1      -2.922  14.204  24.748  0.00  0.00    +0.000 A 
ATOM     31  C   UNL     1      -3.674  13.089  24.380  0.00  0.00    +0.000 A 
ATOM     32  C   UNL     1      -3.195  12.209  23.409  0.00  0.00    +0.000 A 
ENDBRANCH  26  27
ENDBRANCH   7  26
TORSDOF 3
ENDMDL
MODEL 8
REMARK VINA RESULT:      -7.6      3.886      6.982
REMARK  Name = 
REMARK  3 active torsions:
REMARK  status: ('A' for Active; 'I' for Inactive)
REMARK    1  A    between atoms: C_2  and  C_3
REMARK    2  A    between atoms: N_9  and  C_10
REMARK    3  A    between atoms: C_10  and  C_11
REMARK                            x       y       z     vdW  Elec       q    Type
REMARK                         _______ _______ _______ _____ _____    ______ ____
ROOT
ATOM      1  C   UNL     1       2.108  14.704  19.232  0.00  0.00    +0.000 A 
ATOM      2  C   UNL     1       2.641  13.801  18.313  0.00  0.00    +0.000 A 
ATOM      3  C   UNL     1       2.126  12.501  18.215  0.00  0.00    +0.000 A 
ATOM      4  C   UNL     1       1.010  12.119  18.963  0.00  0.00    +0.000 A 
ATOM      5  C   UNL     1       0.398  13.063  19.797  0.00  0.00    +0.000 A 
ATOM      6  C   UNL     1       0.943  14.346  19.932  0.00  0.00    +0.000 A 
ATOM      7  N   UNL     1      -0.769  12.719  20.515  0.00  0.00    +0.000 N 
ATOM      8  C   UNL     1      -1.989  12.488  19.890  0.00  0.00    +0.000 C 
ATOM      9  O   UNL     1      -3.042  12.894  20.382  0.00  0.00    +0.000 OA
ATOM     10  C   UNL     1      -2.097  11.614  18.684  0.00  0.00    +0.000 A 
ATOM     11  C   UNL     1      -3.373  11.611  18.073  0.00  0.00    +0.000 A 
ATOM     12  C   UNL     1      -3.716  10.678  17.097  0.00  0.00    +0.000 A 
ATOM     13  C   UNL     1      -2.782   9.740  16.692  0.00  0.00    +0.000 A 
ATOM     14  C   UNL     1      -1.508   9.746  17.260  0.00  0.00    +0.000 A 
ATOM     15  C   UNL     1      -1.143  10.671  18.260  0.00  0.00    +0.000 A 
ATOM     16  S   UNL     1       0.471  10.408  19.035  0.00  0.00    +0.000 S 
ATOM     17  O   UNL     1       1.361   9.606  18.017  0.00  0.00    +0.000 OA
ENDROOT
BRANCH   1  19
ATOM     18  O   UNL     1       2.166  17.015  18.938  0.00  0.00    +0.000 OA
ATOM     19  C   UNL     1       2.719  16.056  19.462  0.00  0.00    +0.000 C 
ATOM     20  N   UNL     1       3.862  16.184  20.262  0.00  0.00    +0.000 N 
ATOM     21  C   UNL     1       4.486  17.499  20.423  0.00  0.00    +0.000 C 
ATOM     22  C   UNL     1       5.984  17.438  20.109  0.00  0.00    +0.000 C 
ATOM     23  C   UNL     1       6.696  16.295  20.841  0.00  0.00    +0.000 C 
ATOM     24  C   UNL     1       5.935  14.975  20.701  0.00  0.00    +0.000 C 
ATOM     25  C   UNL     1       4.474  15.156  21.104  0.00  0.00    +0.000 C 
ENDBRANCH   1  19
BRANCH   7  26
ATOM     26  C   UNL     1      -0.665  12.421  21.944  0.00  0.00    +0.000 C 
BRANCH  26  27
ATOM     27  C   UNL     1      -1.259  13.456  22.854  0.00  0.00    +0.000 A 
ATOM     28  C   UNL     1      -0.605  14.682  23.043  0.00  0.00    +0.000 A 
ATOM     29  C   UNL     1      -1.090  15.615  23.954  0.00  0.00    +0.000 A 
ATOM     30  C   UNL     1      -2.256  15.344  24.661  0.00  0.00    +0.000 A 
ATOM     31  C   UNL     1      -2.947  14.152  24.444  0.00  0.00    +0.000 A 
ATOM     32  C   UNL     1      -2.452  13.210  23.542  0.00  0.00    +0.000 A 
ENDBRANCH  26  27
ENDBRANCH   7  26
TORSDOF 3
ENDMDL
MODEL 9
REMARK VINA RESULT:      -7.5      3.870      7.217
REMARK  Name = 
REMARK  3 active torsions:
REMARK  status: ('A' for Active; 'I' for Inactive)
REMARK    1  A    between atoms: C_2  and  C_3
REMARK    2  A    between atoms: N_9  and  C_10
REMARK    3  A    between atoms: C_10  and  C_11
REMARK                            x       y       z     vdW  Elec       q    Type
REMARK                         _______ _______ _______ _____ _____    ______ ____
ROOT
ATOM      1  C   UNL     1      -1.713  13.180  20.138  0.00  0.00    +0.000 A 
ATOM      2  C   UNL     1      -0.969  14.359  20.105  0.00  0.00    +0.000 A 
ATOM      3  C   UNL     1      -1.591  15.597  20.316  0.00  0.00    +0.000 A 
ATOM      4  C   UNL     1      -2.943  15.665  20.659  0.00  0.00    +0.000 A 
ATOM      5  C   UNL     1      -3.663  14.474  20.812  0.00  0.00    +0.000 A 
ATOM      6  C   UNL     1      -3.054  13.240  20.553  0.00  0.00    +0.000 A 
ATOM      7  N   UNL     1      -5.016  14.515  21.221  0.00  0.00    +0.000 N 
ATOM      8  C   UNL     1      -5.397  14.904  22.500  0.00  0.00    +0.000 C 
ATOM      9  O   UNL     1      -6.301  14.321  23.099  0.00  0.00    +0.000 OA
ATOM     10  C   UNL     1      -4.840  16.132  23.143  0.00  0.00    +0.000 A 
ATOM     11  C   UNL     1      -5.203  16.301  24.500  0.00  0.00    +0.000 A 
ATOM     12  C   UNL     1      -4.978  17.497  25.176  0.00  0.00    +0.000 A 
ATOM     13  C   UNL     1      -4.363  18.548  24.516  0.00  0.00    +0.000 A 
ATOM     14  C   UNL     1      -3.970  18.391  23.186  0.00  0.00    +0.000 A 
ATOM     15  C   UNL     1      -4.201  17.193  22.478  0.00  0.00    +0.000 A 
ATOM     16  S   UNL     1      -3.819  17.230  20.710  0.00  0.00    +0.000 S 
ATOM     17  O   UNL     1      -2.750  18.360  20.479  0.00  0.00    +0.000 OA
ENDROOT
BRANCH   1  19
ATOM     18  O   UNL     1      -1.180  11.503  18.609  0.00  0.00    +0.000 OA
ATOM     19  C   UNL     1      -1.112  11.851  19.782  0.00  0.00    +0.000 C 
ATOM     20  N   UNL     1      -0.492  11.073  20.768  0.00  0.00    +0.000 N 
ATOM     21  C   UNL     1       0.029   9.749  20.421  0.00  0.00    +0.000 C 
ATOM     22  C   UNL     1      -0.498   8.680  21.383  0.00  0.00    +0.000 C 
ATOM     23  C   UNL     1      -0.326   9.073  22.855  0.00  0.00    +0.000 C 
ATOM     24  C   UNL     1      -0.810  10.500  23.118  0.00  0.00    +0.000 C 
ATOM     25  C   UNL     1      -0.163  11.473  22.136  0.00  0.00    +0.000 C 
ENDBRANCH   1  19
BRANCH   7  26
ATOM     26  C   UNL     1      -6.068  14.313  20.225  0.00  0.00    +0.000 C 
BRANCH  26  27
ATOM     27  C   UNL     1      -6.293  12.885  19.818  0.00  0.00    +0.000 A 
ATOM     28  C   UNL     1      -5.933  12.458  18.532  0.00  0.00    +0.000 A 
ATOM     29  C   UNL     1      -6.219  11.165  18.106  0.00  0.00    +0.000 A 
ATOM     30  C   UNL     1      -6.841  10.275  18.976  0.00  0.00    +0.000 A 
ATOM     31  C   UNL     1      -7.156  10.671  20.275  0.00  0.00    +0.000 A 
ATOM     32  C   UNL     1      -6.883  11.972  20.698  0.00  0.00    +0.000 A 
ENDBRANCH  26  27
ENDBRANCH   7  26
TORSDOF 3
ENDMDL
