MODEL 1
REMARK VINA RESULT:      -8.0      0.000      0.000
REMARK  Name = 
REMARK  6 active torsions:
REMARK  status: ('A' for Active; 'I' for Inactive)
REMARK    1  A    between atoms: C_1  and  C_2
REMARK    2  A    between atoms: C_5  and  N_6
REMARK    3  A    between atoms: C_7  and  C_9
REMARK    4  A    between atoms: C_9  and  C_10
REMARK    5  A    between atoms: C_14  and  C_16
REMARK    6  A    between atoms: C_23  and  C_24
REMARK                            x       y       z     vdW  Elec       q    Type
REMARK                         _______ _______ _______ _____ _____    ______ ____
ROOT
ATOM      1  C   UNL     1       2.771   3.394  19.697  0.00  0.00    +0.000 C 
ATOM      2  C   UNL     1       2.890   3.011  21.177  0.00  0.00    +0.000 C 
ATOM      3  C   UNL     1       2.214   2.199  18.873  0.00  0.00    +0.000 C 
ATOM      4  C   UNL     1       3.640   1.839  18.482  0.00  0.00    +0.000 C 
ATOM      5  N   UNL     1       4.056   3.157  18.985  0.00  0.00    +0.000 N 
ATOM      6  C   UNL     1       4.949   3.969  18.326  0.00  0.00    +0.000 C 
ATOM      7  O   UNL     1       5.354   3.620  17.211  0.00  0.00    +0.000 OA
ENDROOT
BRANCH   6   8
ATOM      8  C   UNL     1       5.380   5.321  18.922  0.00  0.00    +0.000 C 
ATOM      9  C   UNL     1       6.846   5.425  19.365  0.00  0.00    +0.000 C 
ATOM     10  C   UNL     1       7.869   5.767  18.279  0.00  0.00    +0.000 C 
ATOM     11  C   UNL     1       7.417   6.843  17.299  0.00  0.00    +0.000 C 
ATOM     12  C   UNL     1       6.014   6.581  16.785  0.00  0.00    +0.000 C 
ATOM     13  C   UNL     1       5.029   6.473  17.950  0.00  0.00    +0.000 C 
ENDBRANCH   6   8
BRANCH   1  15
ATOM     14  N   UNL     1       2.390   5.807  20.251  0.00  0.00    +0.000 N 
ATOM     15  C   UNL     1       1.961   4.745  19.468  0.00  0.00    +0.000 C 
ATOM     16  O   UNL     1       1.028   4.840  18.665  0.00  0.00    +0.000 OA
ATOM     17  H   UNL     1       3.002   5.593  21.030  0.00  0.00    +0.000 HD
BRANCH  14  22
ATOM     18  C   UNL     1       0.162  11.081  20.155  0.00  0.00    +0.000 C 
ATOM     19  C   UNL     1       0.687   9.672  20.210  0.00  0.00    +0.000 A 
ATOM     20  C   UNL     1       1.464   9.191  19.142  0.00  0.00    +0.000 A 
ATOM     21  C   UNL     1       1.977   7.895  19.159  0.00  0.00    +0.000 A 
ATOM     22  C   UNL     1       1.783   7.081  20.266  0.00  0.00    +0.000 A 
ATOM     23  C   UNL     1       1.014   7.543  21.342  0.00  0.00    +0.000 A 
ATOM     24  C   UNL     1       0.435   8.830  21.311  0.00  0.00    +0.000 A 
ATOM     25  C   UNL     1      -0.429   9.284  22.456  0.00  0.00    +0.000 C 
ENDBRANCH  14  22
ENDBRANCH   1  15
TORSDOF 3
ENDMDL
MODEL 2
REMARK VINA RESULT:      -7.9      0.365      1.409
REMARK  Name = 
REMARK  6 active torsions:
REMARK  status: ('A' for Active; 'I' for Inactive)
REMARK    1  A    between atoms: C_1  and  C_2
REMARK    2  A    between atoms: C_5  and  N_6
REMARK    3  A    between atoms: C_7  and  C_9
REMARK    4  A    between atoms: C_9  and  C_10
REMARK    5  A    between atoms: C_14  and  C_16
REMARK    6  A    between atoms: C_23  and  C_24
REMARK                            x       y       z     vdW  Elec       q    Type
REMARK                         _______ _______ _______ _____ _____    ______ ____
ROOT
ATOM      1  C   UNL     1       2.718   3.487  19.760  0.00  0.00    +0.000 C 
ATOM      2  C   UNL     1       2.763   3.139  21.253  0.00  0.00    +0.000 C 
ATOM      3  C   UNL     1       2.152   2.291  18.944  0.00  0.00    +0.000 C 
ATOM      4  C   UNL     1       3.579   1.871  18.622  0.00  0.00    +0.000 C 
ATOM      5  N   UNL     1       4.021   3.186  19.108  0.00  0.00    +0.000 N 
ATOM      6  C   UNL     1       4.970   3.949  18.467  0.00  0.00    +0.000 C 
ATOM      7  O   UNL     1       5.407   3.557  17.379  0.00  0.00    +0.000 OA
ENDROOT
BRANCH   6   8
ATOM      8  C   UNL     1       5.424   5.300  19.047  0.00  0.00    +0.000 C 
ATOM      9  C   UNL     1       6.916   5.418  19.389  0.00  0.00    +0.000 C 
ATOM     10  C   UNL     1       7.858   5.785  18.240  0.00  0.00    +0.000 C 
ATOM     11  C   UNL     1       7.326   6.864  17.305  0.00  0.00    +0.000 C 
ATOM     12  C   UNL     1       5.894   6.590  16.886  0.00  0.00    +0.000 C 
ATOM     13  C   UNL     1       4.993   6.457  18.114  0.00  0.00    +0.000 C 
ENDBRANCH   6   8
BRANCH   1  15
ATOM     14  N   UNL     1       2.286   5.885  20.343  0.00  0.00    +0.000 N 
ATOM     15  C   UNL     1       1.968   4.859  19.465  0.00  0.00    +0.000 C 
ATOM     16  O   UNL     1       1.167   4.999  18.535  0.00  0.00    +0.000 OA
ATOM     17  H   UNL     1       2.771   5.632  21.196  0.00  0.00    +0.000 HD
BRANCH  14  22
ATOM     18  C   UNL     1      -0.342  10.972  20.375  0.00  0.00    +0.000 C 
ATOM     19  C   UNL     1       0.407   9.667  20.341  0.00  0.00    +0.000 A 
ATOM     20  C   UNL     1       0.215   8.743  21.382  0.00  0.00    +0.000 A 
ATOM     21  C   UNL     1       0.882   7.519  21.382  0.00  0.00    +0.000 A 
ATOM     22  C   UNL     1       1.698   7.167  20.316  0.00  0.00    +0.000 A 
ATOM     23  C   UNL     1       1.901   8.074  19.268  0.00  0.00    +0.000 A 
ATOM     24  C   UNL     1       1.281   9.342  19.284  0.00  0.00    +0.000 A 
ATOM     25  C   UNL     1       1.555  10.317  18.172  0.00  0.00    +0.000 C 
ENDBRANCH  14  22
ENDBRANCH   1  15
TORSDOF 3
ENDMDL
MODEL 3
REMARK VINA RESULT:      -7.5      1.074      1.186
REMARK  Name = 
REMARK  6 active torsions:
REMARK  status: ('A' for Active; 'I' for Inactive)
REMARK    1  A    between atoms: C_1  and  C_2
REMARK    2  A    between atoms: C_5  and  N_6
REMARK    3  A    between atoms: C_7  and  C_9
REMARK    4  A    between atoms: C_9  and  C_10
REMARK    5  A    between atoms: C_14  and  C_16
REMARK    6  A    between atoms: C_23  and  C_24
REMARK                            x       y       z     vdW  Elec       q    Type
REMARK                         _______ _______ _______ _____ _____    ______ ____
ROOT
ATOM      1  C   UNL     1       2.439   3.825  19.742  0.00  0.00    +0.000 C 
ATOM      2  C   UNL     1       2.685   3.828  21.256  0.00  0.00    +0.000 C 
ATOM      3  C   UNL     1       1.534   2.625  19.344  0.00  0.00    +0.000 C 
ATOM      4  C   UNL     1       2.785   1.845  18.964  0.00  0.00    +0.000 C 
ATOM      5  N   UNL     1       3.532   3.109  19.031  0.00  0.00    +0.000 N 
ATOM      6  C   UNL     1       4.472   3.481  18.098  0.00  0.00    +0.000 C 
ATOM      7  O   UNL     1       4.634   2.765  17.103  0.00  0.00    +0.000 OA
ENDROOT
BRANCH   6   8
ATOM      8  C   UNL     1       5.255   4.798  18.243  0.00  0.00    +0.000 C 
ATOM      9  C   UNL     1       6.785   4.676  18.239  0.00  0.00    +0.000 C 
ATOM     10  C   UNL     1       7.466   4.617  16.870  0.00  0.00    +0.000 C 
ATOM     11  C   UNL     1       6.896   5.582  15.837  0.00  0.00    +0.000 C 
ATOM     12  C   UNL     1       5.381   5.527  15.792  0.00  0.00    +0.000 C 
ATOM     13  C   UNL     1       4.794   5.817  17.174  0.00  0.00    +0.000 C 
ENDBRANCH   6   8
BRANCH   1  15
ATOM     14  N   UNL     1       2.311   6.319  19.942  0.00  0.00    +0.000 N 
ATOM     15  C   UNL     1       1.904   5.222  19.197  0.00  0.00    +0.000 C 
ATOM     16  O   UNL     1       1.185   5.321  18.199  0.00  0.00    +0.000 OA
ATOM     17  H   UNL     1       2.708   6.139  20.857  0.00  0.00    +0.000 HD
BRANCH  14  22
ATOM     18  C   UNL     1       0.927  11.743  18.737  0.00  0.00    +0.000 C 
ATOM     19  C   UNL     1       1.228  10.310  19.087  0.00  0.00    +0.000 A 
ATOM     20  C   UNL     1       1.905   9.508  18.152  0.00  0.00    +0.000 A 
ATOM     21  C   UNL     1       2.211   8.179  18.442  0.00  0.00    +0.000 A 
ATOM     22  C   UNL     1       1.909   7.648  19.688  0.00  0.00    +0.000 A 
ATOM     23  C   UNL     1       1.236   8.432  20.633  0.00  0.00    +0.000 A 
ATOM     24  C   UNL     1       0.864   9.760  20.331  0.00  0.00    +0.000 A 
ATOM     25  C   UNL     1       0.097  10.565  21.344  0.00  0.00    +0.000 C 
ENDBRANCH  14  22
ENDBRANCH   1  15
TORSDOF 3
ENDMDL
MODEL 4
REMARK VINA RESULT:      -7.3      3.723      8.411
REMARK  Name = 
REMARK  6 active torsions:
REMARK  status: ('A' for Active; 'I' for Inactive)
REMARK    1  A    between atoms: C_1  and  C_2
REMARK    2  A    between atoms: C_5  and  N_6
REMARK    3  A    between atoms: C_7  and  C_9
REMARK    4  A    between atoms: C_9  and  C_10
REMARK    5  A    between atoms: C_14  and  C_16
REMARK    6  A    between atoms: C_23  and  C_24
REMARK                            x       y       z     vdW  Elec       q    Type
REMARK                         _______ _______ _______ _____ _____    ______ ____
ROOT
ATOM      1  C   UNL     1      -0.385  11.412  21.046  0.00  0.00    +0.000 C 
ATOM      2  C   UNL     1      -1.159  11.600  22.357  0.00  0.00    +0.000 C 
ATOM      3  C   UNL     1       0.847  12.360  21.007  0.00  0.00    +0.000 C 
ATOM      4  C   UNL     1       0.030  13.340  20.177  0.00  0.00    +0.000 C 
ATOM      5  N   UNL     1      -0.953  12.267  19.970  0.00  0.00    +0.000 N 
ATOM      6  C   UNL     1      -1.546  12.010  18.756  0.00  0.00    +0.000 C 
ATOM      7  O   UNL     1      -1.169  12.648  17.767  0.00  0.00    +0.000 OA
ENDROOT
BRANCH   6   8
ATOM      8  C   UNL     1      -2.601  10.899  18.609  0.00  0.00    +0.000 C 
ATOM      9  C   UNL     1      -4.040  11.368  18.354  0.00  0.00    +0.000 C 
ATOM     10  C   UNL     1      -4.414  11.684  16.904  0.00  0.00    +0.000 C 
ATOM     11  C   UNL     1      -3.870  10.694  15.880  0.00  0.00    +0.000 C 
ATOM     12  C   UNL     1      -2.398  10.405  16.105  0.00  0.00    +0.000 C 
ATOM     13  C   UNL     1      -2.166   9.885  17.524  0.00  0.00    +0.000 C 
ENDBRANCH   6   8
BRANCH   1  15
ATOM     14  N   UNL     1       1.157   9.716  20.035  0.00  0.00    +0.000 N 
ATOM     15  C   UNL     1      -0.015   9.891  20.756  0.00  0.00    +0.000 C 
ATOM     16  O   UNL     1      -0.714   8.947  21.137  0.00  0.00    +0.000 OA
ATOM     17  H   UNL     1       1.547  10.531  19.576  0.00  0.00    +0.000 HD
BRANCH  14  22
ATOM     18  C   UNL     1       3.043   4.698  18.022  0.00  0.00    +0.000 C 
ATOM     19  C   UNL     1       2.581   6.003  18.612  0.00  0.00    +0.000 A 
ATOM     20  C   UNL     1       2.534   7.144  17.793  0.00  0.00    +0.000 A 
ATOM     21  C   UNL     1       2.103   8.369  18.299  0.00  0.00    +0.000 A 
ATOM     22  C   UNL     1       1.648   8.464  19.607  0.00  0.00    +0.000 A 
ATOM     23  C   UNL     1       1.684   7.338  20.439  0.00  0.00    +0.000 A 
ATOM     24  C   UNL     1       2.177   6.105  19.958  0.00  0.00    +0.000 A 
ATOM     25  C   UNL     1       2.254   4.923  20.885  0.00  0.00    +0.000 C 
ENDBRANCH  14  22
ENDBRANCH   1  15
TORSDOF 3
ENDMDL
MODEL 5
REMARK VINA RESULT:      -7.2      1.638      4.100
REMARK  Name = 
REMARK  6 active torsions:
REMARK  status: ('A' for Active; 'I' for Inactive)
REMARK    1  A    between atoms: C_1  and  C_2
REMARK    2  A    between atoms: C_5  and  N_6
REMARK    3  A    between atoms: C_7  and  C_9
REMARK    4  A    between atoms: C_9  and  C_10
REMARK    5  A    between atoms: C_14  and  C_16
REMARK    6  A    between atoms: C_23  and  C_24
REMARK                            x       y       z     vdW  Elec       q    Type
REMARK                         _______ _______ _______ _____ _____    ______ ____
ROOT
ATOM      1  C   UNL     1       5.387   5.902  17.035  0.00  0.00    +0.000 C 
ATOM      2  C   UNL     1       5.852   5.669  15.591  0.00  0.00    +0.000 C 
ATOM      3  C   UNL     1       6.597   6.272  17.938  0.00  0.00    +0.000 C 
ATOM      4  C   UNL     1       6.671   4.818  18.384  0.00  0.00    +0.000 C 
ATOM      5  N   UNL     1       5.342   4.621  17.788  0.00  0.00    +0.000 N 
ATOM      6  C   UNL     1       4.339   3.904  18.399  0.00  0.00    +0.000 C 
ATOM      7  O   UNL     1       4.528   3.482  19.545  0.00  0.00    +0.000 OA
ENDROOT
BRANCH   6   8
ATOM      8  C   UNL     1       2.980   3.694  17.707  0.00  0.00    +0.000 C 
ATOM      9  C   UNL     1       2.463   2.250  17.663  0.00  0.00    +0.000 C 
ATOM     10  C   UNL     1       1.720   1.748  18.903  0.00  0.00    +0.000 C 
ATOM     11  C   UNL     1       0.756   2.757  19.515  0.00  0.00    +0.000 C 
ATOM     12  C   UNL     1       1.396   4.123  19.671  0.00  0.00    +0.000 C 
ATOM     13  C   UNL     1       1.913   4.629  18.324  0.00  0.00    +0.000 C 
ENDBRANCH   6   8
BRANCH   1  15
ATOM     14  N   UNL     1       3.711   7.137  18.429  0.00  0.00    +0.000 N 
ATOM     15  C   UNL     1       4.185   6.941  17.140  0.00  0.00    +0.000 C 
ATOM     16  O   UNL     1       3.712   7.521  16.158  0.00  0.00    +0.000 OA
ATOM     17  H   UNL     1       3.998   6.471  19.136  0.00  0.00    +0.000 HD
BRANCH  14  22
ATOM     18  C   UNL     1      -0.620  10.698  19.588  0.00  0.00    +0.000 C 
ATOM     19  C   UNL     1       0.482   9.710  19.317  0.00  0.00    +0.000 A 
ATOM     20  C   UNL     1       1.147   9.753  18.079  0.00  0.00    +0.000 A 
ATOM     21  C   UNL     1       2.180   8.862  17.794  0.00  0.00    +0.000 A 
ATOM     22  C   UNL     1       2.613   7.961  18.756  0.00  0.00    +0.000 A 
ATOM     23  C   UNL     1       1.965   7.905  19.997  0.00  0.00    +0.000 A 
ATOM     24  C   UNL     1       0.876   8.758  20.277  0.00  0.00    +0.000 A 
ATOM     25  C   UNL     1       0.163   8.644  21.598  0.00  0.00    +0.000 C 
ENDBRANCH  14  22
ENDBRANCH   1  15
TORSDOF 3
ENDMDL
MODEL 6
REMARK VINA RESULT:      -7.2      1.058      1.755
REMARK  Name = 
REMARK  6 active torsions:
REMARK  status: ('A' for Active; 'I' for Inactive)
REMARK    1  A    between atoms: C_1  and  C_2
REMARK    2  A    between atoms: C_5  and  N_6
REMARK    3  A    between atoms: C_7  and  C_9
REMARK    4  A    between atoms: C_9  and  C_10
REMARK    5  A    between atoms: C_14  and  C_16
REMARK    6  A    between atoms: C_23  and  C_24
REMARK                            x       y       z     vdW  Elec       q    Type
REMARK                         _______ _______ _______ _____ _____    ______ ____
ROOT
ATOM      1  C   UNL     1       2.259   4.225  20.003  0.00  0.00    +0.000 C 
ATOM      2  C   UNL     1       2.479   3.979  21.502  0.00  0.00    +0.000 C 
ATOM      3  C   UNL     1       1.214   3.220  19.440  0.00  0.00    +0.000 C 
ATOM      4  C   UNL     1       2.361   2.348  18.948  0.00  0.00    +0.000 C 
ATOM      5  N   UNL     1       3.263   3.483  19.194  0.00  0.00    +0.000 N 
ATOM      6  C   UNL     1       4.257   3.861  18.322  0.00  0.00    +0.000 C 
ATOM      7  O   UNL     1       4.342   3.280  17.234  0.00  0.00    +0.000 OA
ENDROOT
BRANCH   6   8
ATOM      8  C   UNL     1       5.199   5.032  18.653  0.00  0.00    +0.000 C 
ATOM      9  C   UNL     1       6.695   4.696  18.717  0.00  0.00    +0.000 C 
ATOM     10  C   UNL     1       7.453   4.681  17.388  0.00  0.00    +0.000 C 
ATOM     11  C   UNL     1       7.091   5.818  16.439  0.00  0.00    +0.000 C 
ATOM     12  C   UNL     1       5.588   5.982  16.308  0.00  0.00    +0.000 C 
ATOM     13  C   UNL     1       4.954   6.210  17.681  0.00  0.00    +0.000 C 
ENDBRANCH   6   8
BRANCH   1  15
ATOM     14  N   UNL     1       1.804   6.563  20.780  0.00  0.00    +0.000 N 
ATOM     15  C   UNL     1       1.915   5.742  19.667  0.00  0.00    +0.000 C 
ATOM     16  O   UNL     1       1.756   6.154  18.514  0.00  0.00    +0.000 OA
ATOM     17  H   UNL     1       1.730   6.112  21.685  0.00  0.00    +0.000 HD
BRANCH  14  22
ATOM     18  C   UNL     1       0.120  12.035  20.775  0.00  0.00    +0.000 C 
ATOM     19  C   UNL     1       0.619  10.616  20.737  0.00  0.00    +0.000 A 
ATOM     20  C   UNL     1       0.483   9.815  21.884  0.00  0.00    +0.000 A 
ATOM     21  C   UNL     1       0.925   8.493  21.886  0.00  0.00    +0.000 A 
ATOM     22  C   UNL     1       1.445   7.927  20.731  0.00  0.00    +0.000 A 
ATOM     23  C   UNL     1       1.586   8.708  19.577  0.00  0.00    +0.000 A 
ATOM     24  C   UNL     1       1.202  10.066  19.578  0.00  0.00    +0.000 A 
ATOM     25  C   UNL     1       1.411  10.899  18.343  0.00  0.00    +0.000 C 
ENDBRANCH  14  22
ENDBRANCH   1  15
TORSDOF 3
ENDMDL
MODEL 7
REMARK VINA RESULT:      -7.0      0.783      1.135
REMARK  Name = 
REMARK  6 active torsions:
REMARK  status: ('A' for Active; 'I' for Inactive)
REMARK    1  A    between atoms: C_1  and  C_2
REMARK    2  A    between atoms: C_5  and  N_6
REMARK    3  A    between atoms: C_7  and  C_9
REMARK    4  A    between atoms: C_9  and  C_10
REMARK    5  A    between atoms: C_14  and  C_16
REMARK    6  A    between atoms: C_23  and  C_24
REMARK                            x       y       z     vdW  Elec       q    Type
REMARK                         _______ _______ _______ _____ _____    ______ ____
ROOT
ATOM      1  C   UNL     1       2.907   3.682  19.156  0.00  0.00    +0.000 C 
ATOM      2  C   UNL     1       3.468   3.478  20.569  0.00  0.00    +0.000 C 
ATOM      3  C   UNL     1       2.092   2.434  18.713  0.00  0.00    +0.000 C 
ATOM      4  C   UNL     1       3.318   1.934  17.963  0.00  0.00    +0.000 C 
ATOM      5  N   UNL     1       3.902   3.273  18.129  0.00  0.00    +0.000 N 
ATOM      6  C   UNL     1       4.569   3.935  17.124  0.00  0.00    +0.000 C 
ATOM      7  O   UNL     1       4.601   3.425  15.999  0.00  0.00    +0.000 OA
ENDROOT
BRANCH   6   8
ATOM      8  C   UNL     1       5.197   5.319  17.368  0.00  0.00    +0.000 C 
ATOM      9  C   UNL     1       5.476   5.682  18.833  0.00  0.00    +0.000 C 
ATOM     10  C   UNL     1       6.788   5.167  19.431  0.00  0.00    +0.000 C 
ATOM     11  C   UNL     1       7.992   5.273  18.502  0.00  0.00    +0.000 C 
ATOM     12  C   UNL     1       7.679   4.746  17.114  0.00  0.00    +0.000 C 
ATOM     13  C   UNL     1       6.479   5.485  16.519  0.00  0.00    +0.000 C 
ENDBRANCH   6   8
BRANCH   1  15
ATOM     14  N   UNL     1       2.459   6.028  19.910  0.00  0.00    +0.000 N 
ATOM     15  C   UNL     1       2.101   5.045  18.998  0.00  0.00    +0.000 C 
ATOM     16  O   UNL     1       1.229   5.214  18.141  0.00  0.00    +0.000 OA
ATOM     17  H   UNL     1       3.014   5.743  20.708  0.00  0.00    +0.000 HD
BRANCH  14  22
ATOM     18  C   UNL     1       0.166  11.271  20.120  0.00  0.00    +0.000 C 
ATOM     19  C   UNL     1       0.710   9.868  20.096  0.00  0.00    +0.000 A 
ATOM     20  C   UNL     1       1.442   9.439  18.976  0.00  0.00    +0.000 A 
ATOM     21  C   UNL     1       1.971   8.151  18.920  0.00  0.00    +0.000 A 
ATOM     22  C   UNL     1       1.838   7.292  20.002  0.00  0.00    +0.000 A 
ATOM     23  C   UNL     1       1.113   7.702  21.129  0.00  0.00    +0.000 A 
ATOM     24  C   UNL     1       0.519   8.981  21.174  0.00  0.00    +0.000 A 
ATOM     25  C   UNL     1      -0.298   9.380  22.374  0.00  0.00    +0.000 C 
ENDBRANCH  14  22
ENDBRANCH   1  15
TORSDOF 3
ENDMDL
MODEL 8
REMARK VINA RESULT:      -7.0      1.659      4.169
REMARK  Name = 
REMARK  6 active torsions:
REMARK  status: ('A' for Active; 'I' for Inactive)
REMARK    1  A    between atoms: C_1  and  C_2
REMARK    2  A    between atoms: C_5  and  N_6
REMARK    3  A    between atoms: C_7  and  C_9
REMARK    4  A    between atoms: C_9  and  C_10
REMARK    5  A    between atoms: C_14  and  C_16
REMARK    6  A    between atoms: C_23  and  C_24
REMARK                            x       y       z     vdW  Elec       q    Type
REMARK                         _______ _______ _______ _____ _____    ______ ____
ROOT
ATOM      1  C   UNL     1       5.557   5.919  16.821  0.00  0.00    +0.000 C 
ATOM      2  C   UNL     1       5.268   5.798  15.319  0.00  0.00    +0.000 C 
ATOM      3  C   UNL     1       7.090   5.935  17.076  0.00  0.00    +0.000 C 
ATOM      4  C   UNL     1       7.025   4.446  17.389  0.00  0.00    +0.000 C 
ATOM      5  N   UNL     1       5.563   4.579  17.467  0.00  0.00    +0.000 N 
ATOM      6  C   UNL     1       4.802   3.986  18.447  0.00  0.00    +0.000 C 
ATOM      7  O   UNL     1       5.378   3.387  19.362  0.00  0.00    +0.000 OA
ENDROOT
BRANCH   6   8
ATOM      8  C   UNL     1       3.269   4.125  18.454  0.00  0.00    +0.000 C 
ATOM      9  C   UNL     1       2.497   3.110  17.600  0.00  0.00    +0.000 C 
ATOM     10  C   UNL     1       2.208   1.751  18.241  0.00  0.00    +0.000 C 
ATOM     11  C   UNL     1       1.780   1.818  19.703  0.00  0.00    +0.000 C 
ATOM     12  C   UNL     1       2.691   2.719  20.514  0.00  0.00    +0.000 C 
ATOM     13  C   UNL     1       2.736   4.122  19.906  0.00  0.00    +0.000 C 
ENDBRANCH   6   8
BRANCH   1  15
ATOM     14  N   UNL     1       3.466   6.884  17.808  0.00  0.00    +0.000 N 
ATOM     15  C   UNL     1       4.795   7.139  17.504  0.00  0.00    +0.000 C 
ATOM     16  O   UNL     1       5.339   8.222  17.739  0.00  0.00    +0.000 OA
ATOM     17  H   UNL     1       3.042   6.065  17.389  0.00  0.00    +0.000 HD
BRANCH  14  22
ATOM     18  C   UNL     1      -0.003  10.950  19.862  0.00  0.00    +0.000 C 
ATOM     19  C   UNL     1       0.870   9.833  19.358  0.00  0.00    +0.000 A 
ATOM     20  C   UNL     1       1.340   9.879  18.034  0.00  0.00    +0.000 A 
ATOM     21  C   UNL     1       2.159   8.869  17.533  0.00  0.00    +0.000 A 
ATOM     22  C   UNL     1       2.578   7.834  18.357  0.00  0.00    +0.000 A 
ATOM     23  C   UNL     1       2.123   7.772  19.680  0.00  0.00    +0.000 A 
ATOM     24  C   UNL     1       1.242   8.753  20.184  0.00  0.00    +0.000 A 
ATOM     25  C   UNL     1       0.726   8.637  21.592  0.00  0.00    +0.000 C 
ENDBRANCH  14  22
ENDBRANCH   1  15
TORSDOF 3
ENDMDL
MODEL 9
REMARK VINA RESULT:      -7.0      3.548      8.310
REMARK  Name = 
REMARK  6 active torsions:
REMARK  status: ('A' for Active; 'I' for Inactive)
REMARK    1  A    between atoms: C_1  and  C_2
REMARK    2  A    between atoms: C_5  and  N_6
REMARK    3  A    between atoms: C_7  and  C_9
REMARK    4  A    between atoms: C_9  and  C_10
REMARK    5  A    between atoms: C_14  and  C_16
REMARK    6  A    between atoms: C_23  and  C_24
REMARK                            x       y       z     vdW  Elec       q    Type
REMARK                         _______ _______ _______ _____ _____    ______ ____
ROOT
ATOM      1  C   UNL     1       0.559  10.358  20.009  0.00  0.00    +0.000 C 
ATOM      2  C   UNL     1       0.197   9.726  21.360  0.00  0.00    +0.000 C 
ATOM      3  C   UNL     1       1.472  11.598  20.220  0.00  0.00    +0.000 C 
ATOM      4  C   UNL     1       0.242  12.487  20.106  0.00  0.00    +0.000 C 
ATOM      5  N   UNL     1      -0.488  11.324  19.581  0.00  0.00    +0.000 N 
ATOM      6  C   UNL     1      -1.346  11.392  18.509  0.00  0.00    +0.000 C 
ATOM      7  O   UNL     1      -1.443  12.461  17.895  0.00  0.00    +0.000 OA
ENDROOT
BRANCH   6   8
ATOM      8  C   UNL     1      -2.116  10.148  18.029  0.00  0.00    +0.000 C 
ATOM      9  C   UNL     1      -3.624  10.140  18.313  0.00  0.00    +0.000 C 
ATOM     10  C   UNL     1      -4.517  10.872  17.308  0.00  0.00    +0.000 C 
ATOM     11  C   UNL     1      -4.136  10.656  15.848  0.00  0.00    +0.000 C 
ATOM     12  C   UNL     1      -2.648  10.840  15.623  0.00  0.00    +0.000 C 
ATOM     13  C   UNL     1      -1.850   9.899  16.526  0.00  0.00    +0.000 C 
ENDBRANCH   6   8
BRANCH   1  15
ATOM     14  N   UNL     1       1.763   8.206  19.562  0.00  0.00    +0.000 N 
ATOM     15  C   UNL     1       1.158   9.307  18.973  0.00  0.00    +0.000 C 
ATOM     16  O   UNL     1       1.093   9.460  17.750  0.00  0.00    +0.000 OA
ATOM     17  H   UNL     1       1.968   8.263  20.553  0.00  0.00    +0.000 HD
BRANCH  14  22
ATOM     18  C   UNL     1       4.386   3.866  16.904  0.00  0.00    +0.000 C 
ATOM     19  C   UNL     1       3.698   5.043  17.541  0.00  0.00    +0.000 A 
ATOM     20  C   UNL     1       2.680   4.810  18.482  0.00  0.00    +0.000 A 
ATOM     21  C   UNL     1       2.026   5.874  19.102  0.00  0.00    +0.000 A 
ATOM     22  C   UNL     1       2.417   7.180  18.847  0.00  0.00    +0.000 A 
ATOM     23  C   UNL     1       3.430   7.432  17.913  0.00  0.00    +0.000 A 
ATOM     24  C   UNL     1       4.059   6.369  17.231  0.00  0.00    +0.000 A 
ATOM     25  C   UNL     1       5.109   6.667  16.196  0.00  0.00    +0.000 C 
ENDBRANCH  14  22
ENDBRANCH   1  15
TORSDOF 3
ENDMDL
