MODEL 1
REMARK VINA RESULT:      -9.5      0.000      0.000
REMARK  Name = 
REMARK  3 active torsions:
REMARK  status: ('A' for Active; 'I' for Inactive)
REMARK    1  A    between atoms: C_1  and  C_2
REMARK    2  A    between atoms: C_8  and  N_9
REMARK    3  A    between atoms: C_10  and  C_11
REMARK                            x       y       z     vdW  Elec       q    Type
REMARK                         _______ _______ _______ _____ _____    ______ ____
ROOT
ATOM      1  C   UNL     1       4.088   2.334  19.711  0.00  0.00    +0.000 C 
ATOM      2  C   UNL     1       3.732   3.720  19.246  0.00  0.00    +0.000 A 
ATOM      3  C   UNL     1       4.090   4.155  17.973  0.00  0.00    +0.000 A 
ATOM      4  C   UNL     1       3.743   5.443  17.571  0.00  0.00    +0.000 A 
ATOM      5  C   UNL     1       3.024   6.319  18.416  0.00  0.00    +0.000 A 
ATOM      6  C   UNL     1       2.650   7.619  18.038  0.00  0.00    +0.000 A 
ATOM      7  C   UNL     1       1.873   8.428  18.912  0.00  0.00    +0.000 A 
ATOM      8  C   UNL     1       1.337   9.764  18.828  0.00  0.00    +0.000 A 
ATOM      9  C   UNL     1       0.511  10.148  19.903  0.00  0.00    +0.000 A 
ATOM     10  S   UNL     1       0.572   8.918  21.095  0.00  0.00    +0.000 S 
ATOM     11  C   UNL     1       1.540   7.861  20.131  0.00  0.00    +0.000 A 
ATOM     12  N   UNL     1       1.906   6.635  20.555  0.00  0.00    +0.000 NA
ATOM     13  C   UNL     1       2.636   5.888  19.690  0.00  0.00    +0.000 A 
ATOM     14  C   UNL     1       3.014   4.598  20.079  0.00  0.00    +0.000 A 
ENDROOT
BRANCH   9  15
ATOM     15  C   UNL     1      -0.179  11.464  20.034  0.00  0.00    +0.000 C 
ATOM     16  O   UNL     1       0.401  12.312  20.740  0.00  0.00    +0.000 OA
ATOM     17  N   UNL     1      -1.484  11.871  19.574  0.00  0.00    +0.000 N 
ATOM     18  C   UNL     1      -2.038  12.972  20.399  0.00  0.00    +0.000 C 
ATOM     19  C   UNL     1      -3.513  12.780  20.635  0.00  0.00    +0.000 C 
ATOM     20  O   UNL     1      -4.038  12.707  21.740  0.00  0.00    +0.000 OA
ATOM     21  N   UNL     1      -4.237  12.757  19.472  0.00  0.00    +0.000 N 
ATOM     22  C   UNL     1      -3.715  11.908  18.472  0.00  0.00    +0.000 A 
ATOM     23  C   UNL     1      -4.656  11.537  17.503  0.00  0.00    +0.000 A 
ATOM     24  C   UNL     1      -4.221  10.886  16.371  0.00  0.00    +0.000 A 
ATOM     25  C   UNL     1      -2.848  10.700  16.199  0.00  0.00    +0.000 A 
ATOM     26  C   UNL     1      -1.910  11.002  17.227  0.00  0.00    +0.000 A 
ATOM     27  C   UNL     1      -2.335  11.532  18.441  0.00  0.00    +0.000 A 
ATOM     28  H   UNL     1      -4.256  13.695  19.064  0.00  0.00    +0.000 HD
ENDBRANCH   9  15
BRANCH   8  29
ATOM     29  N   UNL     1       1.647  10.553  17.761  0.00  0.00    +0.000 N 
ATOM     30  H   UNL     1       1.029  10.629  16.958  0.00  0.00    +0.000 HD
ATOM     31  H   UNL     1       2.630  10.695  17.510  0.00  0.00    +0.000 HD
ENDBRANCH   8  29
TORSDOF 2
ENDMDL
MODEL 2
REMARK VINA RESULT:      -8.9      0.945      1.102
REMARK  Name = 
REMARK  3 active torsions:
REMARK  status: ('A' for Active; 'I' for Inactive)
REMARK    1  A    between atoms: C_1  and  C_2
REMARK    2  A    between atoms: C_8  and  N_9
REMARK    3  A    between atoms: C_10  and  C_11
REMARK                            x       y       z     vdW  Elec       q    Type
REMARK                         _______ _______ _______ _____ _____    ______ ____
ROOT
ATOM      1  C   UNL     1       4.508   3.559  19.068  0.00  0.00    +0.000 C 
ATOM      2  C   UNL     1       3.946   4.924  18.778  0.00  0.00    +0.000 A 
ATOM      3  C   UNL     1       4.189   5.545  17.555  0.00  0.00    +0.000 A 
ATOM      4  C   UNL     1       3.653   6.808  17.315  0.00  0.00    +0.000 A 
ATOM      5  C   UNL     1       2.856   7.474  18.274  0.00  0.00    +0.000 A 
ATOM      6  C   UNL     1       2.292   8.743  18.060  0.00  0.00    +0.000 A 
ATOM      7  C   UNL     1       1.448   9.332  19.041  0.00  0.00    +0.000 A 
ATOM      8  C   UNL     1       0.731  10.579  19.127  0.00  0.00    +0.000 A 
ATOM      9  C   UNL     1      -0.095  10.720  20.261  0.00  0.00    +0.000 A 
ATOM     10  S   UNL     1       0.183   9.385  21.298  0.00  0.00    +0.000 S 
ATOM     11  C   UNL     1       1.246   8.590  20.194  0.00  0.00    +0.000 A 
ATOM     12  N   UNL     1       1.793   7.388  20.463  0.00  0.00    +0.000 NA
ATOM     13  C   UNL     1       2.583   6.853  19.499  0.00  0.00    +0.000 A 
ATOM     14  C   UNL     1       3.149   5.594  19.724  0.00  0.00    +0.000 A 
ENDROOT
BRANCH   9  15
ATOM     15  C   UNL     1      -0.953  11.903  20.561  0.00  0.00    +0.000 C 
ATOM     16  O   UNL     1      -0.482  12.722  21.374  0.00  0.00    +0.000 OA
ATOM     17  N   UNL     1      -2.307  12.188  20.155  0.00  0.00    +0.000 N 
ATOM     18  C   UNL     1      -2.991  13.086  21.115  0.00  0.00    +0.000 C 
ATOM     19  C   UNL     1      -4.424  12.669  21.320  0.00  0.00    +0.000 C 
ATOM     20  O   UNL     1      -4.918  12.382  22.404  0.00  0.00    +0.000 OA
ATOM     21  N   UNL     1      -5.156  12.701  20.162  0.00  0.00    +0.000 N 
ATOM     22  C   UNL     1      -4.539  12.067  19.060  0.00  0.00    +0.000 A 
ATOM     23  C   UNL     1      -5.437  11.703  18.049  0.00  0.00    +0.000 A 
ATOM     24  C   UNL     1      -4.935  11.270  16.842  0.00  0.00    +0.000 A 
ATOM     25  C   UNL     1      -3.552  11.295  16.651  0.00  0.00    +0.000 A 
ATOM     26  C   UNL     1      -2.648  11.583  17.713  0.00  0.00    +0.000 A 
ATOM     27  C   UNL     1      -3.122  11.888  18.984  0.00  0.00    +0.000 A 
ATOM     28  H   UNL     1      -5.306  13.673  19.881  0.00  0.00    +0.000 HD
ENDBRANCH   9  15
BRANCH   8  29
ATOM     29  N   UNL     1       0.885  11.518  18.153  0.00  0.00    +0.000 N 
ATOM     30  H   UNL     1       0.098  11.848  17.601  0.00  0.00    +0.000 HD
ATOM     31  H   UNL     1       1.769  11.565  17.636  0.00  0.00    +0.000 HD
ENDBRANCH   8  29
TORSDOF 2
ENDMDL
MODEL 3
REMARK VINA RESULT:      -8.9      3.689      9.175
REMARK  Name = 
REMARK  3 active torsions:
REMARK  status: ('A' for Active; 'I' for Inactive)
REMARK    1  A    between atoms: C_1  and  C_2
REMARK    2  A    between atoms: C_8  and  N_9
REMARK    3  A    between atoms: C_10  and  C_11
REMARK                            x       y       z     vdW  Elec       q    Type
REMARK                         _______ _______ _______ _____ _____    ______ ____
ROOT
ATOM      1  C   UNL     1      -0.926  15.066  20.596  0.00  0.00    +0.000 C 
ATOM      2  C   UNL     1      -0.525  13.631  20.800  0.00  0.00    +0.000 A 
ATOM      3  C   UNL     1      -0.767  12.992  22.014  0.00  0.00    +0.000 A 
ATOM      4  C   UNL     1      -0.387  11.661  22.172  0.00  0.00    +0.000 A 
ATOM      5  C   UNL     1       0.228  10.934  21.127  0.00  0.00    +0.000 A 
ATOM      6  C   UNL     1       0.614   9.588  21.249  0.00  0.00    +0.000 A 
ATOM      7  C   UNL     1       1.172   8.895  20.140  0.00  0.00    +0.000 A 
ATOM      8  C   UNL     1       1.654   7.552  19.938  0.00  0.00    +0.000 A 
ATOM      9  C   UNL     1       2.034   7.242  18.616  0.00  0.00    +0.000 A 
ATOM     10  S   UNL     1       1.970   8.681  17.687  0.00  0.00    +0.000 S 
ATOM     11  C   UNL     1       1.315   9.630  18.973  0.00  0.00    +0.000 A 
ATOM     12  N   UNL     1       0.996  10.929  18.817  0.00  0.00    +0.000 NA
ATOM     13  C   UNL     1       0.457  11.554  19.893  0.00  0.00    +0.000 A 
ATOM     14  C   UNL     1       0.084  12.896  19.766  0.00  0.00    +0.000 A 
ENDROOT
BRANCH   9  15
ATOM     15  C   UNL     1       2.538   5.918  18.152  0.00  0.00    +0.000 C 
ATOM     16  O   UNL     1       1.667   5.102  17.794  0.00  0.00    +0.000 OA
ATOM     17  N   UNL     1       3.877   5.381  18.172  0.00  0.00    +0.000 N 
ATOM     18  C   UNL     1       3.874   3.899  18.221  0.00  0.00    +0.000 C 
ATOM     19  C   UNL     1       4.954   3.387  19.138  0.00  0.00    +0.000 C 
ATOM     20  O   UNL     1       4.758   2.663  20.108  0.00  0.00    +0.000 OA
ATOM     21  N   UNL     1       6.209   3.765  18.741  0.00  0.00    +0.000 N 
ATOM     22  C   UNL     1       6.340   5.137  18.434  0.00  0.00    +0.000 A 
ATOM     23  C   UNL     1       7.662   5.598  18.477  0.00  0.00    +0.000 A 
ATOM     24  C   UNL     1       7.940   6.858  17.998  0.00  0.00    +0.000 A 
ATOM     25  C   UNL     1       6.906   7.588  17.408  0.00  0.00    +0.000 A 
ATOM     26  C   UNL     1       5.553   7.146  17.448  0.00  0.00    +0.000 A 
ATOM     27  C   UNL     1       5.218   5.939  18.053  0.00  0.00    +0.000 A 
ATOM     28  H   UNL     1       6.464   3.259  17.889  0.00  0.00    +0.000 HD
ENDBRANCH   9  15
BRANCH   8  29
ATOM     29  N   UNL     1       1.719   6.690  20.991  0.00  0.00    +0.000 N 
ATOM     30  H   UNL     1       2.572   6.185  21.214  0.00  0.00    +0.000 HD
ATOM     31  H   UNL     1       0.878   6.176  21.272  0.00  0.00    +0.000 HD
ENDBRANCH   8  29
TORSDOF 2
ENDMDL
MODEL 4
REMARK VINA RESULT:      -8.7      2.142      3.257
REMARK  Name = 
REMARK  3 active torsions:
REMARK  status: ('A' for Active; 'I' for Inactive)
REMARK    1  A    between atoms: C_1  and  C_2
REMARK    2  A    between atoms: C_8  and  N_9
REMARK    3  A    between atoms: C_10  and  C_11
REMARK                            x       y       z     vdW  Elec       q    Type
REMARK                         _______ _______ _______ _____ _____    ______ ____
ROOT
ATOM      1  C   UNL     1       4.331   5.610  16.974  0.00  0.00    +0.000 C 
ATOM      2  C   UNL     1       3.469   6.123  18.095  0.00  0.00    +0.000 A 
ATOM      3  C   UNL     1       3.208   5.329  19.209  0.00  0.00    +0.000 A 
ATOM      4  C   UNL     1       2.408   5.834  20.232  0.00  0.00    +0.000 A 
ATOM      5  C   UNL     1       1.864   7.138  20.178  0.00  0.00    +0.000 A 
ATOM      6  C   UNL     1       1.063   7.681  21.197  0.00  0.00    +0.000 A 
ATOM      7  C   UNL     1       0.597   9.021  21.110  0.00  0.00    +0.000 A 
ATOM      8  C   UNL     1      -0.216   9.856  21.958  0.00  0.00    +0.000 A 
ATOM      9  C   UNL     1      -0.349  11.194  21.536  0.00  0.00    +0.000 A 
ATOM     10  S   UNL     1       0.374  11.344  19.989  0.00  0.00    +0.000 S 
ATOM     11  C   UNL     1       0.967   9.722  19.973  0.00  0.00    +0.000 A 
ATOM     12  N   UNL     1       1.700   9.235  18.953  0.00  0.00    +0.000 NA
ATOM     13  C   UNL     1       2.137   7.957  19.076  0.00  0.00    +0.000 A 
ATOM     14  C   UNL     1       2.925   7.421  18.053  0.00  0.00    +0.000 A 
ENDROOT
BRANCH   9  15
ATOM     15  C   UNL     1      -1.114  12.254  22.254  0.00  0.00    +0.000 C 
ATOM     16  O   UNL     1      -0.463  12.930  23.075  0.00  0.00    +0.000 OA
ATOM     17  N   UNL     1      -2.527  12.540  22.243  0.00  0.00    +0.000 N 
ATOM     18  C   UNL     1      -2.962  13.207  23.494  0.00  0.00    +0.000 C 
ATOM     19  C   UNL     1      -4.301  12.686  23.948  0.00  0.00    +0.000 C 
ATOM     20  O   UNL     1      -4.516  12.176  25.041  0.00  0.00    +0.000 OA
ATOM     21  N   UNL     1      -5.292  12.896  23.025  0.00  0.00    +0.000 N 
ATOM     22  C   UNL     1      -4.958  12.512  21.707  0.00  0.00    +0.000 A 
ATOM     23  C   UNL     1      -6.072  12.298  20.886  0.00  0.00    +0.000 A 
ATOM     24  C   UNL     1      -5.877  12.124  19.535  0.00  0.00    +0.000 A 
ATOM     25  C   UNL     1      -4.581  12.255  19.030  0.00  0.00    +0.000 A 
ATOM     26  C   UNL     1      -3.448  12.386  19.882  0.00  0.00    +0.000 A 
ATOM     27  C   UNL     1      -3.601  12.423  21.264  0.00  0.00    +0.000 A 
ATOM     28  H   UNL     1      -5.510  13.894  22.981  0.00  0.00    +0.000 HD
ENDBRANCH   9  15
BRANCH   8  29
ATOM     29  N   UNL     1      -0.792   9.330  23.076  0.00  0.00    +0.000 N 
ATOM     30  H   UNL     1      -0.423   8.495  23.522  0.00  0.00    +0.000 HD
ATOM     31  H   UNL     1      -1.802   9.433  23.216  0.00  0.00    +0.000 HD
ENDBRANCH   8  29
TORSDOF 2
ENDMDL
MODEL 5
REMARK VINA RESULT:      -8.6      1.302      1.969
REMARK  Name = 
REMARK  3 active torsions:
REMARK  status: ('A' for Active; 'I' for Inactive)
REMARK    1  A    between atoms: C_1  and  C_2
REMARK    2  A    between atoms: C_8  and  N_9
REMARK    3  A    between atoms: C_10  and  C_11
REMARK                            x       y       z     vdW  Elec       q    Type
REMARK                         _______ _______ _______ _____ _____    ______ ____
ROOT
ATOM      1  C   UNL     1       5.104   3.986  16.825  0.00  0.00    +0.000 C 
ATOM      2  C   UNL     1       4.241   4.734  17.803  0.00  0.00    +0.000 A 
ATOM      3  C   UNL     1       3.930   4.180  19.043  0.00  0.00    +0.000 A 
ATOM      4  C   UNL     1       3.130   4.899  19.928  0.00  0.00    +0.000 A 
ATOM      5  C   UNL     1       2.633   6.183  19.609  0.00  0.00    +0.000 A 
ATOM      6  C   UNL     1       1.833   6.939  20.483  0.00  0.00    +0.000 A 
ATOM      7  C   UNL     1       1.417   8.251  20.127  0.00  0.00    +0.000 A 
ATOM      8  C   UNL     1       0.619   9.260  20.777  0.00  0.00    +0.000 A 
ATOM      9  C   UNL     1       0.542  10.494  20.100  0.00  0.00    +0.000 A 
ATOM     10  S   UNL     1       1.299  10.317  18.573  0.00  0.00    +0.000 S 
ATOM     11  C   UNL     1       1.834   8.705  18.885  0.00  0.00    +0.000 A 
ATOM     12  N   UNL     1       2.568   8.007  17.998  0.00  0.00    +0.000 NA
ATOM     13  C   UNL     1       2.956   6.764  18.376  0.00  0.00    +0.000 A 
ATOM     14  C   UNL     1       3.744   6.015  17.497  0.00  0.00    +0.000 A 
ENDROOT
BRANCH   9  15
ATOM     15  C   UNL     1      -0.198  11.696  20.581  0.00  0.00    +0.000 C 
ATOM     16  O   UNL     1       0.423  12.436  21.367  0.00  0.00    +0.000 OA
ATOM     17  N   UNL     1      -1.575  12.075  20.378  0.00  0.00    +0.000 N 
ATOM     18  C   UNL     1      -2.072  12.943  21.472  0.00  0.00    +0.000 C 
ATOM     19  C   UNL     1      -3.488  12.587  21.844  0.00  0.00    +0.000 C 
ATOM     20  O   UNL     1      -3.850  12.256  22.967  0.00  0.00    +0.000 OA
ATOM     21  N   UNL     1      -4.363  12.730  20.800  0.00  0.00    +0.000 N 
ATOM     22  C   UNL     1      -3.935  12.138  19.591  0.00  0.00    +0.000 A 
ATOM     23  C   UNL     1      -4.978  11.886  18.690  0.00  0.00    +0.000 A 
ATOM     24  C   UNL     1      -4.667  11.506  17.405  0.00  0.00    +0.000 A 
ATOM     25  C   UNL     1      -3.322  11.473  17.030  0.00  0.00    +0.000 A 
ATOM     26  C   UNL     1      -2.270  11.646  17.974  0.00  0.00    +0.000 A 
ATOM     27  C   UNL     1      -2.554  11.892  19.314  0.00  0.00    +0.000 A 
ATOM     28  H   UNL     1      -4.492  13.724  20.597  0.00  0.00    +0.000 HD
ENDBRANCH   9  15
BRANCH   8  29
ATOM     29  N   UNL     1       0.005   8.979  21.960  0.00  0.00    +0.000 N 
ATOM     30  H   UNL     1      -0.460   9.701  22.503  0.00  0.00    +0.000 HD
ATOM     31  H   UNL     1       0.369   8.223  22.549  0.00  0.00    +0.000 HD
ENDBRANCH   8  29
TORSDOF 2
ENDMDL
MODEL 6
REMARK VINA RESULT:      -8.5      1.581      2.156
REMARK  Name = 
REMARK  3 active torsions:
REMARK  status: ('A' for Active; 'I' for Inactive)
REMARK    1  A    between atoms: C_1  and  C_2
REMARK    2  A    between atoms: C_8  and  N_9
REMARK    3  A    between atoms: C_10  and  C_11
REMARK                            x       y       z     vdW  Elec       q    Type
REMARK                         _______ _______ _______ _____ _____    ______ ____
ROOT
ATOM      1  C   UNL     1       3.824   1.460  18.616  0.00  0.00    +0.000 C 
ATOM      2  C   UNL     1       3.259   2.715  19.221  0.00  0.00    +0.000 A 
ATOM      3  C   UNL     1       2.912   2.759  20.569  0.00  0.00    +0.000 A 
ATOM      4  C   UNL     1       2.394   3.938  21.101  0.00  0.00    +0.000 A 
ATOM      5  C   UNL     1       2.222   5.099  20.312  0.00  0.00    +0.000 A 
ATOM      6  C   UNL     1       1.713   6.306  20.820  0.00  0.00    +0.000 A 
ATOM      7  C   UNL     1       1.623   7.456  19.989  0.00  0.00    +0.000 A 
ATOM      8  C   UNL     1       1.164   8.807  20.194  0.00  0.00    +0.000 A 
ATOM      9  C   UNL     1       1.355   9.679  19.104  0.00  0.00    +0.000 A 
ATOM     10  S   UNL     1       1.922   8.760  17.773  0.00  0.00    +0.000 S 
ATOM     11  C   UNL     1       2.046   7.295  18.679  0.00  0.00    +0.000 A 
ATOM     12  N   UNL     1       2.506   6.151  18.136  0.00  0.00    +0.000 NA
ATOM     13  C   UNL     1       2.588   5.078  18.961  0.00  0.00    +0.000 A 
ATOM     14  C   UNL     1       3.087   3.877  18.446  0.00  0.00    +0.000 A 
ENDROOT
BRANCH   9  15
ATOM     15  C   UNL     1       0.989  11.125  19.081  0.00  0.00    +0.000 C 
ATOM     16  O   UNL     1       1.938  11.926  19.181  0.00  0.00    +0.000 OA
ATOM     17  N   UNL     1      -0.312  11.747  19.090  0.00  0.00    +0.000 N 
ATOM     18  C   UNL     1      -0.264  13.109  19.674  0.00  0.00    +0.000 C 
ATOM     19  C   UNL     1      -1.471  13.369  20.539  0.00  0.00    +0.000 C 
ATOM     20  O   UNL     1      -1.424  13.683  21.723  0.00  0.00    +0.000 OA
ATOM     21  N   UNL     1      -2.649  13.279  19.846  0.00  0.00    +0.000 N 
ATOM     22  C   UNL     1      -2.772  12.123  19.045  0.00  0.00    +0.000 A 
ATOM     23  C   UNL     1      -4.096  11.807  18.716  0.00  0.00    +0.000 A 
ATOM     24  C   UNL     1      -4.331  10.830  17.775  0.00  0.00    +0.000 A 
ATOM     25  C   UNL     1      -3.235  10.257  17.126  0.00  0.00    +0.000 A 
ATOM     26  C   UNL     1      -1.895  10.522  17.529  0.00  0.00    +0.000 A 
ATOM     27  C   UNL     1      -1.630  11.401  18.574  0.00  0.00    +0.000 A 
ATOM     28  H   UNL     1      -2.730  14.075  19.207  0.00  0.00    +0.000 HD
ENDBRANCH   9  15
BRANCH   8  29
ATOM     29  N   UNL     1       0.590   9.154  21.380  0.00  0.00    +0.000 N 
ATOM     30  H   UNL     1       1.099   9.680  22.084  0.00  0.00    +0.000 HD
ATOM     31  H   UNL     1      -0.124   8.544  21.791  0.00  0.00    +0.000 HD
ENDBRANCH   8  29
TORSDOF 2
ENDMDL
MODEL 7
REMARK VINA RESULT:      -8.5      2.346      3.806
REMARK  Name = 
REMARK  3 active torsions:
REMARK  status: ('A' for Active; 'I' for Inactive)
REMARK    1  A    between atoms: C_1  and  C_2
REMARK    2  A    between atoms: C_8  and  N_9
REMARK    3  A    between atoms: C_10  and  C_11
REMARK                            x       y       z     vdW  Elec       q    Type
REMARK                         _______ _______ _______ _____ _____    ______ ____
ROOT
ATOM      1  C   UNL     1       6.977   4.707  14.763  0.00  0.00    +0.000 C 
ATOM      2  C   UNL     1       6.098   5.020  15.943  0.00  0.00    +0.000 A 
ATOM      3  C   UNL     1       6.161   4.245  17.098  0.00  0.00    +0.000 A 
ATOM      4  C   UNL     1       5.337   4.561  18.176  0.00  0.00    +0.000 A 
ATOM      5  C   UNL     1       4.444   5.657  18.134  0.00  0.00    +0.000 A 
ATOM      6  C   UNL     1       3.607   6.010  19.207  0.00  0.00    +0.000 A 
ATOM      7  C   UNL     1       2.777   7.161  19.124  0.00  0.00    +0.000 A 
ATOM      8  C   UNL     1       1.833   7.782  20.020  0.00  0.00    +0.000 A 
ATOM      9  C   UNL     1       1.295   9.005  19.573  0.00  0.00    +0.000 A 
ATOM     10  S   UNL     1       1.821   9.267  17.963  0.00  0.00    +0.000 S 
ATOM     11  C   UNL     1       2.843   7.875  17.938  0.00  0.00    +0.000 A 
ATOM     12  N   UNL     1       3.599   7.558  16.870  0.00  0.00    +0.000 NA
ATOM     13  C   UNL     1       4.386   6.460  16.989  0.00  0.00    +0.000 A 
ATOM     14  C   UNL     1       5.209   6.110  15.913  0.00  0.00    +0.000 A 
ENDROOT
BRANCH   9  15
ATOM     15  C   UNL     1       0.323   9.847  20.328  0.00  0.00    +0.000 C 
ATOM     16  O   UNL     1      -0.354   9.253  21.188  0.00  0.00    +0.000 OA
ATOM     17  N   UNL     1      -0.051  11.226  20.131  0.00  0.00    +0.000 N 
ATOM     18  C   UNL     1      -1.420  11.500  20.629  0.00  0.00    +0.000 C 
ATOM     19  C   UNL     1      -2.159  12.428  19.700  0.00  0.00    +0.000 C 
ATOM     20  O   UNL     1      -3.227  12.166  19.159  0.00  0.00    +0.000 OA
ATOM     21  N   UNL     1      -1.540  13.642  19.562  0.00  0.00    +0.000 N 
ATOM     22  C   UNL     1      -0.155  13.569  19.296  0.00  0.00    +0.000 A 
ATOM     23  C   UNL     1       0.368  14.732  18.719  0.00  0.00    +0.000 A 
ATOM     24  C   UNL     1       1.734  14.861  18.605  0.00  0.00    +0.000 A 
ATOM     25  C   UNL     1       2.542  13.861  19.152  0.00  0.00    +0.000 A 
ATOM     26  C   UNL     1       2.000  12.645  19.658  0.00  0.00    +0.000 A 
ATOM     27  C   UNL     1       0.627  12.426  19.656  0.00  0.00    +0.000 A 
ATOM     28  H   UNL     1      -1.633  14.173  20.431  0.00  0.00    +0.000 HD
ENDBRANCH   9  15
BRANCH   8  29
ATOM     29  N   UNL     1       1.521   7.177  21.200  0.00  0.00    +0.000 N 
ATOM     30  H   UNL     1       2.034   7.377  22.053  0.00  0.00    +0.000 HD
ATOM     31  H   UNL     1       1.137   6.227  21.191  0.00  0.00    +0.000 HD
ENDBRANCH   8  29
TORSDOF 2
ENDMDL
MODEL 8
REMARK VINA RESULT:      -8.5      1.974      2.924
REMARK  Name = 
REMARK  3 active torsions:
REMARK  status: ('A' for Active; 'I' for Inactive)
REMARK    1  A    between atoms: C_1  and  C_2
REMARK    2  A    between atoms: C_8  and  N_9
REMARK    3  A    between atoms: C_10  and  C_11
REMARK                            x       y       z     vdW  Elec       q    Type
REMARK                         _______ _______ _______ _____ _____    ______ ____
ROOT
ATOM      1  C   UNL     1       3.820   4.573  18.711  0.00  0.00    +0.000 C 
ATOM      2  C   UNL     1       3.193   5.939  18.766  0.00  0.00    +0.000 A 
ATOM      3  C   UNL     1       3.248   6.790  17.666  0.00  0.00    +0.000 A 
ATOM      4  C   UNL     1       2.654   8.048  17.748  0.00  0.00    +0.000 A 
ATOM      5  C   UNL     1       1.985   8.481  18.915  0.00  0.00    +0.000 A 
ATOM      6  C   UNL     1       1.367   9.738  19.026  0.00  0.00    +0.000 A 
ATOM      7  C   UNL     1       0.655  10.089  20.206  0.00  0.00    +0.000 A 
ATOM      8  C   UNL     1      -0.071  11.261  20.627  0.00  0.00    +0.000 A 
ATOM      9  C   UNL     1      -0.734  11.146  21.865  0.00  0.00    +0.000 A 
ATOM     10  S   UNL     1      -0.283   9.654  22.579  0.00  0.00    +0.000 S 
ATOM     11  C   UNL     1       0.633   9.134  21.210  0.00  0.00    +0.000 A 
ATOM     12  N   UNL     1       1.240   7.932  21.167  0.00  0.00    +0.000 NA
ATOM     13  C   UNL     1       1.900   7.628  20.021  0.00  0.00    +0.000 A 
ATOM     14  C   UNL     1       2.520   6.378  19.922  0.00  0.00    +0.000 A 
ENDROOT
BRANCH   9  15
ATOM     15  C   UNL     1      -1.568  12.207  22.500  0.00  0.00    +0.000 C 
ATOM     16  O   UNL     1      -1.010  12.874  23.391  0.00  0.00    +0.000 OA
ATOM     17  N   UNL     1      -2.970  12.501  22.333  0.00  0.00    +0.000 N 
ATOM     18  C   UNL     1      -3.538  13.164  23.531  0.00  0.00    +0.000 C 
ATOM     19  C   UNL     1      -4.922  12.649  23.830  0.00  0.00    +0.000 C 
ATOM     20  O   UNL     1      -5.260  12.135  24.890  0.00  0.00    +0.000 OA
ATOM     21  N   UNL     1      -5.802  12.869  22.804  0.00  0.00    +0.000 N 
ATOM     22  C   UNL     1      -5.326  12.489  21.530  0.00  0.00    +0.000 A 
ATOM     23  C   UNL     1      -6.343  12.286  20.588  0.00  0.00    +0.000 A 
ATOM     24  C   UNL     1      -5.999  12.117  19.267  0.00  0.00    +0.000 A 
ATOM     25  C   UNL     1      -4.654  12.243  18.909  0.00  0.00    +0.000 A 
ATOM     26  C   UNL     1      -3.623  12.363  19.883  0.00  0.00    +0.000 A 
ATOM     27  C   UNL     1      -3.928  12.395  21.240  0.00  0.00    +0.000 A 
ATOM     28  H   UNL     1      -6.009  13.869  22.741  0.00  0.00    +0.000 HD
ENDBRANCH   9  15
BRANCH   8  29
ATOM     29  N   UNL     1      -0.076  12.373  19.840  0.00  0.00    +0.000 N 
ATOM     30  H   UNL     1      -0.850  13.031  19.852  0.00  0.00    +0.000 HD
ATOM     31  H   UNL     1       0.399  12.349  18.932  0.00  0.00    +0.000 HD
ENDBRANCH   8  29
TORSDOF 2
ENDMDL
MODEL 9
REMARK VINA RESULT:      -8.2      1.575      2.354
REMARK  Name = 
REMARK  3 active torsions:
REMARK  status: ('A' for Active; 'I' for Inactive)
REMARK    1  A    between atoms: C_1  and  C_2
REMARK    2  A    between atoms: C_8  and  N_9
REMARK    3  A    between atoms: C_10  and  C_11
REMARK                            x       y       z     vdW  Elec       q    Type
REMARK                         _______ _______ _______ _____ _____    ______ ____
ROOT
ATOM      1  C   UNL     1       3.916   4.616  19.486  0.00  0.00    +0.000 C 
ATOM      2  C   UNL     1       3.326   5.943  19.092  0.00  0.00    +0.000 A 
ATOM      3  C   UNL     1       3.554   6.472  17.824  0.00  0.00    +0.000 A 
ATOM      4  C   UNL     1       2.992   7.702  17.489  0.00  0.00    +0.000 A 
ATOM      5  C   UNL     1       2.182   8.423  18.396  0.00  0.00    +0.000 A 
ATOM      6  C   UNL     1       1.591   9.659  18.085  0.00  0.00    +0.000 A 
ATOM      7  C   UNL     1       0.736  10.305  19.021  0.00  0.00    +0.000 A 
ATOM      8  C   UNL     1      -0.007  11.540  19.012  0.00  0.00    +0.000 A 
ATOM      9  C   UNL     1      -0.834  11.751  20.133  0.00  0.00    +0.000 A 
ATOM     10  S   UNL     1      -0.528  10.506  21.270  0.00  0.00    +0.000 S 
ATOM     11  C   UNL     1       0.551   9.650  20.228  0.00  0.00    +0.000 A 
ATOM     12  N   UNL     1       1.123   8.485  20.587  0.00  0.00    +0.000 NA
ATOM     13  C   UNL     1       1.924   7.893  19.666  0.00  0.00    +0.000 A 
ATOM     14  C   UNL     1       2.516   6.667  19.986  0.00  0.00    +0.000 A 
ENDROOT
BRANCH   9  15
ATOM     15  C   UNL     1      -1.717  12.935  20.344  0.00  0.00    +0.000 C 
ATOM     16  O   UNL     1      -1.138  13.992  20.664  0.00  0.00    +0.000 OA
ATOM     17  N   UNL     1      -3.156  13.022  20.361  0.00  0.00    +0.000 N 
ATOM     18  C   UNL     1      -3.628  14.161  21.185  0.00  0.00    +0.000 C 
ATOM     19  C   UNL     1      -4.849  13.783  21.981  0.00  0.00    +0.000 C 
ATOM     20  O   UNL     1      -4.932  13.850  23.202  0.00  0.00    +0.000 OA
ATOM     21  N   UNL     1      -5.903  13.406  21.190  0.00  0.00    +0.000 N 
ATOM     22  C   UNL     1      -5.576  12.469  20.186  0.00  0.00    +0.000 A 
ATOM     23  C   UNL     1      -6.683  11.762  19.699  0.00  0.00    +0.000 A 
ATOM     24  C   UNL     1      -6.527  10.974  18.581  0.00  0.00    +0.000 A 
ATOM     25  C   UNL     1      -5.292  10.985  17.929  0.00  0.00    +0.000 A 
ATOM     26  C   UNL     1      -4.153  11.638  18.480  0.00  0.00    +0.000 A 
ATOM     27  C   UNL     1      -4.244  12.326  19.686  0.00  0.00    +0.000 A 
ATOM     28  H   UNL     1      -6.272  14.226  20.703  0.00  0.00    +0.000 HD
ENDBRANCH   9  15
BRANCH   8  29
ATOM     29  N   UNL     1       0.127  12.404  17.967  0.00  0.00    +0.000 N 
ATOM     30  H   UNL     1       0.880  12.310  17.292  0.00  0.00    +0.000 HD
ATOM     31  H   UNL     1      -0.178  13.376  18.077  0.00  0.00    +0.000 HD
ENDBRANCH   8  29
TORSDOF 2
ENDMDL
