MODEL 1
REMARK VINA RESULT:      -9.2      0.000      0.000
REMARK  Name = 
REMARK  7 active torsions:
REMARK  status: ('A' for Active; 'I' for Inactive)
REMARK    1  A    between atoms: C_1  and  O_2
REMARK    2  A    between atoms: O_2  and  C_3
REMARK    3  A    between atoms: C_6  and  C_7
REMARK    4  A    between atoms: N_9  and  C_10
REMARK    5  A    between atoms: C_10  and  C_11
REMARK    6  A    between atoms: C_26  and  O_27
REMARK    7  A    between atoms: O_27  and  C_28
REMARK                            x       y       z     vdW  Elec       q    Type
REMARK                         _______ _______ _______ _____ _____    ______ ____
ROOT
ATOM      1  C   UNL     1       2.786   6.064  18.546  0.00  0.00    +0.000 C 
ATOM      2  N   UNL     1       3.610   5.904  17.553  0.00  0.00    +0.000 NA
ATOM      3  N   UNL     1       3.707   4.646  16.973  0.00  0.00    +0.000 N 
ATOM      4  C   UNL     1       2.766   3.631  17.244  0.00  0.00    +0.000 C 
ATOM      5  O   UNL     1       2.460   2.740  16.462  0.00  0.00    +0.000 OA
ATOM      6  C   UNL     1       2.502   3.558  18.720  0.00  0.00    +0.000 C 
ATOM      7  C   UNL     1       1.444   2.588  19.233  0.00  0.00    +0.000 C 
ATOM      8  C   UNL     1       1.580   2.496  20.767  0.00  0.00    +0.000 C 
ATOM      9  C   UNL     1       1.642   3.862  21.476  0.00  0.00    +0.000 C 
ATOM     10  C   UNL     1       2.574   4.860  20.779  0.00  0.00    +0.000 C 
ATOM     11  C   UNL     1       2.176   4.917  19.302  0.00  0.00    +0.000 C 
ENDROOT
BRANCH   1  15
ATOM     12  C   UNL     1       0.762   9.716  19.224  0.00  0.00    +0.000 A 
ATOM     13  C   UNL     1       1.542   9.563  18.070  0.00  0.00    +0.000 A 
ATOM     14  C   UNL     1       2.318   8.422  17.895  0.00  0.00    +0.000 A 
ATOM     15  C   UNL     1       2.340   7.450  18.891  0.00  0.00    +0.000 A 
ATOM     16  C   UNL     1       1.728   7.714  20.128  0.00  0.00    +0.000 A 
ATOM     17  C   UNL     1       0.951   8.860  20.310  0.00  0.00    +0.000 A 
BRANCH  12  19
ATOM     18  C   UNL     1      -1.129  10.554  18.148  0.00  0.00    +0.000 C 
ATOM     19  O   UNL     1      -0.232  10.656  19.263  0.00  0.00    +0.000 OA
ENDBRANCH  12  19
BRANCH  17  20
ATOM     20  O   UNL     1       0.357   8.942  21.541  0.00  0.00    +0.000 OA
ATOM     21  C   UNL     1       1.199   9.374  22.607  0.00  0.00    +0.000 C 
ENDBRANCH  17  20
ENDBRANCH   1  15
BRANCH   3  22
ATOM     22  C   UNL     1       5.053   4.187  16.681  0.00  0.00    +0.000 C 
BRANCH  22  23
ATOM     23  C   UNL     1       6.200   4.956  17.261  0.00  0.00    +0.000 A 
ATOM     24  C   UNL     1       6.569   4.865  18.602  0.00  0.00    +0.000 A 
ATOM     25  C   UNL     1       7.452   5.802  19.134  0.00  0.00    +0.000 A 
ATOM     26  C   UNL     1       7.947   6.792  18.300  0.00  0.00    +0.000 A 
ATOM     27  N   UNL     1       7.654   6.883  16.987  0.00  0.00    +0.000 NA
ATOM     28  C   UNL     1       6.790   5.965  16.500  0.00  0.00    +0.000 A 
ENDBRANCH  22  23
ENDBRANCH   3  22
TORSDOF 5
ENDMDL
MODEL 2
REMARK VINA RESULT:      -9.2      1.330      1.974
REMARK  Name = 
REMARK  7 active torsions:
REMARK  status: ('A' for Active; 'I' for Inactive)
REMARK    1  A    between atoms: C_1  and  O_2
REMARK    2  A    between atoms: O_2  and  C_3
REMARK    3  A    between atoms: C_6  and  C_7
REMARK    4  A    between atoms: N_9  and  C_10
REMARK    5  A    between atoms: C_10  and  C_11
REMARK    6  A    between atoms: C_26  and  O_27
REMARK    7  A    between atoms: O_27  and  C_28
REMARK                            x       y       z     vdW  Elec       q    Type
REMARK                         _______ _______ _______ _____ _____    ______ ____
ROOT
ATOM      1  C   UNL     1       2.866   5.985  18.523  0.00  0.00    +0.000 C 
ATOM      2  N   UNL     1       3.709   5.778  17.555  0.00  0.00    +0.000 NA
ATOM      3  N   UNL     1       3.769   4.510  16.992  0.00  0.00    +0.000 N 
ATOM      4  C   UNL     1       2.780   3.538  17.248  0.00  0.00    +0.000 C 
ATOM      5  O   UNL     1       2.458   2.651  16.468  0.00  0.00    +0.000 OA
ATOM      6  C   UNL     1       2.472   3.495  18.716  0.00  0.00    +0.000 C 
ATOM      7  C   UNL     1       1.360   2.576  19.211  0.00  0.00    +0.000 C 
ATOM      8  C   UNL     1       1.451   2.497  20.749  0.00  0.00    +0.000 C 
ATOM      9  C   UNL     1       1.551   3.868  21.444  0.00  0.00    +0.000 C 
ATOM     10  C   UNL     1       2.542   4.817  20.762  0.00  0.00    +0.000 C 
ATOM     11  C   UNL     1       2.188   4.873  19.274  0.00  0.00    +0.000 C 
ENDROOT
BRANCH   1  15
ATOM     12  C   UNL     1       0.988   9.733  19.079  0.00  0.00    +0.000 A 
ATOM     13  C   UNL     1       1.824   9.538  17.972  0.00  0.00    +0.000 A 
ATOM     14  C   UNL     1       2.552   8.360  17.843  0.00  0.00    +0.000 A 
ATOM     15  C   UNL     1       2.469   7.392  18.840  0.00  0.00    +0.000 A 
ATOM     16  C   UNL     1       1.802   7.690  20.040  0.00  0.00    +0.000 A 
ATOM     17  C   UNL     1       1.073   8.873  20.175  0.00  0.00    +0.000 A 
BRANCH  12  19
ATOM     18  C   UNL     1       0.614  12.032  18.970  0.00  0.00    +0.000 C 
ATOM     19  O   UNL     1       0.040  10.721  19.060  0.00  0.00    +0.000 OA
ENDBRANCH  12  19
BRANCH  17  20
ATOM     20  O   UNL     1       0.414   8.990  21.370  0.00  0.00    +0.000 OA
ATOM     21  C   UNL     1       1.232   9.283  22.501  0.00  0.00    +0.000 C 
ENDBRANCH  17  20
ENDBRANCH   1  15
BRANCH   3  22
ATOM     22  C   UNL     1       5.103   3.992  16.743  0.00  0.00    +0.000 C 
BRANCH  22  23
ATOM     23  C   UNL     1       5.793   4.401  15.479  0.00  0.00    +0.000 A 
ATOM     24  C   UNL     1       5.504   3.829  14.241  0.00  0.00    +0.000 A 
ATOM     25  C   UNL     1       6.363   4.050  13.167  0.00  0.00    +0.000 A 
ATOM     26  C   UNL     1       7.478   4.848  13.366  0.00  0.00    +0.000 A 
ATOM     27  N   UNL     1       7.766   5.459  14.533  0.00  0.00    +0.000 NA
ATOM     28  C   UNL     1       6.918   5.221  15.559  0.00  0.00    +0.000 A 
ENDBRANCH  22  23
ENDBRANCH   3  22
TORSDOF 5
ENDMDL
MODEL 3
REMARK VINA RESULT:      -8.8      2.674      6.529
REMARK  Name = 
REMARK  7 active torsions:
REMARK  status: ('A' for Active; 'I' for Inactive)
REMARK    1  A    between atoms: C_1  and  O_2
REMARK    2  A    between atoms: O_2  and  C_3
REMARK    3  A    between atoms: C_6  and  C_7
REMARK    4  A    between atoms: N_9  and  C_10
REMARK    5  A    between atoms: C_10  and  C_11
REMARK    6  A    between atoms: C_26  and  O_27
REMARK    7  A    between atoms: O_27  and  C_28
REMARK                            x       y       z     vdW  Elec       q    Type
REMARK                         _______ _______ _______ _____ _____    ______ ____
ROOT
ATOM      1  C   UNL     1       3.538   5.995  18.026  0.00  0.00    +0.000 C 
ATOM      2  N   UNL     1       3.185   7.243  17.926  0.00  0.00    +0.000 NA
ATOM      3  N   UNL     1       2.259   7.742  18.833  0.00  0.00    +0.000 N 
ATOM      4  C   UNL     1       1.903   7.028  19.995  0.00  0.00    +0.000 C 
ATOM      5  O   UNL     1       1.541   7.544  21.045  0.00  0.00    +0.000 OA
ATOM      6  C   UNL     1       1.648   5.588  19.655  0.00  0.00    +0.000 C 
ATOM      7  C   UNL     1       1.336   4.607  20.780  0.00  0.00    +0.000 C 
ATOM      8  C   UNL     1       0.830   3.295  20.147  0.00  0.00    +0.000 C 
ATOM      9  C   UNL     1       1.725   2.758  19.013  0.00  0.00    +0.000 C 
ATOM     10  C   UNL     1       2.171   3.847  18.032  0.00  0.00    +0.000 C 
ATOM     11  C   UNL     1       2.780   4.991  18.848  0.00  0.00    +0.000 C 
ENDROOT
BRANCH   1  15
ATOM     12  C   UNL     1       6.863   5.222  15.529  0.00  0.00    +0.000 A 
ATOM     13  C   UNL     1       5.831   4.279  15.615  0.00  0.00    +0.000 A 
ATOM     14  C   UNL     1       4.796   4.454  16.528  0.00  0.00    +0.000 A 
ATOM     15  C   UNL     1       4.813   5.556  17.378  0.00  0.00    +0.000 A 
ATOM     16  C   UNL     1       5.955   6.372  17.430  0.00  0.00    +0.000 A 
ATOM     17  C   UNL     1       6.998   6.197  16.519  0.00  0.00    +0.000 A 
BRANCH  12  19
ATOM     18  C   UNL     1       7.100   4.627  13.287  0.00  0.00    +0.000 C 
ATOM     19  O   UNL     1       7.695   5.235  14.442  0.00  0.00    +0.000 OA
ENDBRANCH  12  19
BRANCH  17  20
ATOM     20  O   UNL     1       8.008   7.114  16.643  0.00  0.00    +0.000 OA
ATOM     21  C   UNL     1       7.790   8.149  17.599  0.00  0.00    +0.000 C 
ENDBRANCH  17  20
ENDBRANCH   1  15
BRANCH   3  22
ATOM     22  C   UNL     1       1.216   8.582  18.272  0.00  0.00    +0.000 C 
BRANCH  22  23
ATOM     23  C   UNL     1       1.279  10.054  18.537  0.00  0.00    +0.000 A 
ATOM     24  C   UNL     1       2.186  10.898  17.898  0.00  0.00    +0.000 A 
ATOM     25  C   UNL     1       2.381  12.189  18.385  0.00  0.00    +0.000 A 
ATOM     26  C   UNL     1       1.650  12.595  19.490  0.00  0.00    +0.000 A 
ATOM     27  N   UNL     1       0.729  11.827  20.105  0.00  0.00    +0.000 NA
ATOM     28  C   UNL     1       0.565  10.578  19.614  0.00  0.00    +0.000 A 
ENDBRANCH  22  23
ENDBRANCH   3  22
TORSDOF 5
ENDMDL
MODEL 4
REMARK VINA RESULT:      -8.8      0.977      1.231
REMARK  Name = 
REMARK  7 active torsions:
REMARK  status: ('A' for Active; 'I' for Inactive)
REMARK    1  A    between atoms: C_1  and  O_2
REMARK    2  A    between atoms: O_2  and  C_3
REMARK    3  A    between atoms: C_6  and  C_7
REMARK    4  A    between atoms: N_9  and  C_10
REMARK    5  A    between atoms: C_10  and  C_11
REMARK    6  A    between atoms: C_26  and  O_27
REMARK    7  A    between atoms: O_27  and  C_28
REMARK                            x       y       z     vdW  Elec       q    Type
REMARK                         _______ _______ _______ _____ _____    ______ ____
ROOT
ATOM      1  C   UNL     1       2.423   6.380  19.080  0.00  0.00    +0.000 C 
ATOM      2  N   UNL     1       3.213   6.421  18.048  0.00  0.00    +0.000 NA
ATOM      3  N   UNL     1       3.400   5.256  17.314  0.00  0.00    +0.000 N 
ATOM      4  C   UNL     1       2.571   4.129  17.488  0.00  0.00    +0.000 C 
ATOM      5  O   UNL     1       2.314   3.313  16.613  0.00  0.00    +0.000 OA
ATOM      6  C   UNL     1       2.380   3.855  18.952  0.00  0.00    +0.000 C 
ATOM      7  C   UNL     1       1.440   2.732  19.376  0.00  0.00    +0.000 C 
ATOM      8  C   UNL     1       1.652   2.470  20.881  0.00  0.00    +0.000 C 
ATOM      9  C   UNL     1       1.619   3.742  21.751  0.00  0.00    +0.000 C 
ATOM     10  C   UNL     1       2.422   4.901  21.152  0.00  0.00    +0.000 C 
ATOM     11  C   UNL     1       1.956   5.096  19.707  0.00  0.00    +0.000 C 
ENDROOT
BRANCH   1  15
ATOM     12  C   UNL     1       0.128   9.760  20.174  0.00  0.00    +0.000 A 
ATOM     13  C   UNL     1       0.997   9.841  19.078  0.00  0.00    +0.000 A 
ATOM     14  C   UNL     1       1.855   8.786  18.784  0.00  0.00    +0.000 A 
ATOM     15  C   UNL     1       1.866   7.664  19.608  0.00  0.00    +0.000 A 
ATOM     16  C   UNL     1       1.151   7.687  20.817  0.00  0.00    +0.000 A 
ATOM     17  C   UNL     1       0.292   8.745  21.118  0.00  0.00    +0.000 A 
BRANCH  12  19
ATOM     18  C   UNL     1      -1.103  11.426  19.105  0.00  0.00    +0.000 C 
ATOM     19  O   UNL     1      -0.924  10.629  20.284  0.00  0.00    +0.000 OA
ENDBRANCH  12  19
BRANCH  17  20
ATOM     20  O   UNL     1      -0.393   8.591  22.294  0.00  0.00    +0.000 OA
ATOM     21  C   UNL     1      -0.067   9.519  23.326  0.00  0.00    +0.000 C 
ENDBRANCH  17  20
ENDBRANCH   1  15
BRANCH   3  22
ATOM     22  C   UNL     1       4.770   4.969  16.924  0.00  0.00    +0.000 C 
BRANCH  22  23
ATOM     23  C   UNL     1       5.873   5.638  17.683  0.00  0.00    +0.000 A 
ATOM     24  C   UNL     1       6.587   6.724  17.178  0.00  0.00    +0.000 A 
ATOM     25  C   UNL     1       7.768   7.118  17.803  0.00  0.00    +0.000 A 
ATOM     26  C   UNL     1       8.188   6.418  18.923  0.00  0.00    +0.000 A 
ATOM     27  N   UNL     1       7.501   5.396  19.471  0.00  0.00    +0.000 NA
ATOM     28  C   UNL     1       6.362   5.032  18.839  0.00  0.00    +0.000 A 
ENDBRANCH  22  23
ENDBRANCH   3  22
TORSDOF 5
ENDMDL
MODEL 5
REMARK VINA RESULT:      -8.5      1.278      2.140
REMARK  Name = 
REMARK  7 active torsions:
REMARK  status: ('A' for Active; 'I' for Inactive)
REMARK    1  A    between atoms: C_1  and  O_2
REMARK    2  A    between atoms: O_2  and  C_3
REMARK    3  A    between atoms: C_6  and  C_7
REMARK    4  A    between atoms: N_9  and  C_10
REMARK    5  A    between atoms: C_10  and  C_11
REMARK    6  A    between atoms: C_26  and  O_27
REMARK    7  A    between atoms: O_27  and  C_28
REMARK                            x       y       z     vdW  Elec       q    Type
REMARK                         _______ _______ _______ _____ _____    ______ ____
ROOT
ATOM      1  C   UNL     1       2.269   6.316  19.103  0.00  0.00    +0.000 C 
ATOM      2  N   UNL     1       3.026   6.466  18.057  0.00  0.00    +0.000 NA
ATOM      3  N   UNL     1       3.326   5.345  17.293  0.00  0.00    +0.000 N 
ATOM      4  C   UNL     1       2.632   4.129  17.458  0.00  0.00    +0.000 C 
ATOM      5  O   UNL     1       2.448   3.307  16.570  0.00  0.00    +0.000 OA
ATOM      6  C   UNL     1       2.505   3.805  18.919  0.00  0.00    +0.000 C 
ATOM      7  C   UNL     1       1.706   2.575  19.335  0.00  0.00    +0.000 C 
ATOM      8  C   UNL     1       1.979   2.309  20.830  0.00  0.00    +0.000 C 
ATOM      9  C   UNL     1       1.824   3.551  21.729  0.00  0.00    +0.000 C 
ATOM     10  C   UNL     1       2.479   4.805  21.141  0.00  0.00    +0.000 C 
ATOM     11  C   UNL     1       1.962   4.975  19.710  0.00  0.00    +0.000 C 
ENDROOT
BRANCH   1  15
ATOM     12  C   UNL     1       1.135   9.987  20.870  0.00  0.00    +0.000 A 
ATOM     13  C   UNL     1       1.115   8.816  21.638  0.00  0.00    +0.000 A 
ATOM     14  C   UNL     1       1.356   7.583  21.043  0.00  0.00    +0.000 A 
ATOM     15  C   UNL     1       1.584   7.518  19.671  0.00  0.00    +0.000 A 
ATOM     16  C   UNL     1       1.389   8.665  18.883  0.00  0.00    +0.000 A 
ATOM     17  C   UNL     1       1.142   9.905  19.476  0.00  0.00    +0.000 A 
BRANCH  12  19
ATOM     18  C   UNL     1      -0.065  11.818  21.671  0.00  0.00    +0.000 C 
ATOM     19  O   UNL     1       1.220  11.210  21.480  0.00  0.00    +0.000 OA
ENDBRANCH  12  19
BRANCH  17  20
ATOM     20  O   UNL     1       1.050  10.941  18.586  0.00  0.00    +0.000 OA
ATOM     21  C   UNL     1       2.290  11.461  18.112  0.00  0.00    +0.000 C 
ENDBRANCH  17  20
ENDBRANCH   1  15
BRANCH   3  22
ATOM     22  C   UNL     1       4.710   5.221  16.870  0.00  0.00    +0.000 C 
BRANCH  22  23
ATOM     23  C   UNL     1       5.777   5.713  17.798  0.00  0.00    +0.000 A 
ATOM     24  C   UNL     1       6.703   6.690  17.435  0.00  0.00    +0.000 A 
ATOM     25  C   UNL     1       7.826   6.900  18.232  0.00  0.00    +0.000 A 
ATOM     26  C   UNL     1       7.978   6.131  19.374  0.00  0.00    +0.000 A 
ATOM     27  N   UNL     1       7.082   5.212  19.786  0.00  0.00    +0.000 NA
ATOM     28  C   UNL     1       6.005   5.026  18.990  0.00  0.00    +0.000 A 
ENDBRANCH  22  23
ENDBRANCH   3  22
TORSDOF 5
ENDMDL
MODEL 6
REMARK VINA RESULT:      -8.2      1.356      2.008
REMARK  Name = 
REMARK  7 active torsions:
REMARK  status: ('A' for Active; 'I' for Inactive)
REMARK    1  A    between atoms: C_1  and  O_2
REMARK    2  A    between atoms: O_2  and  C_3
REMARK    3  A    between atoms: C_6  and  C_7
REMARK    4  A    between atoms: N_9  and  C_10
REMARK    5  A    between atoms: C_10  and  C_11
REMARK    6  A    between atoms: C_26  and  O_27
REMARK    7  A    between atoms: O_27  and  C_28
REMARK                            x       y       z     vdW  Elec       q    Type
REMARK                         _______ _______ _______ _____ _____    ______ ____
ROOT
ATOM      1  C   UNL     1       2.922   5.988  18.501  0.00  0.00    +0.000 C 
ATOM      2  N   UNL     1       3.865   5.780  17.630  0.00  0.00    +0.000 NA
ATOM      3  N   UNL     1       3.974   4.515  17.066  0.00  0.00    +0.000 N 
ATOM      4  C   UNL     1       2.953   3.552  17.203  0.00  0.00    +0.000 C 
ATOM      5  O   UNL     1       2.710   2.675  16.385  0.00  0.00    +0.000 OA
ATOM      6  C   UNL     1       2.485   3.501  18.629  0.00  0.00    +0.000 C 
ATOM      7  C   UNL     1       1.316   2.591  18.990  0.00  0.00    +0.000 C 
ATOM      8  C   UNL     1       1.236   2.499  20.528  0.00  0.00    +0.000 C 
ATOM      9  C   UNL     1       1.273   3.864  21.241  0.00  0.00    +0.000 C 
ATOM     10  C   UNL     1       2.343   4.808  20.681  0.00  0.00    +0.000 C 
ATOM     11  C   UNL     1       2.155   4.878  19.163  0.00  0.00    +0.000 C 
ENDROOT
BRANCH   1  15
ATOM     12  C   UNL     1       0.994   9.723  18.971  0.00  0.00    +0.000 A 
ATOM     13  C   UNL     1       1.828   9.512  17.866  0.00  0.00    +0.000 A 
ATOM     14  C   UNL     1       2.573   8.341  17.764  0.00  0.00    +0.000 A 
ATOM     15  C   UNL     1       2.507   7.397  18.785  0.00  0.00    +0.000 A 
ATOM     16  C   UNL     1       1.840   7.716  19.980  0.00  0.00    +0.000 A 
ATOM     17  C   UNL     1       1.095   8.892  20.089  0.00  0.00    +0.000 A 
BRANCH  12  19
ATOM     18  C   UNL     1      -1.087  10.329  18.114  0.00  0.00    +0.000 C 
ATOM     19  O   UNL     1       0.032  10.696  18.932  0.00  0.00    +0.000 OA
ENDBRANCH  12  19
BRANCH  17  20
ATOM     20  O   UNL     1       0.439   9.029  21.283  0.00  0.00    +0.000 OA
ATOM     21  C   UNL     1       1.261   9.326  22.409  0.00  0.00    +0.000 C 
ENDBRANCH  17  20
ENDBRANCH   1  15
BRANCH   3  22
ATOM     22  C   UNL     1       5.322   3.984  16.961  0.00  0.00    +0.000 C 
BRANCH  22  23
ATOM     23  C   UNL     1       6.029   4.113  15.648  0.00  0.00    +0.000 A 
ATOM     24  C   UNL     1       7.062   5.024  15.433  0.00  0.00    +0.000 A 
ATOM     25  C   UNL     1       7.484   5.286  14.131  0.00  0.00    +0.000 A 
ATOM     26  C   UNL     1       6.864   4.616  13.088  0.00  0.00    +0.000 A 
ATOM     27  N   UNL     1       5.897   3.693  13.259  0.00  0.00    +0.000 NA
ATOM     28  C   UNL     1       5.504   3.463  14.532  0.00  0.00    +0.000 A 
ENDBRANCH  22  23
ENDBRANCH   3  22
TORSDOF 5
ENDMDL
MODEL 7
REMARK VINA RESULT:      -8.2      0.870      1.008
REMARK  Name = 
REMARK  7 active torsions:
REMARK  status: ('A' for Active; 'I' for Inactive)
REMARK    1  A    between atoms: C_1  and  O_2
REMARK    2  A    between atoms: O_2  and  C_3
REMARK    3  A    between atoms: C_6  and  C_7
REMARK    4  A    between atoms: N_9  and  C_10
REMARK    5  A    between atoms: C_10  and  C_11
REMARK    6  A    between atoms: C_26  and  O_27
REMARK    7  A    between atoms: O_27  and  C_28
REMARK                            x       y       z     vdW  Elec       q    Type
REMARK                         _______ _______ _______ _____ _____    ______ ____
ROOT
ATOM      1  C   UNL     1       2.890   6.389  18.806  0.00  0.00    +0.000 C 
ATOM      2  N   UNL     1       4.044   6.399  18.205  0.00  0.00    +0.000 NA
ATOM      3  N   UNL     1       4.452   5.248  17.542  0.00  0.00    +0.000 N 
ATOM      4  C   UNL     1       3.560   4.189  17.278  0.00  0.00    +0.000 C 
ATOM      5  O   UNL     1       3.648   3.428  16.324  0.00  0.00    +0.000 OA
ATOM      6  C   UNL     1       2.751   3.882  18.505  0.00  0.00    +0.000 C 
ATOM      7  C   UNL     1       1.653   2.828  18.420  0.00  0.00    +0.000 C 
ATOM      8  C   UNL     1       1.192   2.498  19.855  0.00  0.00    +0.000 C 
ATOM      9  C   UNL     1       0.872   3.738  20.712  0.00  0.00    +0.000 C 
ATOM     10  C   UNL     1       1.922   4.846  20.584  0.00  0.00    +0.000 C 
ATOM     11  C   UNL     1       2.124   5.128  19.093  0.00  0.00    +0.000 C 
ENDROOT
BRANCH   1  15
ATOM     12  C   UNL     1       0.343   9.702  19.450  0.00  0.00    +0.000 A 
ATOM     13  C   UNL     1       1.128   9.652  18.292  0.00  0.00    +0.000 A 
ATOM     14  C   UNL     1       2.067   8.639  18.125  0.00  0.00    +0.000 A 
ATOM     15  C   UNL     1       2.242   7.696  19.135  0.00  0.00    +0.000 A 
ATOM     16  C   UNL     1       1.607   7.884  20.374  0.00  0.00    +0.000 A 
ATOM     17  C   UNL     1       0.667   8.902  20.547  0.00  0.00    +0.000 A 
BRANCH  12  19
ATOM     18  C   UNL     1      -0.606  11.732  18.804  0.00  0.00    +0.000 C 
ATOM     19  O   UNL     1      -0.782  10.482  19.485  0.00  0.00    +0.000 OA
ENDBRANCH  12  19
BRANCH  17  20
ATOM     20  O   UNL     1       0.075   8.912  21.782  0.00  0.00    +0.000 OA
ATOM     21  C   UNL     1       0.493   9.956  22.658  0.00  0.00    +0.000 C 
ENDBRANCH  17  20
ENDBRANCH   1  15
BRANCH   3  22
ATOM     22  C   UNL     1       5.837   4.861  17.745  0.00  0.00    +0.000 C 
BRANCH  22  23
ATOM     23  C   UNL     1       6.867   5.945  17.828  0.00  0.00    +0.000 A 
ATOM     24  C   UNL     1       7.747   6.071  18.902  0.00  0.00    +0.000 A 
ATOM     25  C   UNL     1       8.481   7.245  19.052  0.00  0.00    +0.000 A 
ATOM     26  C   UNL     1       8.319   8.250  18.112  0.00  0.00    +0.000 A 
ATOM     27  N   UNL     1       7.516   8.148  17.034  0.00  0.00    +0.000 NA
ATOM     28  C   UNL     1       6.812   7.000  16.917  0.00  0.00    +0.000 A 
ENDBRANCH  22  23
ENDBRANCH   3  22
TORSDOF 5
ENDMDL
MODEL 8
REMARK VINA RESULT:      -8.2      2.499      6.531
REMARK  Name = 
REMARK  7 active torsions:
REMARK  status: ('A' for Active; 'I' for Inactive)
REMARK    1  A    between atoms: C_1  and  O_2
REMARK    2  A    between atoms: O_2  and  C_3
REMARK    3  A    between atoms: C_6  and  C_7
REMARK    4  A    between atoms: N_9  and  C_10
REMARK    5  A    between atoms: C_10  and  C_11
REMARK    6  A    between atoms: C_26  and  O_27
REMARK    7  A    between atoms: O_27  and  C_28
REMARK                            x       y       z     vdW  Elec       q    Type
REMARK                         _______ _______ _______ _____ _____    ______ ____
ROOT
ATOM      1  C   UNL     1       3.401   5.589  17.782  0.00  0.00    +0.000 C 
ATOM      2  N   UNL     1       3.164   6.866  17.712  0.00  0.00    +0.000 NA
ATOM      3  N   UNL     1       2.368   7.444  18.693  0.00  0.00    +0.000 N 
ATOM      4  C   UNL     1       2.043   6.758  19.882  0.00  0.00    +0.000 C 
ATOM      5  O   UNL     1       1.820   7.298  20.957  0.00  0.00    +0.000 OA
ATOM      6  C   UNL     1       1.623   5.352  19.563  0.00  0.00    +0.000 C 
ATOM      7  C   UNL     1       1.312   4.397  20.710  0.00  0.00    +0.000 C 
ATOM      8  C   UNL     1       0.632   3.144  20.121  0.00  0.00    +0.000 C 
ATOM      9  C   UNL     1       1.374   2.533  18.917  0.00  0.00    +0.000 C 
ATOM     10  C   UNL     1       1.839   3.583  17.902  0.00  0.00    +0.000 C 
ATOM     11  C   UNL     1       2.621   4.655  18.664  0.00  0.00    +0.000 C 
ENDROOT
BRANCH   1  15
ATOM     12  C   UNL     1       6.867   4.849  15.474  0.00  0.00    +0.000 A 
ATOM     13  C   UNL     1       5.604   4.711  14.885  0.00  0.00    +0.000 A 
ATOM     14  C   UNL     1       4.453   4.821  15.659  0.00  0.00    +0.000 A 
ATOM     15  C   UNL     1       4.570   5.035  17.031  0.00  0.00    +0.000 A 
ATOM     16  C   UNL     1       5.834   4.956  17.638  0.00  0.00    +0.000 A 
ATOM     17  C   UNL     1       6.991   4.842  16.864  0.00  0.00    +0.000 A 
BRANCH  12  19
ATOM     18  C   UNL     1       7.656   5.096  13.294  0.00  0.00    +0.000 C 
ATOM     19  O   UNL     1       7.971   5.062  14.693  0.00  0.00    +0.000 OA
ENDBRANCH  12  19
BRANCH  17  20
ATOM     20  O   UNL     1       8.152   4.853  17.591  0.00  0.00    +0.000 OA
ATOM     21  C   UNL     1       8.073   5.469  18.874  0.00  0.00    +0.000 C 
ENDBRANCH  17  20
ENDBRANCH   1  15
BRANCH   3  22
ATOM     22  C   UNL     1       1.368   8.385  18.222  0.00  0.00    +0.000 C 
BRANCH  22  23
ATOM     23  C   UNL     1       1.436   9.795  18.722  0.00  0.00    +0.000 A 
ATOM     24  C   UNL     1       0.564  10.297  19.688  0.00  0.00    +0.000 A 
ATOM     25  C   UNL     1       0.499  11.671  19.904  0.00  0.00    +0.000 A 
ATOM     26  C   UNL     1       1.320  12.497  19.153  0.00  0.00    +0.000 A 
ATOM     27  N   UNL     1       2.211  12.048  18.246  0.00  0.00    +0.000 NA
ATOM     28  C   UNL     1       2.247  10.710  18.054  0.00  0.00    +0.000 A 
ENDBRANCH  22  23
ENDBRANCH   3  22
TORSDOF 5
ENDMDL
MODEL 9
REMARK VINA RESULT:      -7.9      1.251      2.175
REMARK  Name = 
REMARK  7 active torsions:
REMARK  status: ('A' for Active; 'I' for Inactive)
REMARK    1  A    between atoms: C_1  and  O_2
REMARK    2  A    between atoms: O_2  and  C_3
REMARK    3  A    between atoms: C_6  and  C_7
REMARK    4  A    between atoms: N_9  and  C_10
REMARK    5  A    between atoms: C_10  and  C_11
REMARK    6  A    between atoms: C_26  and  O_27
REMARK    7  A    between atoms: O_27  and  C_28
REMARK                            x       y       z     vdW  Elec       q    Type
REMARK                         _______ _______ _______ _____ _____    ______ ____
ROOT
ATOM      1  C   UNL     1       2.607   6.145  19.304  0.00  0.00    +0.000 C 
ATOM      2  N   UNL     1       3.798   6.374  18.836  0.00  0.00    +0.000 NA
ATOM      3  N   UNL     1       4.385   5.410  18.026  0.00  0.00    +0.000 N 
ATOM      4  C   UNL     1       3.640   4.340  17.489  0.00  0.00    +0.000 C 
ATOM      5  O   UNL     1       3.891   3.781  16.430  0.00  0.00    +0.000 OA
ATOM      6  C   UNL     1       2.771   3.737  18.554  0.00  0.00    +0.000 C 
ATOM      7  C   UNL     1       1.807   2.618  18.174  0.00  0.00    +0.000 C 
ATOM      8  C   UNL     1       1.267   1.986  19.474  0.00  0.00    +0.000 C 
ATOM      9  C   UNL     1       0.742   3.010  20.499  0.00  0.00    +0.000 C 
ATOM     10  C   UNL     1       1.671   4.215  20.675  0.00  0.00    +0.000 C 
ATOM     11  C   UNL     1       1.963   4.787  19.286  0.00  0.00    +0.000 C 
ENDROOT
BRANCH   1  15
ATOM     12  C   UNL     1       1.071   9.746  20.905  0.00  0.00    +0.000 A 
ATOM     13  C   UNL     1       1.066   8.585  21.689  0.00  0.00    +0.000 A 
ATOM     14  C   UNL     1       1.444   7.365  21.138  0.00  0.00    +0.000 A 
ATOM     15  C   UNL     1       1.793   7.302  19.791  0.00  0.00    +0.000 A 
ATOM     16  C   UNL     1       1.586   8.423  18.970  0.00  0.00    +0.000 A 
ATOM     17  C   UNL     1       1.203   9.649  19.519  0.00  0.00    +0.000 A 
BRANCH  12  19
ATOM     18  C   UNL     1      -0.254  11.237  22.112  0.00  0.00    +0.000 C 
ATOM     19  O   UNL     1       1.016  10.979  21.499  0.00  0.00    +0.000 OA
ENDBRANCH  12  19
BRANCH  17  20
ATOM     20  O   UNL     1       1.115  10.666  18.607  0.00  0.00    +0.000 OA
ATOM     21  C   UNL     1      -0.197  11.165  18.361  0.00  0.00    +0.000 C 
ENDBRANCH  17  20
ENDBRANCH   1  15
BRANCH   3  22
ATOM     22  C   UNL     1       5.783   5.124  18.297  0.00  0.00    +0.000 C 
BRANCH  22  23
ATOM     23  C   UNL     1       6.779   6.222  18.092  0.00  0.00    +0.000 A 
ATOM     24  C   UNL     1       7.848   6.443  18.960  0.00  0.00    +0.000 A 
ATOM     25  C   UNL     1       8.567   7.633  18.872  0.00  0.00    +0.000 A 
ATOM     26  C   UNL     1       8.198   8.558  17.908  0.00  0.00    +0.000 A 
ATOM     27  N   UNL     1       7.204   8.360  17.019  0.00  0.00    +0.000 NA
ATOM     28  C   UNL     1       6.520   7.199  17.133  0.00  0.00    +0.000 A 
ENDBRANCH  22  23
ENDBRANCH   3  22
TORSDOF 5
ENDMDL
