MODEL 1
REMARK VINA RESULT:      -8.0      0.000      0.000
REMARK  Name = 
REMARK  4 active torsions:
REMARK  status: ('A' for Active; 'I' for Inactive)
REMARK    1  A    between atoms: C_1  and  C_2
REMARK    2  A    between atoms: C_4  and  C_5
REMARK    3  A    between atoms: C_7  and  C_8
REMARK    4  A    between atoms: N_10  and  C_11
REMARK                            x       y       z     vdW  Elec       q    Type
REMARK                         _______ _______ _______ _____ _____    ______ ____
ROOT
ATOM      1  C   UNL     1       6.821   4.728  17.460  0.00  0.00    +0.000 A 
ATOM      2  N   UNL     1       7.972   4.902  18.078  0.00  0.00    +0.000 NA
ATOM      3  C   UNL     1       7.589   5.160  19.370  0.00  0.00    +0.000 A 
ATOM      4  C   UNL     1       8.556   5.430  20.455  0.00  0.00    +0.000 C 
ATOM      5  N   UNL     1       6.269   5.149  19.588  0.00  0.00    +0.000 NA
ATOM      6  N   UNL     1       5.791   4.724  18.393  0.00  0.00    +0.000 N 
ENDROOT
BRANCH   1  10
ATOM      7  C   UNL     1       5.904   3.380  12.701  0.00  0.00    +0.000 C 
ATOM      8  C   UNL     1       6.306   4.103  13.929  0.00  0.00    +0.000 A 
ATOM      9  C   UNL     1       5.928   3.808  15.255  0.00  0.00    +0.000 A 
ATOM     10  C   UNL     1       6.671   4.658  16.045  0.00  0.00    +0.000 A 
ATOM     11  N   UNL     1       7.300   5.501  15.172  0.00  0.00    +0.000 N 
ATOM     12  N   UNL     1       7.150   5.143  13.881  0.00  0.00    +0.000 NA
ATOM     13  H   UNL     1       7.891   6.293  15.397  0.00  0.00    +0.000 HD
ENDBRANCH   1  10
BRANCH   6  14
ATOM     14  C   UNL     1       4.440   4.314  18.252  0.00  0.00    +0.000 A 
ATOM     15  C   UNL     1       4.101   2.969  18.463  0.00  0.00    +0.000 A 
ATOM     16  C   UNL     1       2.764   2.575  18.391  0.00  0.00    +0.000 A 
ATOM     17  C   UNL     1       1.784   3.510  18.074  0.00  0.00    +0.000 A 
ATOM     18  F   UNL     1       0.502   3.129  18.015  0.00  0.00    +0.000 F 
ATOM     19  C   UNL     1       2.114   4.835  17.817  0.00  0.00    +0.000 A 
ATOM     20  C   UNL     1       3.444   5.240  17.898  0.00  0.00    +0.000 A 
ENDBRANCH   6  14
TORSDOF 2
ENDMDL
MODEL 2
REMARK VINA RESULT:      -7.7      0.102      1.116
REMARK  Name = 
REMARK  4 active torsions:
REMARK  status: ('A' for Active; 'I' for Inactive)
REMARK    1  A    between atoms: C_1  and  C_2
REMARK    2  A    between atoms: C_4  and  C_5
REMARK    3  A    between atoms: C_7  and  C_8
REMARK    4  A    between atoms: N_10  and  C_11
REMARK                            x       y       z     vdW  Elec       q    Type
REMARK                         _______ _______ _______ _____ _____    ______ ____
ROOT
ATOM      1  C   UNL     1       6.821   4.744  17.471  0.00  0.00    +0.000 A 
ATOM      2  N   UNL     1       7.978   4.928  18.075  0.00  0.00    +0.000 NA
ATOM      3  C   UNL     1       7.608   5.215  19.365  0.00  0.00    +0.000 A 
ATOM      4  C   UNL     1       8.585   5.505  20.435  0.00  0.00    +0.000 C 
ATOM      5  N   UNL     1       6.290   5.212  19.595  0.00  0.00    +0.000 NA
ATOM      6  N   UNL     1       5.800   4.761  18.413  0.00  0.00    +0.000 N 
ENDROOT
BRANCH   1  10
ATOM      7  C   UNL     1       5.928   3.272  12.744  0.00  0.00    +0.000 C 
ATOM      8  C   UNL     1       6.302   4.036  13.957  0.00  0.00    +0.000 A 
ATOM      9  C   UNL     1       5.958   3.739  15.292  0.00  0.00    +0.000 A 
ATOM     10  C   UNL     1       6.659   4.643  16.059  0.00  0.00    +0.000 A 
ATOM     11  N   UNL     1       7.226   5.509  15.167  0.00  0.00    +0.000 N 
ATOM     12  N   UNL     1       7.081   5.123  13.883  0.00  0.00    +0.000 NA
ATOM     13  H   UNL     1       7.771   6.338  15.373  0.00  0.00    +0.000 HD
ENDBRANCH   1  10
BRANCH   6  14
ATOM     14  C   UNL     1       4.447   4.352  18.294  0.00  0.00    +0.000 A 
ATOM     15  C   UNL     1       3.455   5.314  18.052  0.00  0.00    +0.000 A 
ATOM     16  C   UNL     1       2.131   4.908  17.867  0.00  0.00    +0.000 A 
ATOM     17  C   UNL     1       1.802   3.560  17.961  0.00  0.00    +0.000 A 
ATOM     18  F   UNL     1       0.533   3.175  17.774  0.00  0.00    +0.000 F 
ATOM     19  C   UNL     1       2.769   2.604  18.247  0.00  0.00    +0.000 A 
ATOM     20  C   UNL     1       4.094   2.999  18.422  0.00  0.00    +0.000 A 
ENDBRANCH   6  14
TORSDOF 2
ENDMDL
MODEL 3
REMARK VINA RESULT:      -7.5      2.231      4.256
REMARK  Name = 
REMARK  4 active torsions:
REMARK  status: ('A' for Active; 'I' for Inactive)
REMARK    1  A    between atoms: C_1  and  C_2
REMARK    2  A    between atoms: C_4  and  C_5
REMARK    3  A    between atoms: C_7  and  C_8
REMARK    4  A    between atoms: N_10  and  C_11
REMARK                            x       y       z     vdW  Elec       q    Type
REMARK                         _______ _______ _______ _____ _____    ______ ____
ROOT
ATOM      1  C   UNL     1       6.499   5.750  16.344  0.00  0.00    +0.000 A 
ATOM      2  N   UNL     1       6.949   5.457  15.140  0.00  0.00    +0.000 NA
ATOM      3  C   UNL     1       6.143   4.415  14.758  0.00  0.00    +0.000 A 
ATOM      4  C   UNL     1       6.275   3.734  13.452  0.00  0.00    +0.000 C 
ATOM      5  N   UNL     1       5.216   4.052  15.652  0.00  0.00    +0.000 NA
ATOM      6  N   UNL     1       5.353   5.009  16.602  0.00  0.00    +0.000 N 
ENDROOT
BRANCH   1  10
ATOM      7  C   UNL     1       8.831   9.570  18.641  0.00  0.00    +0.000 C 
ATOM      8  C   UNL     1       8.211   8.267  18.308  0.00  0.00    +0.000 A 
ATOM      9  C   UNL     1       7.338   7.988  17.236  0.00  0.00    +0.000 A 
ATOM     10  C   UNL     1       7.159   6.622  17.258  0.00  0.00    +0.000 A 
ATOM     11  N   UNL     1       7.773   6.197  18.402  0.00  0.00    +0.000 N 
ATOM     12  N   UNL     1       8.477   7.166  19.022  0.00  0.00    +0.000 NA
ATOM     13  H   UNL     1       7.798   5.255  18.776  0.00  0.00    +0.000 HD
ENDBRANCH   1  10
BRANCH   6  14
ATOM     14  C   UNL     1       4.382   5.166  17.624  0.00  0.00    +0.000 A 
ATOM     15  C   UNL     1       4.219   4.153  18.582  0.00  0.00    +0.000 A 
ATOM     16  C   UNL     1       3.312   4.333  19.628  0.00  0.00    +0.000 A 
ATOM     17  C   UNL     1       2.551   5.495  19.691  0.00  0.00    +0.000 A 
ATOM     18  F   UNL     1       1.689   5.665  20.702  0.00  0.00    +0.000 F 
ATOM     19  C   UNL     1       2.670   6.483  18.722  0.00  0.00    +0.000 A 
ATOM     20  C   UNL     1       3.581   6.318  17.681  0.00  0.00    +0.000 A 
ENDBRANCH   6  14
TORSDOF 2
ENDMDL
MODEL 4
REMARK VINA RESULT:      -7.5      2.096      4.316
REMARK  Name = 
REMARK  4 active torsions:
REMARK  status: ('A' for Active; 'I' for Inactive)
REMARK    1  A    between atoms: C_1  and  C_2
REMARK    2  A    between atoms: C_4  and  C_5
REMARK    3  A    between atoms: C_7  and  C_8
REMARK    4  A    between atoms: N_10  and  C_11
REMARK                            x       y       z     vdW  Elec       q    Type
REMARK                         _______ _______ _______ _____ _____    ______ ____
ROOT
ATOM      1  C   UNL     1       6.411   5.622  16.146  0.00  0.00    +0.000 A 
ATOM      2  N   UNL     1       6.856   5.381  14.929  0.00  0.00    +0.000 NA
ATOM      3  C   UNL     1       6.075   4.329  14.521  0.00  0.00    +0.000 A 
ATOM      4  C   UNL     1       6.212   3.696  13.193  0.00  0.00    +0.000 C 
ATOM      5  N   UNL     1       5.168   3.912  15.411  0.00  0.00    +0.000 NA
ATOM      6  N   UNL     1       5.288   4.842  16.391  0.00  0.00    +0.000 N 
ENDROOT
BRANCH   1  10
ATOM      7  C   UNL     1       8.678   9.423  18.539  0.00  0.00    +0.000 C 
ATOM      8  C   UNL     1       8.080   8.118  18.173  0.00  0.00    +0.000 A 
ATOM      9  C   UNL     1       7.212   7.851  17.094  0.00  0.00    +0.000 A 
ATOM     10  C   UNL     1       7.056   6.482  17.082  0.00  0.00    +0.000 A 
ATOM     11  N   UNL     1       7.677   6.039  18.216  0.00  0.00    +0.000 N 
ATOM     12  N   UNL     1       8.365   7.004  18.860  0.00  0.00    +0.000 NA
ATOM     13  H   UNL     1       7.718   5.089  18.566  0.00  0.00    +0.000 HD
ENDBRANCH   1  10
BRANCH   6  14
ATOM     14  C   UNL     1       4.324   4.938  17.427  0.00  0.00    +0.000 A 
ATOM     15  C   UNL     1       3.609   6.133  17.595  0.00  0.00    +0.000 A 
ATOM     16  C   UNL     1       2.612   6.209  18.570  0.00  0.00    +0.000 A 
ATOM     17  C   UNL     1       2.363   5.114  19.390  0.00  0.00    +0.000 A 
ATOM     18  F   UNL     1       1.400   5.190  20.318  0.00  0.00    +0.000 F 
ATOM     19  C   UNL     1       3.097   3.941  19.264  0.00  0.00    +0.000 A 
ATOM     20  C   UNL     1       4.085   3.852  18.286  0.00  0.00    +0.000 A 
ENDBRANCH   6  14
TORSDOF 2
ENDMDL
MODEL 5
REMARK VINA RESULT:      -7.3      2.402      3.539
REMARK  Name = 
REMARK  4 active torsions:
REMARK  status: ('A' for Active; 'I' for Inactive)
REMARK    1  A    between atoms: C_1  and  C_2
REMARK    2  A    between atoms: C_4  and  C_5
REMARK    3  A    between atoms: C_7  and  C_8
REMARK    4  A    between atoms: N_10  and  C_11
REMARK                            x       y       z     vdW  Elec       q    Type
REMARK                         _______ _______ _______ _____ _____    ______ ____
ROOT
ATOM      1  C   UNL     1       4.118   6.742  17.266  0.00  0.00    +0.000 A 
ATOM      2  N   UNL     1       3.759   7.992  17.479  0.00  0.00    +0.000 NA
ATOM      3  C   UNL     1       2.539   7.860  18.091  0.00  0.00    +0.000 A 
ATOM      4  C   UNL     1       1.728   9.017  18.525  0.00  0.00    +0.000 C 
ATOM      5  N   UNL     1       2.126   6.601  18.277  0.00  0.00    +0.000 NA
ATOM      6  N   UNL     1       3.211   5.889  17.882  0.00  0.00    +0.000 N 
ENDROOT
BRANCH   1  10
ATOM      7  C   UNL     1       7.204   4.577  13.935  0.00  0.00    +0.000 C 
ATOM      8  C   UNL     1       6.621   5.412  15.011  0.00  0.00    +0.000 A 
ATOM      9  C   UNL     1       5.253   5.643  15.264  0.00  0.00    +0.000 A 
ATOM     10  C   UNL     1       5.216   6.349  16.446  0.00  0.00    +0.000 A 
ATOM     11  N   UNL     1       6.520   6.639  16.734  0.00  0.00    +0.000 N 
ATOM     12  N   UNL     1       7.397   6.023  15.915  0.00  0.00    +0.000 NA
ATOM     13  H   UNL     1       6.873   7.195  17.504  0.00  0.00    +0.000 HD
ENDBRANCH   1  10
BRANCH   6  14
ATOM     14  C   UNL     1       3.312   4.501  18.158  0.00  0.00    +0.000 A 
ATOM     15  C   UNL     1       2.539   3.593  17.419  0.00  0.00    +0.000 A 
ATOM     16  C   UNL     1       2.685   2.222  17.641  0.00  0.00    +0.000 A 
ATOM     17  C   UNL     1       3.566   1.770  18.617  0.00  0.00    +0.000 A 
ATOM     18  F   UNL     1       3.709   0.454  18.820  0.00  0.00    +0.000 F 
ATOM     19  C   UNL     1       4.302   2.662  19.387  0.00  0.00    +0.000 A 
ATOM     20  C   UNL     1       4.172   4.031  19.164  0.00  0.00    +0.000 A 
ENDBRANCH   6  14
TORSDOF 2
ENDMDL
MODEL 6
REMARK VINA RESULT:      -7.2      3.168      4.753
REMARK  Name = 
REMARK  4 active torsions:
REMARK  status: ('A' for Active; 'I' for Inactive)
REMARK    1  A    between atoms: C_1  and  C_2
REMARK    2  A    between atoms: C_4  and  C_5
REMARK    3  A    between atoms: C_7  and  C_8
REMARK    4  A    between atoms: N_10  and  C_11
REMARK                            x       y       z     vdW  Elec       q    Type
REMARK                         _______ _______ _______ _____ _____    ______ ____
ROOT
ATOM      1  C   UNL     1       3.628   4.297  19.607  0.00  0.00    +0.000 A 
ATOM      2  N   UNL     1       3.308   3.140  20.151  0.00  0.00    +0.000 NA
ATOM      3  C   UNL     1       2.267   3.470  20.981  0.00  0.00    +0.000 A 
ATOM      4  C   UNL     1       1.566   2.478  21.824  0.00  0.00    +0.000 C 
ATOM      5  N   UNL     1       1.919   4.762  20.976  0.00  0.00    +0.000 NA
ATOM      6  N   UNL     1       2.697   5.258  19.982  0.00  0.00    +0.000 N 
ENDROOT
BRANCH   1  10
ATOM      7  C   UNL     1       7.181   4.514  16.052  0.00  0.00    +0.000 C 
ATOM      8  C   UNL     1       6.412   4.627  17.313  0.00  0.00    +0.000 A 
ATOM      9  C   UNL     1       5.018   4.487  17.477  0.00  0.00    +0.000 A 
ATOM     10  C   UNL     1       4.806   4.525  18.838  0.00  0.00    +0.000 A 
ATOM     11  N   UNL     1       6.017   4.846  19.382  0.00  0.00    +0.000 N 
ATOM     12  N   UNL     1       7.023   4.846  18.484  0.00  0.00    +0.000 NA
ATOM     13  H   UNL     1       6.230   5.014  20.359  0.00  0.00    +0.000 HD
ENDBRANCH   1  10
BRANCH   6  14
ATOM     14  C   UNL     1       2.465   6.553  19.453  0.00  0.00    +0.000 A 
ATOM     15  C   UNL     1       2.848   6.838  18.134  0.00  0.00    +0.000 A 
ATOM     16  C   UNL     1       2.561   8.090  17.587  0.00  0.00    +0.000 A 
ATOM     17  C   UNL     1       1.934   9.057  18.366  0.00  0.00    +0.000 A 
ATOM     18  F   UNL     1       1.654  10.254  17.834  0.00  0.00    +0.000 F 
ATOM     19  C   UNL     1       1.593   8.802  19.688  0.00  0.00    +0.000 A 
ATOM     20  C   UNL     1       1.864   7.551  20.238  0.00  0.00    +0.000 A 
ENDBRANCH   6  14
TORSDOF 2
ENDMDL
MODEL 7
REMARK VINA RESULT:      -7.2      3.172      4.780
REMARK  Name = 
REMARK  4 active torsions:
REMARK  status: ('A' for Active; 'I' for Inactive)
REMARK    1  A    between atoms: C_1  and  C_2
REMARK    2  A    between atoms: C_4  and  C_5
REMARK    3  A    between atoms: C_7  and  C_8
REMARK    4  A    between atoms: N_10  and  C_11
REMARK                            x       y       z     vdW  Elec       q    Type
REMARK                         _______ _______ _______ _____ _____    ______ ____
ROOT
ATOM      1  C   UNL     1       3.634   4.288  19.612  0.00  0.00    +0.000 A 
ATOM      2  N   UNL     1       3.329   3.136  20.176  0.00  0.00    +0.000 NA
ATOM      3  C   UNL     1       2.278   3.464  20.994  0.00  0.00    +0.000 A 
ATOM      4  C   UNL     1       1.588   2.477  21.851  0.00  0.00    +0.000 C 
ATOM      5  N   UNL     1       1.910   4.750  20.964  0.00  0.00    +0.000 NA
ATOM      6  N   UNL     1       2.685   5.240  19.965  0.00  0.00    +0.000 N 
ENDROOT
BRANCH   1  10
ATOM      7  C   UNL     1       7.192   4.518  16.064  0.00  0.00    +0.000 C 
ATOM      8  C   UNL     1       6.420   4.628  17.324  0.00  0.00    +0.000 A 
ATOM      9  C   UNL     1       5.027   4.483  17.485  0.00  0.00    +0.000 A 
ATOM     10  C   UNL     1       4.812   4.521  18.845  0.00  0.00    +0.000 A 
ATOM     11  N   UNL     1       6.021   4.846  19.392  0.00  0.00    +0.000 N 
ATOM     12  N   UNL     1       7.029   4.850  18.496  0.00  0.00    +0.000 NA
ATOM     13  H   UNL     1       6.231   5.015  20.369  0.00  0.00    +0.000 HD
ENDBRANCH   1  10
BRANCH   6  14
ATOM     14  C   UNL     1       2.437   6.522  19.411  0.00  0.00    +0.000 A 
ATOM     15  C   UNL     1       1.823   7.507  20.200  0.00  0.00    +0.000 A 
ATOM     16  C   UNL     1       1.637   8.790  19.680  0.00  0.00    +0.000 A 
ATOM     17  C   UNL     1       2.026   9.070  18.375  0.00  0.00    +0.000 A 
ATOM     18  F   UNL     1       1.854  10.304  17.885  0.00  0.00    +0.000 F 
ATOM     19  C   UNL     1       2.592   8.089  17.569  0.00  0.00    +0.000 A 
ATOM     20  C   UNL     1       2.792   6.810  18.083  0.00  0.00    +0.000 A 
ENDBRANCH   6  14
TORSDOF 2
ENDMDL
MODEL 8
REMARK VINA RESULT:      -7.1      1.540      1.940
REMARK  Name = 
REMARK  4 active torsions:
REMARK  status: ('A' for Active; 'I' for Inactive)
REMARK    1  A    between atoms: C_1  and  C_2
REMARK    2  A    between atoms: C_4  and  C_5
REMARK    3  A    between atoms: C_7  and  C_8
REMARK    4  A    between atoms: N_10  and  C_11
REMARK                            x       y       z     vdW  Elec       q    Type
REMARK                         _______ _______ _______ _____ _____    ______ ____
ROOT
ATOM      1  C   UNL     1       6.649   5.693  16.059  0.00  0.00    +0.000 A 
ATOM      2  N   UNL     1       7.676   6.462  16.358  0.00  0.00    +0.000 NA
ATOM      3  C   UNL     1       7.302   7.021  17.554  0.00  0.00    +0.000 A 
ATOM      4  C   UNL     1       8.150   7.978  18.293  0.00  0.00    +0.000 C 
ATOM      5  N   UNL     1       6.106   6.636  18.015  0.00  0.00    +0.000 NA
ATOM      6  N   UNL     1       5.760   5.671  17.127  0.00  0.00    +0.000 N 
ENDROOT
BRANCH   1  10
ATOM      7  C   UNL     1       5.163   2.840  12.190  0.00  0.00    +0.000 C 
ATOM      8  C   UNL     1       5.850   3.822  13.062  0.00  0.00    +0.000 A 
ATOM      9  C   UNL     1       5.413   4.304  14.313  0.00  0.00    +0.000 A 
ATOM     10  C   UNL     1       6.453   5.069  14.793  0.00  0.00    +0.000 A 
ATOM     11  N   UNL     1       7.351   5.141  13.765  0.00  0.00    +0.000 N 
ATOM     12  N   UNL     1       7.041   4.336  12.728  0.00  0.00    +0.000 NA
ATOM     13  H   UNL     1       8.217   5.667  13.738  0.00  0.00    +0.000 HD
ENDBRANCH   1  10
BRANCH   6  14
ATOM     14  C   UNL     1       4.670   4.801  17.384  0.00  0.00    +0.000 A 
ATOM     15  C   UNL     1       3.374   5.330  17.479  0.00  0.00    +0.000 A 
ATOM     16  C   UNL     1       2.290   4.469  17.665  0.00  0.00    +0.000 A 
ATOM     17  C   UNL     1       2.507   3.101  17.792  0.00  0.00    +0.000 A 
ATOM     18  F   UNL     1       1.463   2.280  17.962  0.00  0.00    +0.000 F 
ATOM     19  C   UNL     1       3.791   2.572  17.747  0.00  0.00    +0.000 A 
ATOM     20  C   UNL     1       4.877   3.422  17.550  0.00  0.00    +0.000 A 
ENDBRANCH   6  14
TORSDOF 2
ENDMDL
MODEL 9
REMARK VINA RESULT:      -7.1      2.363      3.462
REMARK  Name = 
REMARK  4 active torsions:
REMARK  status: ('A' for Active; 'I' for Inactive)
REMARK    1  A    between atoms: C_1  and  C_2
REMARK    2  A    between atoms: C_4  and  C_5
REMARK    3  A    between atoms: C_7  and  C_8
REMARK    4  A    between atoms: N_10  and  C_11
REMARK                            x       y       z     vdW  Elec       q    Type
REMARK                         _______ _______ _______ _____ _____    ______ ____
ROOT
ATOM      1  C   UNL     1       4.165   6.686  17.218  0.00  0.00    +0.000 A 
ATOM      2  N   UNL     1       3.805   7.931  17.457  0.00  0.00    +0.000 NA
ATOM      3  C   UNL     1       2.591   7.784  18.079  0.00  0.00    +0.000 A 
ATOM      4  C   UNL     1       1.782   8.931  18.541  0.00  0.00    +0.000 C 
ATOM      5  N   UNL     1       2.183   6.521  18.245  0.00  0.00    +0.000 NA
ATOM      6  N   UNL     1       3.266   5.819  17.827  0.00  0.00    +0.000 N 
ENDROOT
BRANCH   1  10
ATOM      7  C   UNL     1       7.222   4.593  13.814  0.00  0.00    +0.000 C 
ATOM      8  C   UNL     1       6.649   5.404  14.914  0.00  0.00    +0.000 A 
ATOM      9  C   UNL     1       5.283   5.631  15.183  0.00  0.00    +0.000 A 
ATOM     10  C   UNL     1       5.256   6.311  16.381  0.00  0.00    +0.000 A 
ATOM     11  N   UNL     1       6.562   6.593  16.664  0.00  0.00    +0.000 N 
ATOM     12  N   UNL     1       7.432   5.995  15.825  0.00  0.00    +0.000 NA
ATOM     13  H   UNL     1       6.922   7.131  17.444  0.00  0.00    +0.000 HD
ENDBRANCH   1  10
BRANCH   6  14
ATOM     14  C   UNL     1       3.373   4.427  18.076  0.00  0.00    +0.000 A 
ATOM     15  C   UNL     1       4.247   3.970  19.074  0.00  0.00    +0.000 A 
ATOM     16  C   UNL     1       4.306   2.606  19.367  0.00  0.00    +0.000 A 
ATOM     17  C   UNL     1       3.527   1.709  18.645  0.00  0.00    +0.000 A 
ATOM     18  F   UNL     1       3.580   0.403  18.936  0.00  0.00    +0.000 F 
ATOM     19  C   UNL     1       2.692   2.146  17.623  0.00  0.00    +0.000 A 
ATOM     20  C   UNL     1       2.618   3.506  17.331  0.00  0.00    +0.000 A 
ENDBRANCH   6  14
TORSDOF 2
ENDMDL
