MODEL 1
REMARK VINA RESULT:      -7.4      0.000      0.000
REMARK  Name = 
REMARK  9 active torsions:
REMARK  status: ('A' for Active; 'I' for Inactive)
REMARK    1  A    between atoms: C_1  and  C_2
REMARK    2  A    between atoms: C_2  and  O_3
REMARK    3  A    between atoms: O_3  and  C_4
REMARK    4  A    between atoms: C_7  and  C_8
REMARK    5  A    between atoms: C_9  and  C_10
REMARK    6  A    between atoms: C_13  and  C_14
REMARK    7  A    between atoms: C_14  and  C_15
REMARK    8  A    between atoms: C_14  and  N_16
REMARK    9  A    between atoms: C_17  and  C_18
REMARK                            x       y       z     vdW  Elec       q    Type
REMARK                         _______ _______ _______ _____ _____    ______ ____
ROOT
ATOM      1  C   UNL     1       7.373   7.468  17.754  0.00  0.00    +0.000 A 
ATOM      2  C   UNL     1       6.224   7.714  17.000  0.00  0.00    +0.000 A 
ATOM      3  C   UNL     1       5.450   6.647  16.524  0.00  0.00    +0.000 A 
ATOM      4  C   UNL     1       5.818   5.318  16.795  0.00  0.00    +0.000 A 
ATOM      5  C   UNL     1       6.983   5.091  17.548  0.00  0.00    +0.000 A 
ATOM      6  C   UNL     1       7.749   6.155  18.027  0.00  0.00    +0.000 A 
ENDROOT
BRANCH   1   8
ATOM      7  C   UNL     1       8.830   9.491  18.600  0.00  0.00    +0.000 C 
ATOM      8  C   UNL     1       8.175   8.550  18.234  0.00  0.00    +0.000 C 
BRANCH   7  12
ATOM      9  C   UNL     1      11.041  12.862  19.616  0.00  0.00    +0.000 A 
ATOM     10  C   UNL     1      10.443  12.152  20.646  0.00  0.00    +0.000 A 
ATOM     11  C   UNL     1       9.706  11.010  20.325  0.00  0.00    +0.000 A 
ATOM     12  C   UNL     1       9.572  10.646  18.987  0.00  0.00    +0.000 A 
ATOM     13  C   UNL     1      10.185  11.436  18.028  0.00  0.00    +0.000 A 
ATOM     14  N   UNL     1      10.923  12.536  18.314  0.00  0.00    +0.000 NA
BRANCH   9  15
ATOM     15  O   UNL     1      11.764  13.986  19.961  0.00  0.00    +0.000 OA
BRANCH  15  17
ATOM     16  C   UNL     1      10.263  15.834  19.689  0.00  0.00    +0.000 C 
ATOM     17  C   UNL     1      11.454  15.095  19.110  0.00  0.00    +0.000 C 
ENDBRANCH  15  17
ENDBRANCH   9  15
ENDBRANCH   7  12
ENDBRANCH   1   8
BRANCH   4  18
ATOM     18  C   UNL     1       4.987   4.149  16.279  0.00  0.00    +0.000 C 
ATOM     19  C   UNL     1       5.732   3.419  15.154  0.00  0.00    +0.000 C 
BRANCH  18  20
ATOM     20  N   UNL     1       4.660   3.241  17.377  0.00  0.00    +0.000 N 
ATOM     21  C   UNL     1       3.380   2.807  17.628  0.00  0.00    +0.000 C 
ATOM     22  C   UNL     1       3.249   1.873  18.808  0.00  0.00    +0.000 C 
ATOM     23  O   UNL     1       2.403   3.159  16.974  0.00  0.00    +0.000 OA
ATOM     24  H   UNL     1       5.421   2.872  17.930  0.00  0.00    +0.000 HD
ENDBRANCH  18  20
ENDBRANCH   4  18
TORSDOF 6
ENDMDL
MODEL 2
REMARK VINA RESULT:      -7.3      7.134      8.785
REMARK  Name = 
REMARK  9 active torsions:
REMARK  status: ('A' for Active; 'I' for Inactive)
REMARK    1  A    between atoms: C_1  and  C_2
REMARK    2  A    between atoms: C_2  and  O_3
REMARK    3  A    between atoms: O_3  and  C_4
REMARK    4  A    between atoms: C_7  and  C_8
REMARK    5  A    between atoms: C_9  and  C_10
REMARK    6  A    between atoms: C_13  and  C_14
REMARK    7  A    between atoms: C_14  and  C_15
REMARK    8  A    between atoms: C_14  and  N_16
REMARK    9  A    between atoms: C_17  and  C_18
REMARK                            x       y       z     vdW  Elec       q    Type
REMARK                         _______ _______ _______ _____ _____    ______ ____
ROOT
ATOM      1  C   UNL     1       2.303   6.793  19.715  0.00  0.00    +0.000 A 
ATOM      2  C   UNL     1       2.835   6.956  18.435  0.00  0.00    +0.000 A 
ATOM      3  C   UNL     1       3.485   5.888  17.799  0.00  0.00    +0.000 A 
ATOM      4  C   UNL     1       3.612   4.644  18.441  0.00  0.00    +0.000 A 
ATOM      5  C   UNL     1       3.077   4.503  19.732  0.00  0.00    +0.000 A 
ATOM      6  C   UNL     1       2.424   5.565  20.361  0.00  0.00    +0.000 A 
ENDROOT
BRANCH   1   8
ATOM      7  C   UNL     1       1.052   8.778  20.910  0.00  0.00    +0.000 C 
ATOM      8  C   UNL     1       1.648   7.880  20.375  0.00  0.00    +0.000 C 
BRANCH   7  12
ATOM      9  C   UNL     1      -1.222  11.722  22.768  0.00  0.00    +0.000 A 
ATOM     10  C   UNL     1      -0.721  11.999  21.505  0.00  0.00    +0.000 A 
ATOM     11  C   UNL     1       0.035  11.017  20.861  0.00  0.00    +0.000 A 
ATOM     12  C   UNL     1       0.285   9.815  21.519  0.00  0.00    +0.000 A 
ATOM     13  C   UNL     1      -0.237   9.643  22.791  0.00  0.00    +0.000 A 
ATOM     14  N   UNL     1      -0.991  10.571  23.430  0.00  0.00    +0.000 NA
BRANCH   9  15
ATOM     15  O   UNL     1      -1.966  12.708  23.382  0.00  0.00    +0.000 OA
BRANCH  15  17
ATOM     16  C   UNL     1      -4.099  12.431  24.441  0.00  0.00    +0.000 C 
ATOM     17  C   UNL     1      -3.366  12.555  23.118  0.00  0.00    +0.000 C 
ENDBRANCH  15  17
ENDBRANCH   9  15
ENDBRANCH   7  12
ENDBRANCH   1   8
BRANCH   4  18
ATOM     18  C   UNL     1       4.321   3.477  17.762  0.00  0.00    +0.000 C 
ATOM     19  C   UNL     1       3.468   2.206  17.858  0.00  0.00    +0.000 C 
BRANCH  18  20
ATOM     20  N   UNL     1       4.622   3.812  16.372  0.00  0.00    +0.000 N 
ATOM     21  C   UNL     1       5.886   4.141  15.942  0.00  0.00    +0.000 C 
ATOM     22  C   UNL     1       5.991   4.454  14.468  0.00  0.00    +0.000 C 
ATOM     23  O   UNL     1       6.860   4.206  16.685  0.00  0.00    +0.000 OA
ATOM     24  H   UNL     1       3.878   3.735  15.692  0.00  0.00    +0.000 HD
ENDBRANCH  18  20
ENDBRANCH   4  18
TORSDOF 6
ENDMDL
MODEL 3
REMARK VINA RESULT:      -7.3      0.631      1.431
REMARK  Name = 
REMARK  9 active torsions:
REMARK  status: ('A' for Active; 'I' for Inactive)
REMARK    1  A    between atoms: C_1  and  C_2
REMARK    2  A    between atoms: C_2  and  O_3
REMARK    3  A    between atoms: O_3  and  C_4
REMARK    4  A    between atoms: C_7  and  C_8
REMARK    5  A    between atoms: C_9  and  C_10
REMARK    6  A    between atoms: C_13  and  C_14
REMARK    7  A    between atoms: C_14  and  C_15
REMARK    8  A    between atoms: C_14  and  N_16
REMARK    9  A    between atoms: C_17  and  C_18
REMARK                            x       y       z     vdW  Elec       q    Type
REMARK                         _______ _______ _______ _____ _____    ______ ____
ROOT
ATOM      1  C   UNL     1       7.441   7.453  17.809  0.00  0.00    +0.000 A 
ATOM      2  C   UNL     1       7.747   6.147  18.191  0.00  0.00    +0.000 A 
ATOM      3  C   UNL     1       6.966   5.076  17.735  0.00  0.00    +0.000 A 
ATOM      4  C   UNL     1       5.864   5.302  16.892  0.00  0.00    +0.000 A 
ATOM      5  C   UNL     1       5.568   6.626  16.526  0.00  0.00    +0.000 A 
ATOM      6  C   UNL     1       6.350   7.690  16.975  0.00  0.00    +0.000 A 
ENDROOT
BRANCH   1   8
ATOM      7  C   UNL     1       8.856   9.510  18.646  0.00  0.00    +0.000 C 
ATOM      8  C   UNL     1       8.225   8.553  18.279  0.00  0.00    +0.000 C 
BRANCH   7  12
ATOM      9  C   UNL     1      10.842  12.935  19.917  0.00  0.00    +0.000 A 
ATOM     10  C   UNL     1      10.911  12.615  18.569  0.00  0.00    +0.000 A 
ATOM     11  C   UNL     1      10.240  11.475  18.122  0.00  0.00    +0.000 A 
ATOM     12  C   UNL     1       9.557  10.686  19.045  0.00  0.00    +0.000 A 
ATOM     13  C   UNL     1       9.569  11.075  20.375  0.00  0.00    +0.000 A 
ATOM     14  N   UNL     1      10.194  12.187  20.832  0.00  0.00    +0.000 NA
BRANCH   9  15
ATOM     15  O   UNL     1      11.513  14.067  20.332  0.00  0.00    +0.000 OA
BRANCH  15  17
ATOM     16  C   UNL     1      10.158  16.016  20.000  0.00  0.00    +0.000 C 
ATOM     17  C   UNL     1      11.288  15.169  19.446  0.00  0.00    +0.000 C 
ENDBRANCH  15  17
ENDBRANCH   9  15
ENDBRANCH   7  12
ENDBRANCH   1   8
BRANCH   4  18
ATOM     18  C   UNL     1       5.004   4.146  16.393  0.00  0.00    +0.000 C 
ATOM     19  C   UNL     1       5.721   3.396  15.264  0.00  0.00    +0.000 C 
BRANCH  18  20
ATOM     20  N   UNL     1       4.673   3.252  17.501  0.00  0.00    +0.000 N 
ATOM     21  C   UNL     1       3.400   2.783  17.724  0.00  0.00    +0.000 C 
ATOM     22  C   UNL     1       3.263   1.870  18.920  0.00  0.00    +0.000 C 
ATOM     23  O   UNL     1       2.432   3.090  17.035  0.00  0.00    +0.000 OA
ATOM     24  H   UNL     1       5.428   2.918  18.083  0.00  0.00    +0.000 HD
ENDBRANCH  18  20
ENDBRANCH   4  18
TORSDOF 6
ENDMDL
MODEL 4
REMARK VINA RESULT:      -7.3      1.084      1.738
REMARK  Name = 
REMARK  9 active torsions:
REMARK  status: ('A' for Active; 'I' for Inactive)
REMARK    1  A    between atoms: C_1  and  C_2
REMARK    2  A    between atoms: C_2  and  O_3
REMARK    3  A    between atoms: O_3  and  C_4
REMARK    4  A    between atoms: C_7  and  C_8
REMARK    5  A    between atoms: C_9  and  C_10
REMARK    6  A    between atoms: C_13  and  C_14
REMARK    7  A    between atoms: C_14  and  C_15
REMARK    8  A    between atoms: C_14  and  N_16
REMARK    9  A    between atoms: C_17  and  C_18
REMARK                            x       y       z     vdW  Elec       q    Type
REMARK                         _______ _______ _______ _____ _____    ______ ____
ROOT
ATOM      1  C   UNL     1       7.642   7.736  17.937  0.00  0.00    +0.000 A 
ATOM      2  C   UNL     1       7.952   6.497  18.499  0.00  0.00    +0.000 A 
ATOM      3  C   UNL     1       7.199   5.362  18.166  0.00  0.00    +0.000 A 
ATOM      4  C   UNL     1       6.123   5.456  17.267  0.00  0.00    +0.000 A 
ATOM      5  C   UNL     1       5.822   6.714  16.719  0.00  0.00    +0.000 A 
ATOM      6  C   UNL     1       6.577   7.841  17.046  0.00  0.00    +0.000 A 
ENDROOT
BRANCH   1   8
ATOM      7  C   UNL     1       9.061   9.875  18.524  0.00  0.00    +0.000 C 
ATOM      8  C   UNL     1       8.398   8.901  18.280  0.00  0.00    +0.000 C 
BRANCH   7  12
ATOM      9  C   UNL     1      11.419  13.211  19.300  0.00  0.00    +0.000 A 
ATOM     10  C   UNL     1      11.082  12.956  17.979  0.00  0.00    +0.000 A 
ATOM     11  C   UNL     1      10.281  11.847  17.701  0.00  0.00    +0.000 A 
ATOM     12  C   UNL     1       9.878  11.022  18.749  0.00  0.00    +0.000 A 
ATOM     13  C   UNL     1      10.290  11.346  20.032  0.00  0.00    +0.000 A 
ATOM     14  N   UNL     1      11.049  12.427  20.332  0.00  0.00    +0.000 NA
BRANCH   9  15
ATOM     15  O   UNL     1      12.211  14.313  19.548  0.00  0.00    +0.000 OA
BRANCH  15  17
ATOM     16  C   UNL     1      12.330  16.471  18.512  0.00  0.00    +0.000 C 
ATOM     17  C   UNL     1      11.488  15.535  19.359  0.00  0.00    +0.000 C 
ENDBRANCH  15  17
ENDBRANCH   9  15
ENDBRANCH   7  12
ENDBRANCH   1   8
BRANCH   4  18
ATOM     18  C   UNL     1       5.293   4.231  16.901  0.00  0.00    +0.000 C 
ATOM     19  C   UNL     1       5.914   3.505  15.700  0.00  0.00    +0.000 C 
BRANCH  18  20
ATOM     20  N   UNL     1       5.172   3.342  18.055  0.00  0.00    +0.000 N 
ATOM     21  C   UNL     1       4.146   3.439  18.965  0.00  0.00    +0.000 C 
ATOM     22  C   UNL     1       4.198   2.429  20.087  0.00  0.00    +0.000 C 
ATOM     23  O   UNL     1       3.262   4.288  18.904  0.00  0.00    +0.000 OA
ATOM     24  H   UNL     1       5.838   2.588  18.146  0.00  0.00    +0.000 HD
ENDBRANCH  18  20
ENDBRANCH   4  18
TORSDOF 6
ENDMDL
MODEL 5
REMARK VINA RESULT:      -7.3      1.027      1.474
REMARK  Name = 
REMARK  9 active torsions:
REMARK  status: ('A' for Active; 'I' for Inactive)
REMARK    1  A    between atoms: C_1  and  C_2
REMARK    2  A    between atoms: C_2  and  O_3
REMARK    3  A    between atoms: O_3  and  C_4
REMARK    4  A    between atoms: C_7  and  C_8
REMARK    5  A    between atoms: C_9  and  C_10
REMARK    6  A    between atoms: C_13  and  C_14
REMARK    7  A    between atoms: C_14  and  C_15
REMARK    8  A    between atoms: C_14  and  N_16
REMARK    9  A    between atoms: C_17  and  C_18
REMARK                            x       y       z     vdW  Elec       q    Type
REMARK                         _______ _______ _______ _____ _____    ______ ____
ROOT
ATOM      1  C   UNL     1       7.587   7.762  17.875  0.00  0.00    +0.000 A 
ATOM      2  C   UNL     1       7.932   6.518  18.405  0.00  0.00    +0.000 A 
ATOM      3  C   UNL     1       7.171   5.382  18.097  0.00  0.00    +0.000 A 
ATOM      4  C   UNL     1       6.051   5.479  17.254  0.00  0.00    +0.000 A 
ATOM      5  C   UNL     1       5.714   6.742  16.737  0.00  0.00    +0.000 A 
ATOM      6  C   UNL     1       6.477   7.871  17.041  0.00  0.00    +0.000 A 
ENDROOT
BRANCH   1   8
ATOM      7  C   UNL     1       8.962   9.937  18.432  0.00  0.00    +0.000 C 
ATOM      8  C   UNL     1       8.351   8.928  18.194  0.00  0.00    +0.000 C 
BRANCH   7  12
ATOM      9  C   UNL     1      10.880  13.575  19.048  0.00  0.00    +0.000 A 
ATOM     10  C   UNL     1      11.307  12.489  19.796  0.00  0.00    +0.000 A 
ATOM     11  C   UNL     1      10.683  11.256  19.594  0.00  0.00    +0.000 A 
ATOM     12  C   UNL     1       9.637  11.169  18.677  0.00  0.00    +0.000 A 
ATOM     13  C   UNL     1       9.265  12.318  17.997  0.00  0.00    +0.000 A 
ATOM     14  N   UNL     1       9.868  13.521  18.159  0.00  0.00    +0.000 NA
BRANCH   9  15
ATOM     15  O   UNL     1      11.514  14.781  19.266  0.00  0.00    +0.000 OA
BRANCH  15  17
ATOM     16  C   UNL     1      10.425  15.797  21.143  0.00  0.00    +0.000 C 
ATOM     17  C   UNL     1      10.586  15.807  19.635  0.00  0.00    +0.000 C 
ENDBRANCH  15  17
ENDBRANCH   9  15
ENDBRANCH   7  12
ENDBRANCH   1   8
BRANCH   4  18
ATOM     18  C   UNL     1       5.211   4.253  16.915  0.00  0.00    +0.000 C 
ATOM     19  C   UNL     1       5.774   3.548  15.674  0.00  0.00    +0.000 C 
BRANCH  18  20
ATOM     20  N   UNL     1       5.156   3.349  18.062  0.00  0.00    +0.000 N 
ATOM     21  C   UNL     1       4.122   3.358  18.968  0.00  0.00    +0.000 C 
ATOM     22  C   UNL     1       4.249   2.346  20.083  0.00  0.00    +0.000 C 
ATOM     23  O   UNL     1       3.174   4.134  18.909  0.00  0.00    +0.000 OA
ATOM     24  H   UNL     1       5.879   2.648  18.150  0.00  0.00    +0.000 HD
ENDBRANCH  18  20
ENDBRANCH   4  18
TORSDOF 6
ENDMDL
MODEL 6
REMARK VINA RESULT:      -7.2      1.583     10.255
REMARK  Name = 
REMARK  9 active torsions:
REMARK  status: ('A' for Active; 'I' for Inactive)
REMARK    1  A    between atoms: C_1  and  C_2
REMARK    2  A    between atoms: C_2  and  O_3
REMARK    3  A    between atoms: O_3  and  C_4
REMARK    4  A    between atoms: C_7  and  C_8
REMARK    5  A    between atoms: C_9  and  C_10
REMARK    6  A    between atoms: C_13  and  C_14
REMARK    7  A    between atoms: C_14  and  C_15
REMARK    8  A    between atoms: C_14  and  N_16
REMARK    9  A    between atoms: C_17  and  C_18
REMARK                            x       y       z     vdW  Elec       q    Type
REMARK                         _______ _______ _______ _____ _____    ______ ____
ROOT
ATOM      1  C   UNL     1       8.986  10.392  18.582  0.00  0.00    +0.000 A 
ATOM      2  C   UNL     1       9.758  10.495  19.741  0.00  0.00    +0.000 A 
ATOM      3  C   UNL     1      10.350  11.717  20.089  0.00  0.00    +0.000 A 
ATOM      4  C   UNL     1      10.179  12.852  19.278  0.00  0.00    +0.000 A 
ATOM      5  C   UNL     1       9.406  12.725  18.111  0.00  0.00    +0.000 A 
ATOM      6  C   UNL     1       8.811  11.510  17.770  0.00  0.00    +0.000 A 
ENDROOT
BRANCH   1   8
ATOM      7  C   UNL     1       7.838   8.118  17.920  0.00  0.00    +0.000 C 
ATOM      8  C   UNL     1       8.388   9.147  18.214  0.00  0.00    +0.000 C 
BRANCH   7  12
ATOM      9  C   UNL     1       5.660   4.716  16.933  0.00  0.00    +0.000 A 
ATOM     10  C   UNL     1       6.881   4.536  17.566  0.00  0.00    +0.000 A 
ATOM     11  C   UNL     1       7.620   5.667  17.915  0.00  0.00    +0.000 A 
ATOM     12  C   UNL     1       7.125   6.928  17.589  0.00  0.00    +0.000 A 
ATOM     13  C   UNL     1       5.907   7.003  16.933  0.00  0.00    +0.000 A 
ATOM     14  N   UNL     1       5.159   5.922  16.601  0.00  0.00    +0.000 NA
BRANCH   9  15
ATOM     15  O   UNL     1       4.948   3.582  16.600  0.00  0.00    +0.000 OA
BRANCH  15  17
ATOM     16  C   UNL     1       2.644   3.434  17.244  0.00  0.00    +0.000 C 
ATOM     17  C   UNL     1       4.079   3.172  17.662  0.00  0.00    +0.000 C 
ENDBRANCH  15  17
ENDBRANCH   9  15
ENDBRANCH   7  12
ENDBRANCH   1   8
BRANCH   4  18
ATOM     18  C   UNL     1      10.822  14.185  19.642  0.00  0.00    +0.000 C 
ATOM     19  C   UNL     1      12.333  14.137  19.387  0.00  0.00    +0.000 C 
BRANCH  18  20
ATOM     20  N   UNL     1      10.190  15.270  18.893  0.00  0.00    +0.000 N 
ATOM     21  C   UNL     1       9.210  16.072  19.428  0.00  0.00    +0.000 C 
ATOM     22  C   UNL     1       8.684  17.136  18.493  0.00  0.00    +0.000 C 
ATOM     23  O   UNL     1       8.764  15.935  20.563  0.00  0.00    +0.000 OA
ATOM     24  H   UNL     1      10.538  15.472  17.966  0.00  0.00    +0.000 HD
ENDBRANCH  18  20
ENDBRANCH   4  18
TORSDOF 6
ENDMDL
MODEL 7
REMARK VINA RESULT:      -7.2      0.941      1.256
REMARK  Name = 
REMARK  9 active torsions:
REMARK  status: ('A' for Active; 'I' for Inactive)
REMARK    1  A    between atoms: C_1  and  C_2
REMARK    2  A    between atoms: C_2  and  O_3
REMARK    3  A    between atoms: O_3  and  C_4
REMARK    4  A    between atoms: C_7  and  C_8
REMARK    5  A    between atoms: C_9  and  C_10
REMARK    6  A    between atoms: C_13  and  C_14
REMARK    7  A    between atoms: C_14  and  C_15
REMARK    8  A    between atoms: C_14  and  N_16
REMARK    9  A    between atoms: C_17  and  C_18
REMARK                            x       y       z     vdW  Elec       q    Type
REMARK                         _______ _______ _______ _____ _____    ______ ____
ROOT
ATOM      1  C   UNL     1       7.483   7.599  17.870  0.00  0.00    +0.000 A 
ATOM      2  C   UNL     1       6.360   7.753  17.057  0.00  0.00    +0.000 A 
ATOM      3  C   UNL     1       5.562   6.646  16.736  0.00  0.00    +0.000 A 
ATOM      4  C   UNL     1       5.882   5.368  17.224  0.00  0.00    +0.000 A 
ATOM      5  C   UNL     1       7.022   5.232  18.035  0.00  0.00    +0.000 A 
ATOM      6  C   UNL     1       7.811   6.336  18.358  0.00  0.00    +0.000 A 
ENDROOT
BRANCH   1   8
ATOM      7  C   UNL     1       8.960   9.692  18.476  0.00  0.00    +0.000 C 
ATOM      8  C   UNL     1       8.309   8.720  18.193  0.00  0.00    +0.000 C 
BRANCH   7  12
ATOM      9  C   UNL     1      10.984  13.141  19.614  0.00  0.00    +0.000 A 
ATOM     10  C   UNL     1      10.981  12.814  18.266  0.00  0.00    +0.000 A 
ATOM     11  C   UNL     1      10.296  11.665  17.865  0.00  0.00    +0.000 A 
ATOM     12  C   UNL     1       9.672  10.876  18.829  0.00  0.00    +0.000 A 
ATOM     13  C   UNL     1       9.755  11.273  20.154  0.00  0.00    +0.000 A 
ATOM     14  N   UNL     1      10.395  12.394  20.568  0.00  0.00    +0.000 NA
BRANCH   9  15
ATOM     15  O   UNL     1      11.667  14.281  19.985  0.00  0.00    +0.000 OA
BRANCH  15  17
ATOM     16  C   UNL     1      10.242  16.183  19.671  0.00  0.00    +0.000 C 
ATOM     17  C   UNL     1      11.392  15.373  19.100  0.00  0.00    +0.000 C 
ENDBRANCH  15  17
ENDBRANCH   9  15
ENDBRANCH   7  12
ENDBRANCH   1   8
BRANCH   4  18
ATOM     18  C   UNL     1       5.025   4.155  16.878  0.00  0.00    +0.000 C 
ATOM     19  C   UNL     1       5.578   3.448  15.635  0.00  0.00    +0.000 C 
BRANCH  18  20
ATOM     20  N   UNL     1       4.955   3.247  18.021  0.00  0.00    +0.000 N 
ATOM     21  C   UNL     1       3.976   3.332  18.982  0.00  0.00    +0.000 C 
ATOM     22  C   UNL     1       4.077   2.302  20.082  0.00  0.00    +0.000 C 
ATOM     23  O   UNL     1       3.095   4.186  18.980  0.00  0.00    +0.000 OA
ATOM     24  H   UNL     1       5.621   2.488  18.066  0.00  0.00    +0.000 HD
ENDBRANCH  18  20
ENDBRANCH   4  18
TORSDOF 6
ENDMDL
MODEL 8
REMARK VINA RESULT:      -7.2      7.017      8.585
REMARK  Name = 
REMARK  9 active torsions:
REMARK  status: ('A' for Active; 'I' for Inactive)
REMARK    1  A    between atoms: C_1  and  C_2
REMARK    2  A    between atoms: C_2  and  O_3
REMARK    3  A    between atoms: O_3  and  C_4
REMARK    4  A    between atoms: C_7  and  C_8
REMARK    5  A    between atoms: C_9  and  C_10
REMARK    6  A    between atoms: C_13  and  C_14
REMARK    7  A    between atoms: C_14  and  C_15
REMARK    8  A    between atoms: C_14  and  N_16
REMARK    9  A    between atoms: C_17  and  C_18
REMARK                            x       y       z     vdW  Elec       q    Type
REMARK                         _______ _______ _______ _____ _____    ______ ____
ROOT
ATOM      1  C   UNL     1       2.272   6.538  19.829  0.00  0.00    +0.000 A 
ATOM      2  C   UNL     1       2.326   5.253  20.371  0.00  0.00    +0.000 A 
ATOM      3  C   UNL     1       2.986   4.224  19.686  0.00  0.00    +0.000 A 
ATOM      4  C   UNL     1       3.600   4.469  18.446  0.00  0.00    +0.000 A 
ATOM      5  C   UNL     1       3.527   5.768  17.913  0.00  0.00    +0.000 A 
ATOM      6  C   UNL     1       2.875   6.792  18.600  0.00  0.00    +0.000 A 
ENDROOT
BRANCH   1   8
ATOM      7  C   UNL     1       1.019   8.506  21.050  0.00  0.00    +0.000 C 
ATOM      8  C   UNL     1       1.591   7.591  20.516  0.00  0.00    +0.000 C 
BRANCH   7  12
ATOM      9  C   UNL     1      -0.891  11.836  22.647  0.00  0.00    +0.000 A 
ATOM     10  C   UNL     1      -1.116  10.612  23.258  0.00  0.00    +0.000 A 
ATOM     11  C   UNL     1      -0.474   9.484  22.743  0.00  0.00    +0.000 A 
ATOM     12  C   UNL     1       0.340   9.623  21.620  0.00  0.00    +0.000 A 
ATOM     13  C   UNL     1       0.480  10.884  21.064  0.00  0.00    +0.000 A 
ATOM     14  N   UNL     1      -0.115  11.998  21.557  0.00  0.00    +0.000 NA
BRANCH   9  15
ATOM     15  O   UNL     1      -1.537  12.934  23.177  0.00  0.00    +0.000 OA
BRANCH  15  17
ATOM     16  C   UNL     1      -3.686  13.025  22.118  0.00  0.00    +0.000 C 
ATOM     17  C   UNL     1      -2.930  12.677  23.387  0.00  0.00    +0.000 C 
ENDBRANCH  15  17
ENDBRANCH   9  15
ENDBRANCH   7  12
ENDBRANCH   1   8
BRANCH   4  18
ATOM     18  C   UNL     1       4.317   3.358  17.688  0.00  0.00    +0.000 C 
ATOM     19  C   UNL     1       3.542   2.040  17.814  0.00  0.00    +0.000 C 
BRANCH  18  20
ATOM     20  N   UNL     1       4.496   3.738  16.288  0.00  0.00    +0.000 N 
ATOM     21  C   UNL     1       5.720   4.071  15.758  0.00  0.00    +0.000 C 
ATOM     22  C   UNL     1       5.696   4.435  14.292  0.00  0.00    +0.000 C 
ATOM     23  O   UNL     1       6.758   4.102  16.412  0.00  0.00    +0.000 OA
ATOM     24  H   UNL     1       3.693   3.690  15.677  0.00  0.00    +0.000 HD
ENDBRANCH  18  20
ENDBRANCH   4  18
TORSDOF 6
ENDMDL
MODEL 9
REMARK VINA RESULT:      -7.0      1.640     10.287
REMARK  Name = 
REMARK  9 active torsions:
REMARK  status: ('A' for Active; 'I' for Inactive)
REMARK    1  A    between atoms: C_1  and  C_2
REMARK    2  A    between atoms: C_2  and  O_3
REMARK    3  A    between atoms: O_3  and  C_4
REMARK    4  A    between atoms: C_7  and  C_8
REMARK    5  A    between atoms: C_9  and  C_10
REMARK    6  A    between atoms: C_13  and  C_14
REMARK    7  A    between atoms: C_14  and  C_15
REMARK    8  A    between atoms: C_14  and  N_16
REMARK    9  A    between atoms: C_17  and  C_18
REMARK                            x       y       z     vdW  Elec       q    Type
REMARK                         _______ _______ _______ _____ _____    ______ ____
ROOT
ATOM      1  C   UNL     1       8.901  10.432  18.314  0.00  0.00    +0.000 A 
ATOM      2  C   UNL     1       9.964  10.570  19.207  0.00  0.00    +0.000 A 
ATOM      3  C   UNL     1      10.566  11.821  19.401  0.00  0.00    +0.000 A 
ATOM      4  C   UNL     1      10.112  12.951  18.699  0.00  0.00    +0.000 A 
ATOM      5  C   UNL     1       9.045  12.789  17.798  0.00  0.00    +0.000 A 
ATOM      6  C   UNL     1       8.443  11.544  17.611  0.00  0.00    +0.000 A 
ENDROOT
BRANCH   1   8
ATOM      7  C   UNL     1       7.731   8.110  17.902  0.00  0.00    +0.000 C 
ATOM      8  C   UNL     1       8.288   9.158  18.102  0.00  0.00    +0.000 C 
BRANCH   7  12
ATOM      9  C   UNL     1       5.753   4.530  17.152  0.00  0.00    +0.000 A 
ATOM     10  C   UNL     1       5.226   5.684  16.593  0.00  0.00    +0.000 A 
ATOM     11  C   UNL     1       5.884   6.894  16.824  0.00  0.00    +0.000 A 
ATOM     12  C   UNL     1       7.020   6.904  17.630  0.00  0.00    +0.000 A 
ATOM     13  C   UNL     1       7.453   5.702  18.166  0.00  0.00    +0.000 A 
ATOM     14  N   UNL     1       6.846   4.511  17.941  0.00  0.00    +0.000 NA
BRANCH   9  15
ATOM     15  O   UNL     1       5.085   3.348  16.908  0.00  0.00    +0.000 OA
BRANCH  15  17
ATOM     16  C   UNL     1       3.507   1.906  17.992  0.00  0.00    +0.000 C 
ATOM     17  C   UNL     1       3.802   3.325  17.545  0.00  0.00    +0.000 C 
ENDBRANCH  15  17
ENDBRANCH   9  15
ENDBRANCH   7  12
ENDBRANCH   1   8
BRANCH   4  18
ATOM     18  C   UNL     1      10.761  14.316  18.897  0.00  0.00    +0.000 C 
ATOM     19  C   UNL     1      12.116  14.372  18.180  0.00  0.00    +0.000 C 
BRANCH  18  20
ATOM     20  N   UNL     1       9.866  15.371  18.427  0.00  0.00    +0.000 N 
ATOM     21  C   UNL     1       9.020  16.058  19.265  0.00  0.00    +0.000 C 
ATOM     22  C   UNL     1       8.176  17.111  18.587  0.00  0.00    +0.000 C 
ATOM     23  O   UNL     1       8.923  15.832  20.467  0.00  0.00    +0.000 OA
ATOM     24  H   UNL     1       9.923  15.645  17.456  0.00  0.00    +0.000 HD
ENDBRANCH  18  20
ENDBRANCH   4  18
TORSDOF 6
ENDMDL
