MODEL 1
REMARK VINA RESULT:      -8.3      0.000      0.000
REMARK  Name = 
REMARK  9 active torsions:
REMARK  status: ('A' for Active; 'I' for Inactive)
REMARK    1  A    between atoms: C_1  and  C_2
REMARK    2  A    between atoms: C_2  and  O_3
REMARK    3  A    between atoms: O_3  and  C_4
REMARK    4  A    between atoms: C_4  and  C_6
REMARK    5  A    between atoms: C_9  and  N_10
REMARK    6  A    between atoms: C_11  and  C_13
REMARK    7  A    between atoms: C_16  and  C_17
REMARK    8  A    between atoms: C_17  and  C_18
REMARK    9  A    between atoms: C_18  and  N_19
REMARK                            x       y       z     vdW  Elec       q    Type
REMARK                         _______ _______ _______ _____ _____    ______ ____
ROOT
ATOM      1  C   UNL     1       8.143   8.411  18.270  0.00  0.00    +0.000 A 
ATOM      2  C   UNL     1       7.175   8.157  17.284  0.00  0.00    +0.000 A 
ATOM      3  C   UNL     1       6.600   6.891  17.135  0.00  0.00    +0.000 A 
ATOM      4  C   UNL     1       6.994   5.832  17.961  0.00  0.00    +0.000 A 
ATOM      5  C   UNL     1       7.960   6.083  18.946  0.00  0.00    +0.000 A 
ATOM      6  C   UNL     1       8.537   7.361  19.105  0.00  0.00    +0.000 A 
ENDROOT
BRANCH   1   8
ATOM      7  N   UNL     1       9.334  10.198  19.500  0.00  0.00    +0.000 N 
ATOM      8  C   UNL     1       8.701   9.803  18.327  0.00  0.00    +0.000 C 
ATOM      9  O   UNL     1       8.557  10.502  17.325  0.00  0.00    +0.000 OA
ATOM     10  H   UNL     1       9.470   9.509  20.224  0.00  0.00    +0.000 HD
BRANCH   7  14
ATOM     11  C   UNL     1      10.889  14.073  20.269  0.00  0.00    +0.000 A 
ATOM     12  C   UNL     1       9.525  13.830  20.433  0.00  0.00    +0.000 A 
ATOM     13  C   UNL     1       8.997  12.559  20.187  0.00  0.00    +0.000 A 
ATOM     14  C   UNL     1       9.819  11.501  19.779  0.00  0.00    +0.000 A 
ATOM     15  C   UNL     1      11.194  11.739  19.649  0.00  0.00    +0.000 A 
ATOM     16  C   UNL     1      11.727  13.018  19.883  0.00  0.00    +0.000 A 
BRANCH  11  17
ATOM     17  C   UNL     1      11.365  15.470  20.448  0.00  0.00    +0.000 C 
ATOM     18  O   UNL     1      11.752  15.927  21.513  0.00  0.00    +0.000 OA
BRANCH  17  19
ATOM     19  O   UNL     1      11.193  16.167  19.300  0.00  0.00    +0.000 OA
BRANCH  19  21
ATOM     20  C   UNL     1      11.093  16.054  16.914  0.00  0.00    +0.000 C 
ATOM     21  C   UNL     1      11.857  15.617  18.153  0.00  0.00    +0.000 C 
ENDBRANCH  19  21
ENDBRANCH  17  19
ENDBRANCH  11  17
ENDBRANCH   7  14
ENDBRANCH   1   8
BRANCH   4  22
ATOM     22  C   UNL     1       6.330   4.469  17.837  0.00  0.00    +0.000 C 
BRANCH  22  23
ATOM     23  C   UNL     1       5.376   4.341  16.626  0.00  0.00    +0.000 C 
BRANCH  23  24
ATOM     24  N   UNL     1       4.002   3.966  16.998  0.00  0.00    +0.000 NA
ATOM     25  C   UNL     1       3.251   5.118  17.532  0.00  0.00    +0.000 C 
ATOM     26  C   UNL     1       1.804   4.697  17.877  0.00  0.00    +0.000 C 
ATOM     27  C   UNL     1       1.897   3.754  19.049  0.00  0.00    +0.000 A 
ATOM     28  C   UNL     1       0.971   3.785  20.092  0.00  0.00    +0.000 A 
ATOM     29  C   UNL     1       1.319   3.233  21.321  0.00  0.00    +0.000 A 
ATOM     30  C   UNL     1       2.574   2.643  21.490  0.00  0.00    +0.000 A 
ATOM     31  C   UNL     1       3.431   2.481  20.399  0.00  0.00    +0.000 A 
ATOM     32  C   UNL     1       3.076   2.996  19.151  0.00  0.00    +0.000 A 
ATOM     33  C   UNL     1       3.929   2.798  17.907  0.00  0.00    +0.000 C 
ENDBRANCH  23  24
ENDBRANCH  22  23
ENDBRANCH   4  22
TORSDOF 8
ENDMDL
MODEL 2
REMARK VINA RESULT:      -8.2      8.313     11.632
REMARK  Name = 
REMARK  9 active torsions:
REMARK  status: ('A' for Active; 'I' for Inactive)
REMARK    1  A    between atoms: C_1  and  C_2
REMARK    2  A    between atoms: C_2  and  O_3
REMARK    3  A    between atoms: O_3  and  C_4
REMARK    4  A    between atoms: C_4  and  C_6
REMARK    5  A    between atoms: C_9  and  N_10
REMARK    6  A    between atoms: C_11  and  C_13
REMARK    7  A    between atoms: C_16  and  C_17
REMARK    8  A    between atoms: C_17  and  C_18
REMARK    9  A    between atoms: C_18  and  N_19
REMARK                            x       y       z     vdW  Elec       q    Type
REMARK                         _______ _______ _______ _____ _____    ______ ____
ROOT
ATOM      1  C   UNL     1       1.313   8.857  19.780  0.00  0.00    +0.000 A 
ATOM      2  C   UNL     1       0.672  10.090  19.573  0.00  0.00    +0.000 A 
ATOM      3  C   UNL     1      -0.086  10.697  20.579  0.00  0.00    +0.000 A 
ATOM      4  C   UNL     1      -0.242  10.073  21.823  0.00  0.00    +0.000 A 
ATOM      5  C   UNL     1       0.397   8.842  22.032  0.00  0.00    +0.000 A 
ATOM      6  C   UNL     1       1.169   8.230  21.021  0.00  0.00    +0.000 A 
ENDROOT
BRANCH   1   8
ATOM      7  N   UNL     1       2.767   7.099  18.823  0.00  0.00    +0.000 N 
ATOM      8  C   UNL     1       2.086   8.294  18.624  0.00  0.00    +0.000 C 
ATOM      9  O   UNL     1       2.064   8.936  17.574  0.00  0.00    +0.000 OA
ATOM     10  H   UNL     1       2.641   6.618  19.700  0.00  0.00    +0.000 HD
BRANCH   7  14
ATOM     11  C   UNL     1       5.293   5.143  16.027  0.00  0.00    +0.000 A 
ATOM     12  C   UNL     1       5.412   6.519  16.221  0.00  0.00    +0.000 A 
ATOM     13  C   UNL     1       4.590   7.178  17.139  0.00  0.00    +0.000 A 
ATOM     14  C   UNL     1       3.637   6.478  17.890  0.00  0.00    +0.000 A 
ATOM     15  C   UNL     1       3.544   5.090  17.718  0.00  0.00    +0.000 A 
ATOM     16  C   UNL     1       4.359   4.426  16.787  0.00  0.00    +0.000 A 
BRANCH  11  17
ATOM     17  C   UNL     1       6.125   4.523  14.962  0.00  0.00    +0.000 C 
ATOM     18  O   UNL     1       7.347   4.549  14.949  0.00  0.00    +0.000 OA
BRANCH  17  19
ATOM     19  O   UNL     1       5.332   4.045  13.975  0.00  0.00    +0.000 OA
BRANCH  19  21
ATOM     20  C   UNL     1       4.993   3.164  11.778  0.00  0.00    +0.000 C 
ATOM     21  C   UNL     1       6.028   3.591  12.804  0.00  0.00    +0.000 C 
ENDBRANCH  19  21
ENDBRANCH  17  19
ENDBRANCH  11  17
ENDBRANCH   7  14
ENDBRANCH   1   8
BRANCH   4  22
ATOM     22  C   UNL     1      -1.019  10.757  22.936  0.00  0.00    +0.000 C 
BRANCH  22  23
ATOM     23  C   UNL     1      -1.597  12.137  22.545  0.00  0.00    +0.000 C 
BRANCH  23  24
ATOM     24  N   UNL     1      -2.987  12.340  22.989  0.00  0.00    +0.000 NA
ATOM     25  C   UNL     1      -3.837  12.846  21.893  0.00  0.00    +0.000 C 
ATOM     26  C   UNL     1      -5.294  13.013  22.383  0.00  0.00    +0.000 C 
ATOM     27  C   UNL     1      -5.286  14.140  23.383  0.00  0.00    +0.000 A 
ATOM     28  C   UNL     1      -6.318  15.079  23.440  0.00  0.00    +0.000 A 
ATOM     29  C   UNL     1      -6.079  16.309  24.045  0.00  0.00    +0.000 A 
ATOM     30  C   UNL     1      -4.825  16.583  24.597  0.00  0.00    +0.000 A 
ATOM     31  C   UNL     1      -3.852  15.583  24.671  0.00  0.00    +0.000 A 
ATOM     32  C   UNL     1      -4.094  14.332  24.103  0.00  0.00    +0.000 A 
ATOM     33  C   UNL     1      -3.108  13.178  24.204  0.00  0.00    +0.000 C 
ENDBRANCH  23  24
ENDBRANCH  22  23
ENDBRANCH   4  22
TORSDOF 8
ENDMDL
MODEL 3
REMARK VINA RESULT:      -8.0      0.955      1.078
REMARK  Name = 
REMARK  9 active torsions:
REMARK  status: ('A' for Active; 'I' for Inactive)
REMARK    1  A    between atoms: C_1  and  C_2
REMARK    2  A    between atoms: C_2  and  O_3
REMARK    3  A    between atoms: O_3  and  C_4
REMARK    4  A    between atoms: C_4  and  C_6
REMARK    5  A    between atoms: C_9  and  N_10
REMARK    6  A    between atoms: C_11  and  C_13
REMARK    7  A    between atoms: C_16  and  C_17
REMARK    8  A    between atoms: C_17  and  C_18
REMARK    9  A    between atoms: C_18  and  N_19
REMARK                            x       y       z     vdW  Elec       q    Type
REMARK                         _______ _______ _______ _____ _____    ______ ____
ROOT
ATOM      1  C   UNL     1       7.862   8.108  18.045  0.00  0.00    +0.000 A 
ATOM      2  C   UNL     1       6.863   7.809  17.103  0.00  0.00    +0.000 A 
ATOM      3  C   UNL     1       6.324   6.524  16.994  0.00  0.00    +0.000 A 
ATOM      4  C   UNL     1       6.786   5.489  17.817  0.00  0.00    +0.000 A 
ATOM      5  C   UNL     1       7.782   5.785  18.757  0.00  0.00    +0.000 A 
ATOM      6  C   UNL     1       8.324   7.083  18.876  0.00  0.00    +0.000 A 
ENDROOT
BRANCH   1   8
ATOM      7  N   UNL     1       9.419   9.815  18.930  0.00  0.00    +0.000 N 
ATOM      8  C   UNL     1       8.376   9.518  18.060  0.00  0.00    +0.000 C 
ATOM      9  O   UNL     1       7.834  10.316  17.298  0.00  0.00    +0.000 OA
ATOM     10  H   UNL     1       9.842   9.058  19.445  0.00  0.00    +0.000 HD
BRANCH   7  14
ATOM     11  C   UNL     1      11.001  13.711  19.514  0.00  0.00    +0.000 A 
ATOM     12  C   UNL     1      10.638  12.940  20.618  0.00  0.00    +0.000 A 
ATOM     13  C   UNL     1      10.119  11.654  20.444  0.00  0.00    +0.000 A 
ATOM     14  C   UNL     1       9.956  11.107  19.165  0.00  0.00    +0.000 A 
ATOM     15  C   UNL     1      10.354  11.871  18.059  0.00  0.00    +0.000 A 
ATOM     16  C   UNL     1      10.865  13.168  18.229  0.00  0.00    +0.000 A 
BRANCH  11  17
ATOM     17  C   UNL     1      11.449  15.106  19.766  0.00  0.00    +0.000 C 
ATOM     18  O   UNL     1      12.333  15.406  20.554  0.00  0.00    +0.000 OA
BRANCH  17  19
ATOM     19  O   UNL     1      10.660  15.975  19.090  0.00  0.00    +0.000 OA
BRANCH  19  21
ATOM     20  C   UNL     1      11.696  18.095  19.470  0.00  0.00    +0.000 C 
ATOM     21  C   UNL     1      10.467  17.243  19.733  0.00  0.00    +0.000 C 
ENDBRANCH  19  21
ENDBRANCH  17  19
ENDBRANCH  11  17
ENDBRANCH   7  14
ENDBRANCH   1   8
BRANCH   4  22
ATOM     22  C   UNL     1       6.162   4.105  17.738  0.00  0.00    +0.000 C 
BRANCH  22  23
ATOM     23  C   UNL     1       5.140   3.938  16.589  0.00  0.00    +0.000 C 
BRANCH  23  24
ATOM     24  N   UNL     1       3.803   3.522  17.046  0.00  0.00    +0.000 NA
ATOM     25  C   UNL     1       2.988   4.680  17.461  0.00  0.00    +0.000 C 
ATOM     26  C   UNL     1       1.582   4.211  17.900  0.00  0.00    +0.000 C 
ATOM     27  C   UNL     1       1.767   3.426  19.173  0.00  0.00    +0.000 A 
ATOM     28  C   UNL     1       0.865   3.523  20.234  0.00  0.00    +0.000 A 
ATOM     29  C   UNL     1       1.279   3.149  21.509  0.00  0.00    +0.000 A 
ATOM     30  C   UNL     1       2.576   2.668  21.707  0.00  0.00    +0.000 A 
ATOM     31  C   UNL     1       3.416   2.430  20.617  0.00  0.00    +0.000 A 
ATOM     32  C   UNL     1       2.997   2.765  19.329  0.00  0.00    +0.000 A 
ATOM     33  C   UNL     1       3.832   2.472  18.091  0.00  0.00    +0.000 C 
ENDBRANCH  23  24
ENDBRANCH  22  23
ENDBRANCH   4  22
TORSDOF 8
ENDMDL
MODEL 4
REMARK VINA RESULT:      -8.0      7.934     10.108
REMARK  Name = 
REMARK  9 active torsions:
REMARK  status: ('A' for Active; 'I' for Inactive)
REMARK    1  A    between atoms: C_1  and  C_2
REMARK    2  A    between atoms: C_2  and  O_3
REMARK    3  A    between atoms: O_3  and  C_4
REMARK    4  A    between atoms: C_4  and  C_6
REMARK    5  A    between atoms: C_9  and  N_10
REMARK    6  A    between atoms: C_11  and  C_13
REMARK    7  A    between atoms: C_16  and  C_17
REMARK    8  A    between atoms: C_17  and  C_18
REMARK    9  A    between atoms: C_18  and  N_19
REMARK                            x       y       z     vdW  Elec       q    Type
REMARK                         _______ _______ _______ _____ _____    ______ ____
ROOT
ATOM      1  C   UNL     1       0.978  10.015  20.004  0.00  0.00    +0.000 A 
ATOM      2  C   UNL     1       1.369  10.501  18.744  0.00  0.00    +0.000 A 
ATOM      3  C   UNL     1       2.054   9.694  17.831  0.00  0.00    +0.000 A 
ATOM      4  C   UNL     1       2.387   8.375  18.161  0.00  0.00    +0.000 A 
ATOM      5  C   UNL     1       1.998   7.888  19.417  0.00  0.00    +0.000 A 
ATOM      6  C   UNL     1       1.300   8.696  20.339  0.00  0.00    +0.000 A 
ENDROOT
BRANCH   1   8
ATOM      7  N   UNL     1      -1.127  10.996  20.857  0.00  0.00    +0.000 N 
ATOM      8  C   UNL     1       0.262  10.975  20.907  0.00  0.00    +0.000 C 
ATOM      9  O   UNL     1       0.960  11.683  21.633  0.00  0.00    +0.000 OA
ATOM     10  H   UNL     1      -1.594  10.308  20.286  0.00  0.00    +0.000 HD
BRANCH   7  14
ATOM     11  C   UNL     1      -3.580  13.693  23.032  0.00  0.00    +0.000 A 
ATOM     12  C   UNL     1      -3.440  13.844  21.652  0.00  0.00    +0.000 A 
ATOM     13  C   UNL     1      -2.639  12.963  20.921  0.00  0.00    +0.000 A 
ATOM     14  C   UNL     1      -1.965  11.908  21.547  0.00  0.00    +0.000 A 
ATOM     15  C   UNL     1      -2.136  11.737  22.928  0.00  0.00    +0.000 A 
ATOM     16  C   UNL     1      -2.929  12.628  23.670  0.00  0.00    +0.000 A 
BRANCH  11  17
ATOM     17  C   UNL     1      -4.363  14.725  23.762  0.00  0.00    +0.000 C 
ATOM     18  O   UNL     1      -3.916  15.400  24.676  0.00  0.00    +0.000 OA
BRANCH  17  19
ATOM     19  O   UNL     1      -5.650  14.710  23.341  0.00  0.00    +0.000 OA
BRANCH  19  21
ATOM     20  C   UNL     1      -7.839  14.155  24.127  0.00  0.00    +0.000 C 
ATOM     21  C   UNL     1      -6.441  13.627  23.851  0.00  0.00    +0.000 C 
ENDBRANCH  19  21
ENDBRANCH  17  19
ENDBRANCH  11  17
ENDBRANCH   7  14
ENDBRANCH   1   8
BRANCH   4  22
ATOM     22  C   UNL     1       3.082   7.479  17.148  0.00  0.00    +0.000 C 
BRANCH  22  23
ATOM     23  C   UNL     1       4.482   6.992  17.593  0.00  0.00    +0.000 C 
BRANCH  23  24
ATOM     24  N   UNL     1       4.507   5.581  18.013  0.00  0.00    +0.000 NA
ATOM     25  C   UNL     1       3.580   4.760  17.211  0.00  0.00    +0.000 C 
ATOM     26  C   UNL     1       3.659   3.281  17.653  0.00  0.00    +0.000 C 
ATOM     27  C   UNL     1       3.085   3.216  19.045  0.00  0.00    +0.000 A 
ATOM     28  C   UNL     1       2.276   2.156  19.458  0.00  0.00    +0.000 A 
ATOM     29  C   UNL     1       1.433   2.334  20.550  0.00  0.00    +0.000 A 
ATOM     30  C   UNL     1       1.417   3.557  21.226  0.00  0.00    +0.000 A 
ATOM     31  C   UNL     1       2.339   4.556  20.902  0.00  0.00    +0.000 A 
ATOM     32  C   UNL     1       3.216   4.373  19.832  0.00  0.00    +0.000 A 
ATOM     33  C   UNL     1       4.288   5.389  19.466  0.00  0.00    +0.000 C 
ENDBRANCH  23  24
ENDBRANCH  22  23
ENDBRANCH   4  22
TORSDOF 8
ENDMDL
MODEL 5
REMARK VINA RESULT:      -7.9      7.669     10.998
REMARK  Name = 
REMARK  9 active torsions:
REMARK  status: ('A' for Active; 'I' for Inactive)
REMARK    1  A    between atoms: C_1  and  C_2
REMARK    2  A    between atoms: C_2  and  O_3
REMARK    3  A    between atoms: O_3  and  C_4
REMARK    4  A    between atoms: C_4  and  C_6
REMARK    5  A    between atoms: C_9  and  N_10
REMARK    6  A    between atoms: C_11  and  C_13
REMARK    7  A    between atoms: C_16  and  C_17
REMARK    8  A    between atoms: C_17  and  C_18
REMARK    9  A    between atoms: C_18  and  N_19
REMARK                            x       y       z     vdW  Elec       q    Type
REMARK                         _______ _______ _______ _____ _____    ______ ____
ROOT
ATOM      1  C   UNL     1       1.046   9.402  19.570  0.00  0.00    +0.000 A 
ATOM      2  C   UNL     1       0.991   8.783  20.831  0.00  0.00    +0.000 A 
ATOM      3  C   UNL     1       0.291   9.356  21.895  0.00  0.00    +0.000 A 
ATOM      4  C   UNL     1      -0.364  10.583  21.735  0.00  0.00    +0.000 A 
ATOM      5  C   UNL     1      -0.312  11.203  20.478  0.00  0.00    +0.000 A 
ATOM      6  C   UNL     1       0.389  10.624  19.398  0.00  0.00    +0.000 A 
ENDROOT
BRANCH   1   8
ATOM      7  N   UNL     1       2.363   7.451  18.810  0.00  0.00    +0.000 N 
ATOM      8  C   UNL     1       1.841   8.703  18.507  0.00  0.00    +0.000 C 
ATOM      9  O   UNL     1       1.976   9.291  17.435  0.00  0.00    +0.000 OA
ATOM     10  H   UNL     1       2.113   7.029  19.692  0.00  0.00    +0.000 HD
BRANCH   7  14
ATOM     11  C   UNL     1       5.036   5.281  16.326  0.00  0.00    +0.000 A 
ATOM     12  C   UNL     1       4.029   4.604  17.015  0.00  0.00    +0.000 A 
ATOM     13  C   UNL     1       3.139   5.304  17.834  0.00  0.00    +0.000 A 
ATOM     14  C   UNL     1       3.229   6.694  17.980  0.00  0.00    +0.000 A 
ATOM     15  C   UNL     1       4.219   7.375  17.258  0.00  0.00    +0.000 A 
ATOM     16  C   UNL     1       5.124   6.675  16.444  0.00  0.00    +0.000 A 
BRANCH  11  17
ATOM     17  C   UNL     1       6.010   4.464  15.554  0.00  0.00    +0.000 C 
ATOM     18  O   UNL     1       6.127   3.254  15.669  0.00  0.00    +0.000 OA
BRANCH  17  19
ATOM     19  O   UNL     1       6.805   5.272  14.813  0.00  0.00    +0.000 OA
BRANCH  19  21
ATOM     20  C   UNL     1       8.171   5.531  12.869  0.00  0.00    +0.000 C 
ATOM     21  C   UNL     1       6.894   4.924  13.424  0.00  0.00    +0.000 C 
ENDBRANCH  19  21
ENDBRANCH  17  19
ENDBRANCH  11  17
ENDBRANCH   7  14
ENDBRANCH   1   8
BRANCH   4  22
ATOM     22  C   UNL     1      -1.173  11.180  22.876  0.00  0.00    +0.000 C 
BRANCH  22  23
ATOM     23  C   UNL     1      -1.201  12.727  22.886  0.00  0.00    +0.000 C 
BRANCH  23  24
ATOM     24  N   UNL     1      -2.561  13.291  22.843  0.00  0.00    +0.000 NA
ATOM     25  C   UNL     1      -3.526  12.432  23.556  0.00  0.00    +0.000 C 
ATOM     26  C   UNL     1      -4.934  13.071  23.522  0.00  0.00    +0.000 C 
ATOM     27  C   UNL     1      -5.396  13.021  22.089  0.00  0.00    +0.000 A 
ATOM     28  C   UNL     1      -6.720  12.730  21.753  0.00  0.00    +0.000 A 
ATOM     29  C   UNL     1      -7.006  12.270  20.471  0.00  0.00    +0.000 A 
ATOM     30  C   UNL     1      -5.978  12.123  19.537  0.00  0.00    +0.000 A 
ATOM     31  C   UNL     1      -4.685  12.562  19.834  0.00  0.00    +0.000 A 
ATOM     32  C   UNL     1      -4.393  13.061  21.104  0.00  0.00    +0.000 A 
ATOM     33  C   UNL     1      -3.027  13.618  21.475  0.00  0.00    +0.000 C 
ENDBRANCH  23  24
ENDBRANCH  22  23
ENDBRANCH   4  22
TORSDOF 8
ENDMDL
MODEL 6
REMARK VINA RESULT:      -7.9      8.331     11.611
REMARK  Name = 
REMARK  9 active torsions:
REMARK  status: ('A' for Active; 'I' for Inactive)
REMARK    1  A    between atoms: C_1  and  C_2
REMARK    2  A    between atoms: C_2  and  O_3
REMARK    3  A    between atoms: O_3  and  C_4
REMARK    4  A    between atoms: C_4  and  C_6
REMARK    5  A    between atoms: C_9  and  N_10
REMARK    6  A    between atoms: C_11  and  C_13
REMARK    7  A    between atoms: C_16  and  C_17
REMARK    8  A    between atoms: C_17  and  C_18
REMARK    9  A    between atoms: C_18  and  N_19
REMARK                            x       y       z     vdW  Elec       q    Type
REMARK                         _______ _______ _______ _____ _____    ______ ____
ROOT
ATOM      1  C   UNL     1       1.271   9.073  19.491  0.00  0.00    +0.000 A 
ATOM      2  C   UNL     1       1.183   8.436  20.740  0.00  0.00    +0.000 A 
ATOM      3  C   UNL     1       0.458   8.996  21.796  0.00  0.00    +0.000 A 
ATOM      4  C   UNL     1      -0.188  10.228  21.637  0.00  0.00    +0.000 A 
ATOM      5  C   UNL     1      -0.101  10.866  20.391  0.00  0.00    +0.000 A 
ATOM      6  C   UNL     1       0.623  10.300  19.320  0.00  0.00    +0.000 A 
ENDROOT
BRANCH   1   8
ATOM      7  N   UNL     1       2.770   7.229  18.801  0.00  0.00    +0.000 N 
ATOM      8  C   UNL     1       2.090   8.386  18.437  0.00  0.00    +0.000 C 
ATOM      9  O   UNL     1       2.102   8.898  17.319  0.00  0.00    +0.000 OA
ATOM     10  H   UNL     1       2.614   6.854  19.725  0.00  0.00    +0.000 HD
BRANCH   7  14
ATOM     11  C   UNL     1       5.571   5.170  16.365  0.00  0.00    +0.000 A 
ATOM     12  C   UNL     1       4.452   4.495  16.854  0.00  0.00    +0.000 A 
ATOM     13  C   UNL     1       3.519   5.159  17.655  0.00  0.00    +0.000 A 
ATOM     14  C   UNL     1       3.677   6.511  17.980  0.00  0.00    +0.000 A 
ATOM     15  C   UNL     1       4.783   7.196  17.457  0.00  0.00    +0.000 A 
ATOM     16  C   UNL     1       5.730   6.530  16.663  0.00  0.00    +0.000 A 
BRANCH  11  17
ATOM     17  C   UNL     1       6.575   4.378  15.606  0.00  0.00    +0.000 C 
ATOM     18  O   UNL     1       7.782   4.478  15.763  0.00  0.00    +0.000 OA
BRANCH  17  19
ATOM     19  O   UNL     1       5.956   3.637  14.656  0.00  0.00    +0.000 OA
BRANCH  19  21
ATOM     20  C   UNL     1       5.185   3.480  12.399  0.00  0.00    +0.000 C 
ATOM     21  C   UNL     1       6.297   3.980  13.304  0.00  0.00    +0.000 C 
ENDBRANCH  19  21
ENDBRANCH  17  19
ENDBRANCH  11  17
ENDBRANCH   7  14
ENDBRANCH   1   8
BRANCH   4  22
ATOM     22  C   UNL     1      -1.023  10.813  22.766  0.00  0.00    +0.000 C 
BRANCH  22  23
ATOM     23  C   UNL     1      -1.200  12.347  22.689  0.00  0.00    +0.000 C 
BRANCH  23  24
ATOM     24  N   UNL     1      -2.302  12.855  23.524  0.00  0.00    +0.000 NA
ATOM     25  C   UNL     1      -3.616  12.594  22.906  0.00  0.00    +0.000 C 
ATOM     26  C   UNL     1      -4.748  13.106  23.825  0.00  0.00    +0.000 C 
ATOM     27  C   UNL     1      -4.647  14.610  23.836  0.00  0.00    +0.000 A 
ATOM     28  C   UNL     1      -5.782  15.423  23.820  0.00  0.00    +0.000 A 
ATOM     29  C   UNL     1      -5.662  16.744  23.399  0.00  0.00    +0.000 A 
ATOM     30  C   UNL     1      -4.414  17.242  23.015  0.00  0.00    +0.000 A 
ATOM     31  C   UNL     1      -3.263  16.468  23.181  0.00  0.00    +0.000 A 
ATOM     32  C   UNL     1      -3.366  15.154  23.640  0.00  0.00    +0.000 A 
ATOM     33  C   UNL     1      -2.151  14.278  23.906  0.00  0.00    +0.000 C 
ENDBRANCH  23  24
ENDBRANCH  22  23
ENDBRANCH   4  22
TORSDOF 8
ENDMDL
MODEL 7
REMARK VINA RESULT:      -7.9      6.764      8.753
REMARK  Name = 
REMARK  9 active torsions:
REMARK  status: ('A' for Active; 'I' for Inactive)
REMARK    1  A    between atoms: C_1  and  C_2
REMARK    2  A    between atoms: C_2  and  O_3
REMARK    3  A    between atoms: O_3  and  C_4
REMARK    4  A    between atoms: C_4  and  C_6
REMARK    5  A    between atoms: C_9  and  N_10
REMARK    6  A    between atoms: C_11  and  C_13
REMARK    7  A    between atoms: C_16  and  C_17
REMARK    8  A    between atoms: C_17  and  C_18
REMARK    9  A    between atoms: C_18  and  N_19
REMARK                            x       y       z     vdW  Elec       q    Type
REMARK                         _______ _______ _______ _____ _____    ______ ____
ROOT
ATOM      1  C   UNL     1       2.335   7.951  19.093  0.00  0.00    +0.000 A 
ATOM      2  C   UNL     1       2.887   8.128  17.813  0.00  0.00    +0.000 A 
ATOM      3  C   UNL     1       3.812   7.224  17.284  0.00  0.00    +0.000 A 
ATOM      4  C   UNL     1       4.229   6.117  18.034  0.00  0.00    +0.000 A 
ATOM      5  C   UNL     1       3.680   5.938  19.312  0.00  0.00    +0.000 A 
ATOM      6  C   UNL     1       2.740   6.845  19.846  0.00  0.00    +0.000 A 
ENDROOT
BRANCH   1   8
ATOM      7  N   UNL     1       1.266   9.217  20.930  0.00  0.00    +0.000 N 
ATOM      8  C   UNL     1       1.363   8.994  19.561  0.00  0.00    +0.000 C 
ATOM      9  O   UNL     1       0.716   9.581  18.695  0.00  0.00    +0.000 OA
ATOM     10  H   UNL     1       1.911   8.737  21.539  0.00  0.00    +0.000 HD
BRANCH   7  14
ATOM     11  C   UNL     1      -1.542  11.852  22.717  0.00  0.00    +0.000 A 
ATOM     12  C   UNL     1      -1.320  10.594  23.278  0.00  0.00    +0.000 A 
ATOM     13  C   UNL     1      -0.398   9.716  22.704  0.00  0.00    +0.000 A 
ATOM     14  C   UNL     1       0.330  10.075  21.562  0.00  0.00    +0.000 A 
ATOM     15  C   UNL     1       0.131  11.353  21.022  0.00  0.00    +0.000 A 
ATOM     16  C   UNL     1      -0.805  12.234  21.588  0.00  0.00    +0.000 A 
BRANCH  11  17
ATOM     17  C   UNL     1      -2.611  12.695  23.317  0.00  0.00    +0.000 C 
ATOM     18  O   UNL     1      -2.542  13.910  23.423  0.00  0.00    +0.000 OA
BRANCH  17  19
ATOM     19  O   UNL     1      -3.591  11.908  23.820  0.00  0.00    +0.000 OA
BRANCH  19  21
ATOM     20  C   UNL     1      -5.790  12.828  23.995  0.00  0.00    +0.000 C 
ATOM     21  C   UNL     1      -4.487  12.565  24.729  0.00  0.00    +0.000 C 
ENDBRANCH  19  21
ENDBRANCH  17  19
ENDBRANCH  11  17
ENDBRANCH   7  14
ENDBRANCH   1   8
BRANCH   4  22
ATOM     22  C   UNL     1       5.193   5.102  17.440  0.00  0.00    +0.000 C 
BRANCH  22  23
ATOM     23  C   UNL     1       4.544   4.141  16.417  0.00  0.00    +0.000 C 
BRANCH  23  24
ATOM     24  N   UNL     1       3.463   3.318  16.987  0.00  0.00    +0.000 NA
ATOM     25  C   UNL     1       2.269   4.130  17.293  0.00  0.00    +0.000 C 
ATOM     26  C   UNL     1       1.144   3.230  17.854  0.00  0.00    +0.000 C 
ATOM     27  C   UNL     1       1.609   2.750  19.205  0.00  0.00    +0.000 A 
ATOM     28  C   UNL     1       0.734   2.643  20.288  0.00  0.00    +0.000 A 
ATOM     29  C   UNL     1       1.256   2.626  21.578  0.00  0.00    +0.000 A 
ATOM     30  C   UNL     1       2.638   2.698  21.772  0.00  0.00    +0.000 A 
ATOM     31  C   UNL     1       3.509   2.649  20.681  0.00  0.00    +0.000 A 
ATOM     32  C   UNL     1       2.998   2.627  19.382  0.00  0.00    +0.000 A 
ATOM     33  C   UNL     1       3.884   2.506  18.152  0.00  0.00    +0.000 C 
ENDBRANCH  23  24
ENDBRANCH  22  23
ENDBRANCH   4  22
TORSDOF 8
ENDMDL
MODEL 8
REMARK VINA RESULT:      -7.6      6.234      7.877
REMARK  Name = 
REMARK  9 active torsions:
REMARK  status: ('A' for Active; 'I' for Inactive)
REMARK    1  A    between atoms: C_1  and  C_2
REMARK    2  A    between atoms: C_2  and  O_3
REMARK    3  A    between atoms: O_3  and  C_4
REMARK    4  A    between atoms: C_4  and  C_6
REMARK    5  A    between atoms: C_9  and  N_10
REMARK    6  A    between atoms: C_11  and  C_13
REMARK    7  A    between atoms: C_16  and  C_17
REMARK    8  A    between atoms: C_17  and  C_18
REMARK    9  A    between atoms: C_18  and  N_19
REMARK                            x       y       z     vdW  Elec       q    Type
REMARK                         _______ _______ _______ _____ _____    ______ ____
ROOT
ATOM      1  C   UNL     1       1.572   8.657  19.686  0.00  0.00    +0.000 A 
ATOM      2  C   UNL     1       1.365   7.706  20.699  0.00  0.00    +0.000 A 
ATOM      3  C   UNL     1       1.725   6.367  20.528  0.00  0.00    +0.000 A 
ATOM      4  C   UNL     1       2.290   5.933  19.323  0.00  0.00    +0.000 A 
ATOM      5  C   UNL     1       2.498   6.880  18.310  0.00  0.00    +0.000 A 
ATOM      6  C   UNL     1       2.142   8.235  18.481  0.00  0.00    +0.000 A 
ENDROOT
BRANCH   1   8
ATOM      7  N   UNL     1       1.293  11.010  18.972  0.00  0.00    +0.000 N 
ATOM      8  C   UNL     1       1.131  10.062  19.976  0.00  0.00    +0.000 C 
ATOM      9  O   UNL     1       0.656  10.277  21.090  0.00  0.00    +0.000 OA
ATOM     10  H   UNL     1       1.613  10.698  18.067  0.00  0.00    +0.000 HD
BRANCH   7  14
ATOM     11  C   UNL     1       0.668  15.190  19.372  0.00  0.00    +0.000 A 
ATOM     12  C   UNL     1      -0.319  14.396  18.786  0.00  0.00    +0.000 A 
ATOM     13  C   UNL     1      -0.130  13.018  18.650  0.00  0.00    +0.000 A 
ATOM     14  C   UNL     1       1.043  12.400  19.100  0.00  0.00    +0.000 A 
ATOM     15  C   UNL     1       2.017  13.195  19.720  0.00  0.00    +0.000 A 
ATOM     16  C   UNL     1       1.837  14.582  19.848  0.00  0.00    +0.000 A 
BRANCH  11  17
ATOM     17  C   UNL     1       0.446  16.660  19.393  0.00  0.00    +0.000 C 
ATOM     18  O   UNL     1      -0.083  17.257  20.318  0.00  0.00    +0.000 OA
BRANCH  17  19
ATOM     19  O   UNL     1       0.805  17.198  18.203  0.00  0.00    +0.000 OA
BRANCH  19  21
ATOM     20  C   UNL     1       0.374  18.631  16.339  0.00  0.00    +0.000 C 
ATOM     21  C   UNL     1      -0.246  17.881  17.505  0.00  0.00    +0.000 C 
ENDBRANCH  19  21
ENDBRANCH  17  19
ENDBRANCH  11  17
ENDBRANCH   7  14
ENDBRANCH   1   8
BRANCH   4  22
ATOM     22  C   UNL     1       2.734   4.488  19.155  0.00  0.00    +0.000 C 
BRANCH  22  23
ATOM     23  C   UNL     1       3.971   4.107  20.001  0.00  0.00    +0.000 C 
BRANCH  23  24
ATOM     24  N   UNL     1       5.188   3.894  19.199  0.00  0.00    +0.000 NA
ATOM     25  C   UNL     1       5.952   5.145  19.029  0.00  0.00    +0.000 C 
ATOM     26  C   UNL     1       7.238   4.878  18.215  0.00  0.00    +0.000 C 
ATOM     27  C   UNL     1       6.799   4.532  16.816  0.00  0.00    +0.000 A 
ATOM     28  C   UNL     1       7.495   4.985  15.694  0.00  0.00    +0.000 A 
ATOM     29  C   UNL     1       6.844   5.022  14.464  0.00  0.00    +0.000 A 
ATOM     30  C   UNL     1       5.518   4.593  14.365  0.00  0.00    +0.000 A 
ATOM     31  C   UNL     1       4.883   3.999  15.458  0.00  0.00    +0.000 A 
ATOM     32  C   UNL     1       5.540   3.921  16.687  0.00  0.00    +0.000 A 
ATOM     33  C   UNL     1       4.936   3.228  17.900  0.00  0.00    +0.000 C 
ENDBRANCH  23  24
ENDBRANCH  22  23
ENDBRANCH   4  22
TORSDOF 8
ENDMDL
MODEL 9
REMARK VINA RESULT:      -7.6      8.083      9.592
REMARK  Name = 
REMARK  9 active torsions:
REMARK  status: ('A' for Active; 'I' for Inactive)
REMARK    1  A    between atoms: C_1  and  C_2
REMARK    2  A    between atoms: C_2  and  O_3
REMARK    3  A    between atoms: O_3  and  C_4
REMARK    4  A    between atoms: C_4  and  C_6
REMARK    5  A    between atoms: C_9  and  N_10
REMARK    6  A    between atoms: C_11  and  C_13
REMARK    7  A    between atoms: C_16  and  C_17
REMARK    8  A    between atoms: C_17  and  C_18
REMARK    9  A    between atoms: C_18  and  N_19
REMARK                            x       y       z     vdW  Elec       q    Type
REMARK                         _______ _______ _______ _____ _____    ______ ____
ROOT
ATOM      1  C   UNL     1       0.768   9.643  19.879  0.00  0.00    +0.000 A 
ATOM      2  C   UNL     1       1.404   8.446  20.252  0.00  0.00    +0.000 A 
ATOM      3  C   UNL     1       2.237   7.756  19.368  0.00  0.00    +0.000 A 
ATOM      4  C   UNL     1       2.445   8.234  18.069  0.00  0.00    +0.000 A 
ATOM      5  C   UNL     1       1.812   9.428  17.694  0.00  0.00    +0.000 A 
ATOM      6  C   UNL     1       0.976  10.133  18.586  0.00  0.00    +0.000 A 
ENDROOT
BRANCH   1   8
ATOM      7  N   UNL     1      -0.589  11.567  20.637  0.00  0.00    +0.000 N 
ATOM      8  C   UNL     1      -0.115  10.288  20.906  0.00  0.00    +0.000 C 
ATOM      9  O   UNL     1      -0.358   9.636  21.920  0.00  0.00    +0.000 OA
ATOM     10  H   UNL     1      -0.395  11.968  19.732  0.00  0.00    +0.000 HD
BRANCH   7  14
ATOM     11  C   UNL     1      -2.719  14.043  23.350  0.00  0.00    +0.000 A 
ATOM     12  C   UNL     1      -3.403  13.402  22.315  0.00  0.00    +0.000 A 
ATOM     13  C   UNL     1      -2.717  12.582  21.416  0.00  0.00    +0.000 A 
ATOM     14  C   UNL     1      -1.337  12.376  21.531  0.00  0.00    +0.000 A 
ATOM     15  C   UNL     1      -0.659  12.992  22.592  0.00  0.00    +0.000 A 
ATOM     16  C   UNL     1      -1.342  13.828  23.491  0.00  0.00    +0.000 A 
BRANCH  11  17
ATOM     17  C   UNL     1      -3.491  14.981  24.207  0.00  0.00    +0.000 C 
ATOM     18  O   UNL     1      -3.256  15.175  25.390  0.00  0.00    +0.000 OA
BRANCH  17  19
ATOM     19  O   UNL     1      -4.542  15.481  23.514  0.00  0.00    +0.000 OA
BRANCH  19  21
ATOM     20  C   UNL     1      -5.839  17.391  22.894  0.00  0.00    +0.000 C 
ATOM     21  C   UNL     1      -4.440  16.874  23.183  0.00  0.00    +0.000 C 
ENDBRANCH  19  21
ENDBRANCH  17  19
ENDBRANCH  11  17
ENDBRANCH   7  14
ENDBRANCH   1   8
BRANCH   4  22
ATOM     22  C   UNL     1       3.394   7.515  17.124  0.00  0.00    +0.000 C 
BRANCH  22  23
ATOM     23  C   UNL     1       4.668   6.965  17.808  0.00  0.00    +0.000 C 
BRANCH  23  24
ATOM     24  N   UNL     1       4.600   5.525  18.108  0.00  0.00    +0.000 NA
ATOM     25  C   UNL     1       3.612   4.840  17.252  0.00  0.00    +0.000 C 
ATOM     26  C   UNL     1       3.593   3.327  17.568  0.00  0.00    +0.000 C 
ATOM     27  C   UNL     1       3.027   3.183  18.957  0.00  0.00    +0.000 A 
ATOM     28  C   UNL     1       2.152   2.148  19.291  0.00  0.00    +0.000 A 
ATOM     29  C   UNL     1       1.332   2.290  20.406  0.00  0.00    +0.000 A 
ATOM     30  C   UNL     1       1.406   3.449  21.183  0.00  0.00    +0.000 A 
ATOM     31  C   UNL     1       2.391   4.407  20.931  0.00  0.00    +0.000 A 
ATOM     32  C   UNL     1       3.245   4.257  19.837  0.00  0.00    +0.000 A 
ATOM     33  C   UNL     1       4.381   5.225  19.542  0.00  0.00    +0.000 C 
ENDBRANCH  23  24
ENDBRANCH  22  23
ENDBRANCH   4  22
TORSDOF 8
ENDMDL
