MODEL 1
REMARK VINA RESULT:      -7.7      0.000      0.000
REMARK  Name = 
REMARK  3 active torsions:
REMARK  status: ('A' for Active; 'I' for Inactive)
REMARK    1  A    between atoms: C_3  and  O_4
REMARK    2  A    between atoms: C_13  and  C_14
REMARK    3  A    between atoms: C_17  and  O_18
REMARK                            x       y       z     vdW  Elec       q    Type
REMARK                         _______ _______ _______ _____ _____    ______ ____
ROOT
ATOM      1  O   UNL     1       3.878   6.678  16.718  0.00  0.00    +0.000 OA
ATOM      2  C   UNL     1       3.460   6.085  17.707  0.00  0.00    +0.000 C 
ATOM      3  C   UNL     1       2.771   6.916  18.735  0.00  0.00    +0.000 C 
ATOM      4  C   UNL     1       2.029   6.360  19.694  0.00  0.00    +0.000 C 
ATOM      5  C   UNL     1       1.901   4.908  19.778  0.00  0.00    +0.000 A 
ATOM      6  C   UNL     1       1.031   4.358  20.730  0.00  0.00    +0.000 A 
ATOM      7  C   UNL     1       0.932   2.978  20.866  0.00  0.00    +0.000 A 
ATOM      8  C   UNL     1       1.717   2.150  20.071  0.00  0.00    +0.000 A 
ATOM      9  C   UNL     1       2.599   2.685  19.121  0.00  0.00    +0.000 A 
ATOM     10  C   UNL     1       3.400   1.843  18.356  0.00  0.00    +0.000 A 
ATOM     11  C   UNL     1       4.305   2.369  17.431  0.00  0.00    +0.000 A 
ATOM     12  C   UNL     1       4.422   3.756  17.185  0.00  0.00    +0.000 A 
ATOM     13  C   UNL     1       3.563   4.606  17.941  0.00  0.00    +0.000 A 
ATOM     14  C   UNL     1       2.692   4.083  18.942  0.00  0.00    +0.000 A 
ENDROOT
BRANCH  12  15
ATOM     15  C   UNL     1       5.439   4.197  16.183  0.00  0.00    +0.000 A 
ATOM     16  C   UNL     1       5.210   4.048  14.797  0.00  0.00    +0.000 A 
ATOM     17  C   UNL     1       6.148   4.456  13.840  0.00  0.00    +0.000 A 
ATOM     18  C   UNL     1       7.328   5.055  14.256  0.00  0.00    +0.000 A 
ATOM     19  C   UNL     1       7.598   5.204  15.606  0.00  0.00    +0.000 A 
ATOM     20  C   UNL     1       6.682   4.737  16.555  0.00  0.00    +0.000 A 
BRANCH  18  21
ATOM     21  O   UNL     1       8.253   5.508  13.364  0.00  0.00    +0.000 OA
ATOM     22  H   UNL     1       8.546   4.763  12.815  0.00  0.00    +0.000 HD
ENDBRANCH  18  21
ENDBRANCH  12  15
BRANCH   3  23
ATOM     23  O   UNL     1       2.890   8.290  18.633  0.00  0.00    +0.000 OA
ATOM     24  H   UNL     1       2.629   8.621  19.520  0.00  0.00    +0.000 HD
ENDBRANCH   3  23
TORSDOF 3
ENDMDL
MODEL 2
REMARK VINA RESULT:      -7.5      0.070      1.025
REMARK  Name = 
REMARK  3 active torsions:
REMARK  status: ('A' for Active; 'I' for Inactive)
REMARK    1  A    between atoms: C_3  and  O_4
REMARK    2  A    between atoms: C_13  and  C_14
REMARK    3  A    between atoms: C_17  and  O_18
REMARK                            x       y       z     vdW  Elec       q    Type
REMARK                         _______ _______ _______ _____ _____    ______ ____
ROOT
ATOM      1  O   UNL     1       3.824   6.703  16.763  0.00  0.00    +0.000 OA
ATOM      2  C   UNL     1       3.424   6.095  17.751  0.00  0.00    +0.000 C 
ATOM      3  C   UNL     1       2.732   6.907  18.793  0.00  0.00    +0.000 C 
ATOM      4  C   UNL     1       2.008   6.331  19.753  0.00  0.00    +0.000 C 
ATOM      5  C   UNL     1       1.900   4.877  19.825  0.00  0.00    +0.000 A 
ATOM      6  C   UNL     1       1.046   4.307  20.779  0.00  0.00    +0.000 A 
ATOM      7  C   UNL     1       0.967   2.924  20.903  0.00  0.00    +0.000 A 
ATOM      8  C   UNL     1       1.757   2.115  20.094  0.00  0.00    +0.000 A 
ATOM      9  C   UNL     1       2.622   2.670  19.141  0.00  0.00    +0.000 A 
ATOM     10  C   UNL     1       3.428   1.846  18.361  0.00  0.00    +0.000 A 
ATOM     11  C   UNL     1       4.317   2.393  17.432  0.00  0.00    +0.000 A 
ATOM     12  C   UNL     1       4.413   3.784  17.198  0.00  0.00    +0.000 A 
ATOM     13  C   UNL     1       3.549   4.615  17.970  0.00  0.00    +0.000 A 
ATOM     14  C   UNL     1       2.695   4.071  18.974  0.00  0.00    +0.000 A 
ENDROOT
BRANCH  12  15
ATOM     15  C   UNL     1       5.414   4.248  16.192  0.00  0.00    +0.000 A 
ATOM     16  C   UNL     1       6.628   4.847  16.594  0.00  0.00    +0.000 A 
ATOM     17  C   UNL     1       7.584   5.287  15.668  0.00  0.00    +0.000 A 
ATOM     18  C   UNL     1       7.353   5.103  14.312  0.00  0.00    +0.000 A 
ATOM     19  C   UNL     1       6.168   4.534  13.876  0.00  0.00    +0.000 A 
ATOM     20  C   UNL     1       5.193   4.155  14.807  0.00  0.00    +0.000 A 
BRANCH  18  21
ATOM     21  O   UNL     1       8.268   5.474  13.374  0.00  0.00    +0.000 OA
ATOM     22  H   UNL     1       7.808   5.624  12.533  0.00  0.00    +0.000 HD
ENDBRANCH  18  21
ENDBRANCH  12  15
BRANCH   3  23
ATOM     23  O   UNL     1       2.832   8.283  18.702  0.00  0.00    +0.000 OA
ATOM     24  H   UNL     1       3.789   8.446  18.557  0.00  0.00    +0.000 HD
ENDBRANCH   3  23
TORSDOF 3
ENDMDL
MODEL 3
REMARK VINA RESULT:      -7.1      6.985     11.015
REMARK  Name = 
REMARK  3 active torsions:
REMARK  status: ('A' for Active; 'I' for Inactive)
REMARK    1  A    between atoms: C_3  and  O_4
REMARK    2  A    between atoms: C_13  and  C_14
REMARK    3  A    between atoms: C_17  and  O_18
REMARK                            x       y       z     vdW  Elec       q    Type
REMARK                         _______ _______ _______ _____ _____    ______ ____
ROOT
ATOM      1  O   UNL     1      -1.286  13.488  20.257  0.00  0.00    +0.000 OA
ATOM      2  C   UNL     1      -0.900  12.346  20.026  0.00  0.00    +0.000 C 
ATOM      3  C   UNL     1      -0.637  12.013  18.597  0.00  0.00    +0.000 C 
ATOM      4  C   UNL     1       0.051  10.923  18.254  0.00  0.00    +0.000 C 
ATOM      5  C   UNL     1       0.542  10.007  19.280  0.00  0.00    +0.000 A 
ATOM      6  C   UNL     1       1.352   8.930  18.896  0.00  0.00    +0.000 A 
ATOM      7  C   UNL     1       1.787   8.013  19.846  0.00  0.00    +0.000 A 
ATOM      8  C   UNL     1       1.392   8.158  21.172  0.00  0.00    +0.000 A 
ATOM      9  C   UNL     1       0.575   9.225  21.571  0.00  0.00    +0.000 A 
ATOM     10  C   UNL     1       0.165   9.337  22.896  0.00  0.00    +0.000 A 
ATOM     11  C   UNL     1      -0.677  10.378  23.294  0.00  0.00    +0.000 A 
ATOM     12  C   UNL     1      -1.112  11.388  22.405  0.00  0.00    +0.000 A 
ATOM     13  C   UNL     1      -0.648  11.289  21.061  0.00  0.00    +0.000 A 
ATOM     14  C   UNL     1       0.148  10.187  20.628  0.00  0.00    +0.000 A 
ENDROOT
BRANCH  12  15
ATOM     15  C   UNL     1      -2.025  12.439  22.947  0.00  0.00    +0.000 A 
ATOM     16  C   UNL     1      -3.426  12.336  22.797  0.00  0.00    +0.000 A 
ATOM     17  C   UNL     1      -4.301  13.309  23.299  0.00  0.00    +0.000 A 
ATOM     18  C   UNL     1      -3.787  14.393  23.995  0.00  0.00    +0.000 A 
ATOM     19  C   UNL     1      -2.419  14.539  24.150  0.00  0.00    +0.000 A 
ATOM     20  C   UNL     1      -1.550  13.595  23.591  0.00  0.00    +0.000 A 
BRANCH  18  21
ATOM     21  O   UNL     1      -4.598  15.342  24.539  0.00  0.00    +0.000 OA
ATOM     22  H   UNL     1      -4.501  16.163  24.030  0.00  0.00    +0.000 HD
ENDBRANCH  18  21
ENDBRANCH  12  15
BRANCH   3  23
ATOM     23  O   UNL     1      -1.095  12.898  17.639  0.00  0.00    +0.000 OA
ATOM     24  H   UNL     1      -0.504  13.677  17.728  0.00  0.00    +0.000 HD
ENDBRANCH   3  23
TORSDOF 3
ENDMDL
MODEL 4
REMARK VINA RESULT:      -7.1      1.907      3.304
REMARK  Name = 
REMARK  3 active torsions:
REMARK  status: ('A' for Active; 'I' for Inactive)
REMARK    1  A    between atoms: C_3  and  O_4
REMARK    2  A    between atoms: C_13  and  C_14
REMARK    3  A    between atoms: C_17  and  O_18
REMARK                            x       y       z     vdW  Elec       q    Type
REMARK                         _______ _______ _______ _____ _____    ______ ____
ROOT
ATOM      1  O   UNL     1       4.933   2.609  17.119  0.00  0.00    +0.000 OA
ATOM      2  C   UNL     1       4.060   3.248  17.698  0.00  0.00    +0.000 C 
ATOM      3  C   UNL     1       3.134   2.467  18.567  0.00  0.00    +0.000 C 
ATOM      4  C   UNL     1       2.347   3.070  19.459  0.00  0.00    +0.000 C 
ATOM      5  C   UNL     1       2.352   4.524  19.585  0.00  0.00    +0.000 A 
ATOM      6  C   UNL     1       1.595   5.120  20.603  0.00  0.00    +0.000 A 
ATOM      7  C   UNL     1       1.540   6.505  20.709  0.00  0.00    +0.000 A 
ATOM      8  C   UNL     1       2.220   7.293  19.786  0.00  0.00    +0.000 A 
ATOM      9  C   UNL     1       2.974   6.713  18.757  0.00  0.00    +0.000 A 
ATOM     10  C   UNL     1       3.623   7.516  17.824  0.00  0.00    +0.000 A 
ATOM     11  C   UNL     1       4.349   6.945  16.776  0.00  0.00    +0.000 A 
ATOM     12  C   UNL     1       4.508   5.547  16.633  0.00  0.00    +0.000 A 
ATOM     13  C   UNL     1       3.878   4.736  17.621  0.00  0.00    +0.000 A 
ATOM     14  C   UNL     1       3.071   5.307  18.649  0.00  0.00    +0.000 A 
ENDROOT
BRANCH  12  15
ATOM     15  C   UNL     1       5.293   5.058  15.460  0.00  0.00    +0.000 A 
ATOM     16  C   UNL     1       4.667   4.363  14.402  0.00  0.00    +0.000 A 
ATOM     17  C   UNL     1       5.383   3.897  13.291  0.00  0.00    +0.000 A 
ATOM     18  C   UNL     1       6.744   4.151  13.203  0.00  0.00    +0.000 A 
ATOM     19  C   UNL     1       7.399   4.814  14.228  0.00  0.00    +0.000 A 
ATOM     20  C   UNL     1       6.686   5.221  15.362  0.00  0.00    +0.000 A 
BRANCH  18  21
ATOM     21  O   UNL     1       7.477   3.757  12.125  0.00  0.00    +0.000 OA
ATOM     22  H   UNL     1       7.583   2.792  12.156  0.00  0.00    +0.000 HD
ENDBRANCH  18  21
ENDBRANCH  12  15
BRANCH   3  23
ATOM     23  O   UNL     1       3.152   1.090  18.447  0.00  0.00    +0.000 OA
ATOM     24  H   UNL     1       3.260   0.933  17.483  0.00  0.00    +0.000 HD
ENDBRANCH   3  23
TORSDOF 3
ENDMDL
MODEL 5
REMARK VINA RESULT:      -7.0      6.999     11.069
REMARK  Name = 
REMARK  3 active torsions:
REMARK  status: ('A' for Active; 'I' for Inactive)
REMARK    1  A    between atoms: C_3  and  O_4
REMARK    2  A    between atoms: C_13  and  C_14
REMARK    3  A    between atoms: C_17  and  O_18
REMARK                            x       y       z     vdW  Elec       q    Type
REMARK                         _______ _______ _______ _____ _____    ______ ____
ROOT
ATOM      1  O   UNL     1      -1.234  13.543  20.340  0.00  0.00    +0.000 OA
ATOM      2  C   UNL     1      -0.859  12.403  20.082  0.00  0.00    +0.000 C 
ATOM      3  C   UNL     1      -0.586  12.105  18.647  0.00  0.00    +0.000 C 
ATOM      4  C   UNL     1       0.094  11.017  18.282  0.00  0.00    +0.000 C 
ATOM      5  C   UNL     1       0.563  10.067  19.288  0.00  0.00    +0.000 A 
ATOM      6  C   UNL     1       1.364   8.992  18.883  0.00  0.00    +0.000 A 
ATOM      7  C   UNL     1       1.779   8.045  19.813  0.00  0.00    +0.000 A 
ATOM      8  C   UNL     1       1.373   8.159  21.138  0.00  0.00    +0.000 A 
ATOM      9  C   UNL     1       0.563   9.225  21.558  0.00  0.00    +0.000 A 
ATOM     10  C   UNL     1       0.142   9.307  22.881  0.00  0.00    +0.000 A 
ATOM     11  C   UNL     1      -0.692  10.347  23.298  0.00  0.00    +0.000 A 
ATOM     12  C   UNL     1      -1.106  11.385  22.432  0.00  0.00    +0.000 A 
ATOM     13  C   UNL     1      -0.630  11.316  21.091  0.00  0.00    +0.000 A 
ATOM     14  C   UNL     1       0.158  10.216  20.636  0.00  0.00    +0.000 A 
ENDROOT
BRANCH  12  15
ATOM     15  C   UNL     1      -2.012  12.432  22.993  0.00  0.00    +0.000 A 
ATOM     16  C   UNL     1      -1.493  13.577  23.637  0.00  0.00    +0.000 A 
ATOM     17  C   UNL     1      -2.324  14.573  24.168  0.00  0.00    +0.000 A 
ATOM     18  C   UNL     1      -3.700  14.455  24.034  0.00  0.00    +0.000 A 
ATOM     19  C   UNL     1      -4.249  13.339  23.424  0.00  0.00    +0.000 A 
ATOM     20  C   UNL     1      -3.413  12.320  22.952  0.00  0.00    +0.000 A 
BRANCH  18  21
ATOM     21  O   UNL     1      -4.548  15.415  24.495  0.00  0.00    +0.000 OA
ATOM     22  H   UNL     1      -5.338  15.428  23.931  0.00  0.00    +0.000 HD
ENDBRANCH  18  21
ENDBRANCH  12  15
BRANCH   3  23
ATOM     23  O   UNL     1      -1.024  13.020  17.708  0.00  0.00    +0.000 OA
ATOM     24  H   UNL     1      -0.207  13.487  17.427  0.00  0.00    +0.000 HD
ENDBRANCH   3  23
TORSDOF 3
ENDMDL
MODEL 6
REMARK VINA RESULT:      -7.0      1.915      3.450
REMARK  Name = 
REMARK  3 active torsions:
REMARK  status: ('A' for Active; 'I' for Inactive)
REMARK    1  A    between atoms: C_3  and  O_4
REMARK    2  A    between atoms: C_13  and  C_14
REMARK    3  A    between atoms: C_17  and  O_18
REMARK                            x       y       z     vdW  Elec       q    Type
REMARK                         _______ _______ _______ _____ _____    ______ ____
ROOT
ATOM      1  O   UNL     1       4.868   2.597  17.107  0.00  0.00    +0.000 OA
ATOM      2  C   UNL     1       4.007   3.247  17.692  0.00  0.00    +0.000 C 
ATOM      3  C   UNL     1       3.075   2.476  18.565  0.00  0.00    +0.000 C 
ATOM      4  C   UNL     1       2.301   3.087  19.462  0.00  0.00    +0.000 C 
ATOM      5  C   UNL     1       2.324   4.541  19.589  0.00  0.00    +0.000 A 
ATOM      6  C   UNL     1       1.580   5.145  20.611  0.00  0.00    +0.000 A 
ATOM      7  C   UNL     1       1.543   6.530  20.720  0.00  0.00    +0.000 A 
ATOM      8  C   UNL     1       2.227   7.311  19.795  0.00  0.00    +0.000 A 
ATOM      9  C   UNL     1       2.969   6.723  18.760  0.00  0.00    +0.000 A 
ATOM     10  C   UNL     1       3.623   7.519  17.826  0.00  0.00    +0.000 A 
ATOM     11  C   UNL     1       4.337   6.941  16.773  0.00  0.00    +0.000 A 
ATOM     12  C   UNL     1       4.478   5.541  16.627  0.00  0.00    +0.000 A 
ATOM     13  C   UNL     1       3.843   4.737  17.618  0.00  0.00    +0.000 A 
ATOM     14  C   UNL     1       3.048   5.316  18.651  0.00  0.00    +0.000 A 
ENDROOT
BRANCH  12  15
ATOM     15  C   UNL     1       5.251   5.044  15.450  0.00  0.00    +0.000 A 
ATOM     16  C   UNL     1       6.647   5.241  15.358  0.00  0.00    +0.000 A 
ATOM     17  C   UNL     1       7.393   4.781  14.265  0.00  0.00    +0.000 A 
ATOM     18  C   UNL     1       6.754   4.082  13.251  0.00  0.00    +0.000 A 
ATOM     19  C   UNL     1       5.384   3.882  13.295  0.00  0.00    +0.000 A 
ATOM     20  C   UNL     1       4.639   4.399  14.361  0.00  0.00    +0.000 A 
BRANCH  18  21
ATOM     21  O   UNL     1       7.441   3.577  12.188  0.00  0.00    +0.000 OA
ATOM     22  H   UNL     1       7.164   4.050  11.387  0.00  0.00    +0.000 HD
ENDBRANCH  18  21
ENDBRANCH  12  15
BRANCH   3  23
ATOM     23  O   UNL     1       3.075   1.099  18.442  0.00  0.00    +0.000 OA
ATOM     24  H   UNL     1       4.007   0.876  18.226  0.00  0.00    +0.000 HD
ENDBRANCH   3  23
TORSDOF 3
ENDMDL
MODEL 7
REMARK VINA RESULT:      -6.7      3.145      7.032
REMARK  Name = 
REMARK  3 active torsions:
REMARK  status: ('A' for Active; 'I' for Inactive)
REMARK    1  A    between atoms: C_3  and  O_4
REMARK    2  A    between atoms: C_13  and  C_14
REMARK    3  A    between atoms: C_17  and  O_18
REMARK                            x       y       z     vdW  Elec       q    Type
REMARK                         _______ _______ _______ _____ _____    ______ ____
ROOT
ATOM      1  O   UNL     1       0.918   5.705  21.101  0.00  0.00    +0.000 OA
ATOM      2  C   UNL     1       1.915   5.425  20.442  0.00  0.00    +0.000 C 
ATOM      3  C   UNL     1       2.519   4.086  20.692  0.00  0.00    +0.000 C 
ATOM      4  C   UNL     1       3.408   3.558  19.849  0.00  0.00    +0.000 C 
ATOM      5  C   UNL     1       3.837   4.302  18.668  0.00  0.00    +0.000 A 
ATOM      6  C   UNL     1       4.690   3.678  17.747  0.00  0.00    +0.000 A 
ATOM      7  C   UNL     1       5.155   4.383  16.642  0.00  0.00    +0.000 A 
ATOM      8  C   UNL     1       4.790   5.714  16.472  0.00  0.00    +0.000 A 
ATOM      9  C   UNL     1       3.945   6.355  17.389  0.00  0.00    +0.000 A 
ATOM     10  C   UNL     1       3.614   7.696  17.220  0.00  0.00    +0.000 A 
ATOM     11  C   UNL     1       2.800   8.350  18.147  0.00  0.00    +0.000 A 
ATOM     12  C   UNL     1       2.233   7.690  19.262  0.00  0.00    +0.000 A 
ATOM     13  C   UNL     1       2.541   6.305  19.400  0.00  0.00    +0.000 A 
ATOM     14  C   UNL     1       3.433   5.648  18.501  0.00  0.00    +0.000 A 
ENDROOT
BRANCH  12  15
ATOM     15  C   UNL     1       1.393   8.503  20.192  0.00  0.00    +0.000 A 
ATOM     16  C   UNL     1       0.355   9.328  19.705  0.00  0.00    +0.000 A 
ATOM     17  C   UNL     1      -0.447  10.097  20.559  0.00  0.00    +0.000 A 
ATOM     18  C   UNL     1      -0.244  10.028  21.929  0.00  0.00    +0.000 A 
ATOM     19  C   UNL     1       0.775   9.244  22.446  0.00  0.00    +0.000 A 
ATOM     20  C   UNL     1       1.610   8.527  21.581  0.00  0.00    +0.000 A 
BRANCH  18  21
ATOM     21  O   UNL     1      -1.023  10.722  22.804  0.00  0.00    +0.000 OA
ATOM     22  H   UNL     1      -1.430  11.468  22.334  0.00  0.00    +0.000 HD
ENDBRANCH  18  21
ENDBRANCH  12  15
BRANCH   3  23
ATOM     23  O   UNL     1       2.092   3.388  21.806  0.00  0.00    +0.000 OA
ATOM     24  H   UNL     1       1.777   4.086  22.421  0.00  0.00    +0.000 HD
ENDBRANCH   3  23
TORSDOF 3
ENDMDL
MODEL 8
REMARK VINA RESULT:      -6.6      2.622      6.465
REMARK  Name = 
REMARK  3 active torsions:
REMARK  status: ('A' for Active; 'I' for Inactive)
REMARK    1  A    between atoms: C_3  and  O_4
REMARK    2  A    between atoms: C_13  and  C_14
REMARK    3  A    between atoms: C_17  and  O_18
REMARK                            x       y       z     vdW  Elec       q    Type
REMARK                         _______ _______ _______ _____ _____    ______ ____
ROOT
ATOM      1  O   UNL     1       1.291   4.934  19.118  0.00  0.00    +0.000 OA
ATOM      2  C   UNL     1       2.359   4.637  18.593  0.00  0.00    +0.000 C 
ATOM      3  C   UNL     1       2.743   3.197  18.641  0.00  0.00    +0.000 C 
ATOM      4  C   UNL     1       3.714   2.712  17.868  0.00  0.00    +0.000 C 
ATOM      5  C   UNL     1       4.454   3.595  16.970  0.00  0.00    +0.000 A 
ATOM      6  C   UNL     1       5.394   3.038  16.094  0.00  0.00    +0.000 A 
ATOM      7  C   UNL     1       6.149   3.863  15.268  0.00  0.00    +0.000 A 
ATOM      8  C   UNL     1       5.982   5.242  15.335  0.00  0.00    +0.000 A 
ATOM      9  C   UNL     1       5.051   5.815  16.213  0.00  0.00    +0.000 A 
ATOM     10  C   UNL     1       4.919   7.198  16.289  0.00  0.00    +0.000 A 
ATOM     11  C   UNL     1       4.018   7.778  17.185  0.00  0.00    +0.000 A 
ATOM     12  C   UNL     1       3.167   7.010  18.014  0.00  0.00    +0.000 A 
ATOM     13  C   UNL     1       3.279   5.595  17.893  0.00  0.00    +0.000 A 
ATOM     14  C   UNL     1       4.250   4.994  17.038  0.00  0.00    +0.000 A 
ENDROOT
BRANCH  12  15
ATOM     15  C   UNL     1       2.259   7.747  18.943  0.00  0.00    +0.000 A 
ATOM     16  C   UNL     1       1.533   8.878  18.508  0.00  0.00    +0.000 A 
ATOM     17  C   UNL     1       0.674   9.584  19.361  0.00  0.00    +0.000 A 
ATOM     18  C   UNL     1       0.499   9.145  20.666  0.00  0.00    +0.000 A 
ATOM     19  C   UNL     1       1.204   8.050  21.136  0.00  0.00    +0.000 A 
ATOM     20  C   UNL     1       2.107   7.390  20.294  0.00  0.00    +0.000 A 
BRANCH  18  21
ATOM     21  O   UNL     1      -0.357   9.770  21.521  0.00  0.00    +0.000 OA
ATOM     22  H   UNL     1      -1.267   9.530  21.282  0.00  0.00    +0.000 HD
ENDBRANCH  18  21
ENDBRANCH  12  15
BRANCH   3  23
ATOM     23  O   UNL     1       2.024   2.371  19.486  0.00  0.00    +0.000 OA
ATOM     24  H   UNL     1       1.443   2.984  19.987  0.00  0.00    +0.000 HD
ENDBRANCH   3  23
TORSDOF 3
ENDMDL
MODEL 9
REMARK VINA RESULT:      -6.6      3.084      7.029
REMARK  Name = 
REMARK  3 active torsions:
REMARK  status: ('A' for Active; 'I' for Inactive)
REMARK    1  A    between atoms: C_3  and  O_4
REMARK    2  A    between atoms: C_13  and  C_14
REMARK    3  A    between atoms: C_17  and  O_18
REMARK                            x       y       z     vdW  Elec       q    Type
REMARK                         _______ _______ _______ _____ _____    ______ ____
ROOT
ATOM      1  O   UNL     1       0.764   5.637  20.864  0.00  0.00    +0.000 OA
ATOM      2  C   UNL     1       1.776   5.335  20.240  0.00  0.00    +0.000 C 
ATOM      3  C   UNL     1       2.305   3.959  20.462  0.00  0.00    +0.000 C 
ATOM      4  C   UNL     1       3.207   3.422  19.640  0.00  0.00    +0.000 C 
ATOM      5  C   UNL     1       3.726   4.188  18.511  0.00  0.00    +0.000 A 
ATOM      6  C   UNL     1       4.591   3.560  17.605  0.00  0.00    +0.000 A 
ATOM      7  C   UNL     1       5.140   4.283  16.553  0.00  0.00    +0.000 A 
ATOM      8  C   UNL     1       4.846   5.636  16.420  0.00  0.00    +0.000 A 
ATOM      9  C   UNL     1       3.990   6.282  17.324  0.00  0.00    +0.000 A 
ATOM     10  C   UNL     1       3.731   7.642  17.194  0.00  0.00    +0.000 A 
ATOM     11  C   UNL     1       2.905   8.299  18.109  0.00  0.00    +0.000 A 
ATOM     12  C   UNL     1       2.256   7.625  19.170  0.00  0.00    +0.000 A 
ATOM     13  C   UNL     1       2.492   6.223  19.264  0.00  0.00    +0.000 A 
ATOM     14  C   UNL     1       3.394   5.559  18.382  0.00  0.00    +0.000 A 
ENDROOT
BRANCH  12  15
ATOM     15  C   UNL     1       1.412   8.442  20.093  0.00  0.00    +0.000 A 
ATOM     16  C   UNL     1       1.618   8.409  21.490  0.00  0.00    +0.000 A 
ATOM     17  C   UNL     1       0.840   9.168  22.375  0.00  0.00    +0.000 A 
ATOM     18  C   UNL     1      -0.144  10.005  21.870  0.00  0.00    +0.000 A 
ATOM     19  C   UNL     1      -0.389  10.054  20.507  0.00  0.00    +0.000 A 
ATOM     20  C   UNL     1       0.352   9.245  19.637  0.00  0.00    +0.000 A 
BRANCH  18  21
ATOM     21  O   UNL     1      -0.898  10.795  22.684  0.00  0.00    +0.000 OA
ATOM     22  H   UNL     1      -0.525  10.764  23.579  0.00  0.00    +0.000 HD
ENDBRANCH  18  21
ENDBRANCH  12  15
BRANCH   3  23
ATOM     23  O   UNL     1       1.793   3.241  21.527  0.00  0.00    +0.000 OA
ATOM     24  H   UNL     1       1.196   2.583  21.110  0.00  0.00    +0.000 HD
ENDBRANCH   3  23
TORSDOF 3
ENDMDL
