MODEL 1
REMARK VINA RESULT:      -8.5      0.000      0.000
REMARK  Name = 
REMARK  4 active torsions:
REMARK  status: ('A' for Active; 'I' for Inactive)
REMARK    1  A    between atoms: C_2  and  C_4
REMARK    2  A    between atoms: C_7  and  N_8
REMARK    3  A    between atoms: C_12  and  N_13
REMARK    4  A    between atoms: C_17  and  C_18
REMARK                            x       y       z     vdW  Elec       q    Type
REMARK                         _______ _______ _______ _____ _____    ______ ____
ROOT
ATOM      1  C   UNL     1       2.810   3.229  20.482  0.00  0.00    +0.000 A 
ATOM      2  C   UNL     1       3.893   2.441  20.131  0.00  0.00    +0.000 A 
ATOM      3  N   UNL     1       4.978   2.877  19.446  0.00  0.00    +0.000 NA
ATOM      4  C   UNL     1       5.064   4.171  19.038  0.00  0.00    +0.000 A 
ATOM      5  C   UNL     1       3.946   5.030  19.288  0.00  0.00    +0.000 A 
ATOM      6  C   UNL     1       3.699   6.381  18.840  0.00  0.00    +0.000 A 
ATOM      7  C   UNL     1       2.535   6.941  19.311  0.00  0.00    +0.000 A 
ATOM      8  S   UNL     1       1.670   5.801  20.225  0.00  0.00    +0.000 S 
ATOM      9  C   UNL     1       2.852   4.555  20.027  0.00  0.00    +0.000 A 
ENDROOT
BRANCH   7  10
ATOM     10  C   UNL     1       2.035   8.308  19.125  0.00  0.00    +0.000 A 
ATOM     11  C   UNL     1       2.317   9.048  17.966  0.00  0.00    +0.000 A 
ATOM     12  C   UNL     1       1.825  10.345  17.804  0.00  0.00    +0.000 A 
ATOM     13  C   UNL     1       1.048  10.920  18.806  0.00  0.00    +0.000 A 
ATOM     14 CL   UNL     1       0.443  12.517  18.607  0.00  0.00    +0.000 Cl
ATOM     15  C   UNL     1       0.760  10.209  19.968  0.00  0.00    +0.000 A 
ATOM     16  C   UNL     1       1.250   8.909  20.125  0.00  0.00    +0.000 A 
ENDBRANCH   7  10
BRANCH   4  17
ATOM     17  N   UNL     1       6.195   4.595  18.366  0.00  0.00    +0.000 N 
ATOM     18  C   UNL     1       7.151   5.477  19.027  0.00  0.00    +0.000 C 
ATOM     19  C   UNL     1       7.239   6.833  18.327  0.00  0.00    +0.000 C 
ATOM     20  C   UNL     1       7.446   6.689  16.820  0.00  0.00    +0.000 C 
ATOM     21  C   UNL     1       6.340   5.824  16.210  0.00  0.00    +0.000 C 
ATOM     22  C   UNL     1       6.288   4.453  16.914  0.00  0.00    +0.000 C 
BRANCH  21  23
ATOM     23  N   UNL     1       6.544   5.665  14.763  0.00  0.00    +0.000 NA
ATOM     24  H   UNL     1       6.524   6.576  14.307  0.00  0.00    +0.000 HD
ATOM     25  H   UNL     1       5.764   5.137  14.370  0.00  0.00    +0.000 HD
ENDBRANCH  21  23
ENDBRANCH   4  17
BRANCH   1  27
ATOM     26  N   UNL     1       0.464   2.581  20.656  0.00  0.00    +0.000 N 
ATOM     27  C   UNL     1       1.698   2.622  21.239  0.00  0.00    +0.000 C 
ATOM     28  O   UNL     1       1.869   2.183  22.370  0.00  0.00    +0.000 OA
ATOM     29  H   UNL     1      -0.282   2.109  21.148  0.00  0.00    +0.000 HD
ATOM     30  H   UNL     1       0.289   2.898  19.713  0.00  0.00    +0.000 HD
ENDBRANCH   1  27
TORSDOF 4
ENDMDL
MODEL 2
REMARK VINA RESULT:      -8.2      1.306      1.974
REMARK  Name = 
REMARK  4 active torsions:
REMARK  status: ('A' for Active; 'I' for Inactive)
REMARK    1  A    between atoms: C_2  and  C_4
REMARK    2  A    between atoms: C_7  and  N_8
REMARK    3  A    between atoms: C_12  and  N_13
REMARK    4  A    between atoms: C_17  and  C_18
REMARK                            x       y       z     vdW  Elec       q    Type
REMARK                         _______ _______ _______ _____ _____    ______ ____
ROOT
ATOM      1  C   UNL     1       2.711   3.544  20.107  0.00  0.00    +0.000 A 
ATOM      2  C   UNL     1       3.485   2.802  19.232  0.00  0.00    +0.000 A 
ATOM      3  N   UNL     1       4.136   3.305  18.155  0.00  0.00    +0.000 NA
ATOM      4  C   UNL     1       4.054   4.629  17.854  0.00  0.00    +0.000 A 
ATOM      5  C   UNL     1       3.204   5.450  18.663  0.00  0.00    +0.000 A 
ATOM      6  C   UNL     1       2.809   6.829  18.487  0.00  0.00    +0.000 A 
ATOM      7  C   UNL     1       2.014   7.333  19.488  0.00  0.00    +0.000 A 
ATOM      8  S   UNL     1       1.647   6.112  20.610  0.00  0.00    +0.000 S 
ATOM      9  C   UNL     1       2.569   4.903  19.788  0.00  0.00    +0.000 A 
ENDROOT
BRANCH   7  10
ATOM     10  C   UNL     1       1.519   8.704  19.664  0.00  0.00    +0.000 A 
ATOM     11  C   UNL     1       1.030   9.161  20.898  0.00  0.00    +0.000 A 
ATOM     12  C   UNL     1       0.572  10.471  21.048  0.00  0.00    +0.000 A 
ATOM     13  C   UNL     1       0.591  11.340  19.959  0.00  0.00    +0.000 A 
ATOM     14 CL   UNL     1       0.024  12.952  20.144  0.00  0.00    +0.000 Cl
ATOM     15  C   UNL     1       1.064  10.908  18.723  0.00  0.00    +0.000 A 
ATOM     16  C   UNL     1       1.527   9.597  18.578  0.00  0.00    +0.000 A 
ENDBRANCH   7  10
BRANCH   4  17
ATOM     17  N   UNL     1       4.751   5.121  16.766  0.00  0.00    +0.000 N 
ATOM     18  C   UNL     1       4.957   4.283  15.590  0.00  0.00    +0.000 C 
ATOM     19  C   UNL     1       6.440   3.996  15.360  0.00  0.00    +0.000 C 
ATOM     20  C   UNL     1       7.282   5.272  15.385  0.00  0.00    +0.000 C 
ATOM     21  C   UNL     1       7.064   6.028  16.698  0.00  0.00    +0.000 C 
ATOM     22  C   UNL     1       5.565   6.328  16.896  0.00  0.00    +0.000 C 
BRANCH  21  23
ATOM     23  N   UNL     1       7.856   7.267  16.721  0.00  0.00    +0.000 NA
ATOM     24  H   UNL     1       8.021   7.592  15.770  0.00  0.00    +0.000 HD
ATOM     25  H   UNL     1       8.776   7.070  17.115  0.00  0.00    +0.000 HD
ENDBRANCH  21  23
ENDBRANCH   4  17
BRANCH   1  27
ATOM     26  N   UNL     1       0.714   2.679  21.210  0.00  0.00    +0.000 N 
ATOM     27  C   UNL     1       2.067   2.863  21.246  0.00  0.00    +0.000 C 
ATOM     28  O   UNL     1       2.722   2.489  22.212  0.00  0.00    +0.000 OA
ATOM     29  H   UNL     1       0.282   2.158  21.960  0.00  0.00    +0.000 HD
ATOM     30  H   UNL     1       0.143   2.939  20.417  0.00  0.00    +0.000 HD
ENDBRANCH   1  27
TORSDOF 4
ENDMDL
MODEL 3
REMARK VINA RESULT:      -8.1      2.540      5.151
REMARK  Name = 
REMARK  4 active torsions:
REMARK  status: ('A' for Active; 'I' for Inactive)
REMARK    1  A    between atoms: C_2  and  C_4
REMARK    2  A    between atoms: C_7  and  N_8
REMARK    3  A    between atoms: C_12  and  N_13
REMARK    4  A    between atoms: C_17  and  C_18
REMARK                            x       y       z     vdW  Elec       q    Type
REMARK                         _______ _______ _______ _____ _____    ______ ____
ROOT
ATOM      1  C   UNL     1       5.784   4.952  16.370  0.00  0.00    +0.000 A 
ATOM      2  C   UNL     1       5.878   3.582  16.549  0.00  0.00    +0.000 A 
ATOM      3  N   UNL     1       5.016   2.835  17.280  0.00  0.00    +0.000 NA
ATOM      4  C   UNL     1       3.965   3.418  17.917  0.00  0.00    +0.000 A 
ATOM      5  C   UNL     1       3.846   4.844  17.850  0.00  0.00    +0.000 A 
ATOM      6  C   UNL     1       2.939   5.730  18.543  0.00  0.00    +0.000 A 
ATOM      7  C   UNL     1       3.060   7.057  18.206  0.00  0.00    +0.000 A 
ATOM      8  S   UNL     1       4.346   7.265  17.116  0.00  0.00    +0.000 S 
ATOM      9  C   UNL     1       4.738   5.583  17.059  0.00  0.00    +0.000 A 
ENDROOT
BRANCH   7  10
ATOM     10  C   UNL     1       2.243   8.193  18.649  0.00  0.00    +0.000 A 
ATOM     11  C   UNL     1       1.984   9.288  17.809  0.00  0.00    +0.000 A 
ATOM     12  C   UNL     1       1.196  10.356  18.245  0.00  0.00    +0.000 A 
ATOM     13  C   UNL     1       0.665  10.344  19.532  0.00  0.00    +0.000 A 
ATOM     14 CL   UNL     1      -0.302  11.661  20.068  0.00  0.00    +0.000 Cl
ATOM     15  C   UNL     1       0.914   9.273  20.386  0.00  0.00    +0.000 A 
ATOM     16  C   UNL     1       1.698   8.203  19.945  0.00  0.00    +0.000 A 
ENDBRANCH   7  10
BRANCH   4  17
ATOM     17  N   UNL     1       3.085   2.629  18.632  0.00  0.00    +0.000 N 
ATOM     18  C   UNL     1       1.811   2.232  18.041  0.00  0.00    +0.000 C 
ATOM     19  C   UNL     1       0.628   2.807  18.819  0.00  0.00    +0.000 C 
ATOM     20  C   UNL     1       0.742   2.536  20.319  0.00  0.00    +0.000 C 
ATOM     21  C   UNL     1       2.071   3.074  20.858  0.00  0.00    +0.000 C 
ATOM     22  C   UNL     1       3.249   2.461  20.075  0.00  0.00    +0.000 C 
BRANCH  21  23
ATOM     23  N   UNL     1       2.196   2.800  22.297  0.00  0.00    +0.000 NA
ATOM     24  H   UNL     1       1.862   3.600  22.833  0.00  0.00    +0.000 HD
ATOM     25  H   UNL     1       3.183   2.694  22.534  0.00  0.00    +0.000 HD
ENDBRANCH  21  23
ENDBRANCH   4  17
BRANCH   1  27
ATOM     26  N   UNL     1       6.790   5.399  14.192  0.00  0.00    +0.000 N 
ATOM     27  C   UNL     1       6.792   5.636  15.537  0.00  0.00    +0.000 C 
ATOM     28  O   UNL     1       7.624   6.383  16.038  0.00  0.00    +0.000 OA
ATOM     29  H   UNL     1       7.439   5.916  13.615  0.00  0.00    +0.000 HD
ATOM     30  H   UNL     1       6.100   4.820  13.735  0.00  0.00    +0.000 HD
ENDBRANCH   1  27
TORSDOF 4
ENDMDL
MODEL 4
REMARK VINA RESULT:      -7.9      2.559      5.183
REMARK  Name = 
REMARK  4 active torsions:
REMARK  status: ('A' for Active; 'I' for Inactive)
REMARK    1  A    between atoms: C_2  and  C_4
REMARK    2  A    between atoms: C_7  and  N_8
REMARK    3  A    between atoms: C_12  and  N_13
REMARK    4  A    between atoms: C_17  and  C_18
REMARK                            x       y       z     vdW  Elec       q    Type
REMARK                         _______ _______ _______ _____ _____    ______ ____
ROOT
ATOM      1  C   UNL     1       6.035   5.609  17.214  0.00  0.00    +0.000 A 
ATOM      2  C   UNL     1       6.251   4.251  17.369  0.00  0.00    +0.000 A 
ATOM      3  N   UNL     1       5.356   3.378  17.893  0.00  0.00    +0.000 NA
ATOM      4  C   UNL     1       4.141   3.810  18.325  0.00  0.00    +0.000 A 
ATOM      5  C   UNL     1       3.872   5.216  18.277  0.00  0.00    +0.000 A 
ATOM      6  C   UNL     1       2.751   5.961  18.801  0.00  0.00    +0.000 A 
ATOM      7  C   UNL     1       2.779   7.309  18.533  0.00  0.00    +0.000 A 
ATOM      8  S   UNL     1       4.219   7.712  17.727  0.00  0.00    +0.000 S 
ATOM      9  C   UNL     1       4.808   6.087  17.700  0.00  0.00    +0.000 A 
ENDROOT
BRANCH   7  10
ATOM     10  C   UNL     1       1.765   8.326  18.837  0.00  0.00    +0.000 A 
ATOM     11  C   UNL     1       1.340   8.577  20.151  0.00  0.00    +0.000 A 
ATOM     12  C   UNL     1       0.381   9.555  20.421  0.00  0.00    +0.000 A 
ATOM     13  C   UNL     1      -0.171  10.290  19.376  0.00  0.00    +0.000 A 
ATOM     14 CL   UNL     1      -1.354  11.493  19.709  0.00  0.00    +0.000 Cl
ATOM     15  C   UNL     1       0.229  10.056  18.063  0.00  0.00    +0.000 A 
ATOM     16  C   UNL     1       1.193   9.079  17.796  0.00  0.00    +0.000 A 
ENDBRANCH   7  10
BRANCH   4  17
ATOM     17  N   UNL     1       3.237   2.894  18.828  0.00  0.00    +0.000 N 
ATOM     18  C   UNL     1       2.121   2.439  18.005  0.00  0.00    +0.000 C 
ATOM     19  C   UNL     1       0.777   2.848  18.608  0.00  0.00    +0.000 C 
ATOM     20  C   UNL     1       0.671   2.469  20.085  0.00  0.00    +0.000 C 
ATOM     21  C   UNL     1       1.836   3.072  20.874  0.00  0.00    +0.000 C 
ATOM     22  C   UNL     1       3.180   2.626  20.264  0.00  0.00    +0.000 C 
BRANCH  21  23
ATOM     23  N   UNL     1       1.752   2.696  22.293  0.00  0.00    +0.000 NA
ATOM     24  H   UNL     1       1.051   1.966  22.418  0.00  0.00    +0.000 HD
ATOM     25  H   UNL     1       1.424   3.496  22.834  0.00  0.00    +0.000 HD
ENDBRANCH  21  23
ENDBRANCH   4  17
BRANCH   1  27
ATOM     26  N   UNL     1       7.426   7.613  17.236  0.00  0.00    +0.000 N 
ATOM     27  C   UNL     1       7.098   6.440  16.618  0.00  0.00    +0.000 C 
ATOM     28  O   UNL     1       7.661   6.100  15.584  0.00  0.00    +0.000 OA
ATOM     29  H   UNL     1       8.196   8.151  16.863  0.00  0.00    +0.000 HD
ATOM     30  H   UNL     1       7.013   7.911  18.109  0.00  0.00    +0.000 HD
ENDBRANCH   1  27
TORSDOF 4
ENDMDL
MODEL 5
REMARK VINA RESULT:      -7.6      1.097      1.351
REMARK  Name = 
REMARK  4 active torsions:
REMARK  status: ('A' for Active; 'I' for Inactive)
REMARK    1  A    between atoms: C_2  and  C_4
REMARK    2  A    between atoms: C_7  and  N_8
REMARK    3  A    between atoms: C_12  and  N_13
REMARK    4  A    between atoms: C_17  and  C_18
REMARK                            x       y       z     vdW  Elec       q    Type
REMARK                         _______ _______ _______ _____ _____    ______ ____
ROOT
ATOM      1  C   UNL     1       2.949   3.440  20.262  0.00  0.00    +0.000 A 
ATOM      2  C   UNL     1       3.884   2.667  19.597  0.00  0.00    +0.000 A 
ATOM      3  N   UNL     1       4.714   3.119  18.626  0.00  0.00    +0.000 NA
ATOM      4  C   UNL     1       4.665   4.418  18.225  0.00  0.00    +0.000 A 
ATOM      5  C   UNL     1       3.666   5.263  18.805  0.00  0.00    +0.000 A 
ATOM      6  C   UNL     1       3.287   6.615  18.465  0.00  0.00    +0.000 A 
ATOM      7  C   UNL     1       2.312   7.159  19.267  0.00  0.00    +0.000 A 
ATOM      8  S   UNL     1       1.765   6.003  20.384  0.00  0.00    +0.000 S 
ATOM      9  C   UNL     1       2.844   4.771  19.830  0.00  0.00    +0.000 A 
ENDROOT
BRANCH   7  10
ATOM     10  C   UNL     1       1.769   8.523  19.254  0.00  0.00    +0.000 A 
ATOM     11  C   UNL     1       1.917   9.367  18.142  0.00  0.00    +0.000 A 
ATOM     12  C   UNL     1       1.386  10.659  18.145  0.00  0.00    +0.000 A 
ATOM     13  C   UNL     1       0.705  11.124  19.266  0.00  0.00    +0.000 A 
ATOM     14 CL   UNL     1       0.052  12.714  19.270  0.00  0.00    +0.000 Cl
ATOM     15  C   UNL     1       0.550  10.308  20.384  0.00  0.00    +0.000 A 
ATOM     16  C   UNL     1       1.079   9.014  20.376  0.00  0.00    +0.000 A 
ENDBRANCH   7  10
BRANCH   4  17
ATOM     17  N   UNL     1       5.543   4.859  17.252  0.00  0.00    +0.000 N 
ATOM     18  C   UNL     1       5.674   6.286  16.977  0.00  0.00    +0.000 C 
ATOM     19  C   UNL     1       5.230   6.626  15.555  0.00  0.00    +0.000 C 
ATOM     20  C   UNL     1       5.886   5.718  14.516  0.00  0.00    +0.000 C 
ATOM     21  C   UNL     1       5.611   4.248  14.843  0.00  0.00    +0.000 C 
ATOM     22  C   UNL     1       6.090   3.922  16.272  0.00  0.00    +0.000 C 
BRANCH  21  23
ATOM     23  N   UNL     1       6.256   3.367  13.859  0.00  0.00    +0.000 NA
ATOM     24  H   UNL     1       7.123   2.994  14.243  0.00  0.00    +0.000 HD
ATOM     25  H   UNL     1       6.524   3.916  13.041  0.00  0.00    +0.000 HD
ENDBRANCH  21  23
ENDBRANCH   4  17
BRANCH   1  27
ATOM     26  N   UNL     1       0.768   2.743  21.106  0.00  0.00    +0.000 N 
ATOM     27  C   UNL     1       2.117   2.816  21.308  0.00  0.00    +0.000 C 
ATOM     28  O   UNL     1       2.617   2.389  22.343  0.00  0.00    +0.000 OA
ATOM     29  H   UNL     1       0.207   2.260  21.793  0.00  0.00    +0.000 HD
ATOM     30  H   UNL     1       0.321   3.050  20.253  0.00  0.00    +0.000 HD
ENDBRANCH   1  27
TORSDOF 4
ENDMDL
MODEL 6
REMARK VINA RESULT:      -6.8      2.772      5.266
REMARK  Name = 
REMARK  4 active torsions:
REMARK  status: ('A' for Active; 'I' for Inactive)
REMARK    1  A    between atoms: C_2  and  C_4
REMARK    2  A    between atoms: C_7  and  N_8
REMARK    3  A    between atoms: C_12  and  N_13
REMARK    4  A    between atoms: C_17  and  C_18
REMARK                            x       y       z     vdW  Elec       q    Type
REMARK                         _______ _______ _______ _____ _____    ______ ____
ROOT
ATOM      1  C   UNL     1       4.751   5.719  16.553  0.00  0.00    +0.000 A 
ATOM      2  C   UNL     1       4.915   4.346  16.488  0.00  0.00    +0.000 A 
ATOM      3  N   UNL     1       4.216   3.447  17.223  0.00  0.00    +0.000 NA
ATOM      4  C   UNL     1       3.276   3.863  18.113  0.00  0.00    +0.000 A 
ATOM      5  C   UNL     1       3.105   5.272  18.300  0.00  0.00    +0.000 A 
ATOM      6  C   UNL     1       2.308   5.987  19.270  0.00  0.00    +0.000 A 
ATOM      7  C   UNL     1       2.328   7.355  19.138  0.00  0.00    +0.000 A 
ATOM      8  S   UNL     1       3.397   7.803  17.896  0.00  0.00    +0.000 S 
ATOM      9  C   UNL     1       3.823   6.175  17.502  0.00  0.00    +0.000 A 
ENDROOT
BRANCH   7  10
ATOM     10  C   UNL     1       1.568   8.360  19.890  0.00  0.00    +0.000 A 
ATOM     11  C   UNL     1       1.111   9.544  19.288  0.00  0.00    +0.000 A 
ATOM     12  C   UNL     1       0.382  10.485  20.018  0.00  0.00    +0.000 A 
ATOM     13  C   UNL     1       0.107  10.255  21.363  0.00  0.00    +0.000 A 
ATOM     14 CL   UNL     1      -0.790  11.415  22.262  0.00  0.00    +0.000 Cl
ATOM     15  C   UNL     1       0.555   9.093  21.985  0.00  0.00    +0.000 A 
ATOM     16  C   UNL     1       1.281   8.150  21.250  0.00  0.00    +0.000 A 
ENDBRANCH   7  10
BRANCH   4  17
ATOM     17  N   UNL     1       2.558   2.923  18.828  0.00  0.00    +0.000 N 
ATOM     18  C   UNL     1       1.107   2.852  18.692  0.00  0.00    +0.000 C 
ATOM     19  C   UNL     1       0.404   3.175  20.010  0.00  0.00    +0.000 C 
ATOM     20  C   UNL     1       0.972   2.366  21.176  0.00  0.00    +0.000 C 
ATOM     21  C   UNL     1       2.483   2.583  21.289  0.00  0.00    +0.000 C 
ATOM     22  C   UNL     1       3.173   2.227  19.957  0.00  0.00    +0.000 C 
BRANCH  21  23
ATOM     23  N   UNL     1       3.040   1.792  22.397  0.00  0.00    +0.000 NA
ATOM     24  H   UNL     1       2.865   2.265  23.283  0.00  0.00    +0.000 HD
ATOM     25  H   UNL     1       4.054   1.744  22.299  0.00  0.00    +0.000 HD
ENDBRANCH  21  23
ENDBRANCH   4  17
BRANCH   1  27
ATOM     26  N   UNL     1       6.843   6.887  16.094  0.00  0.00    +0.000 N 
ATOM     27  C   UNL     1       5.577   6.581  15.685  0.00  0.00    +0.000 C 
ATOM     28  O   UNL     1       5.134   7.028  14.634  0.00  0.00    +0.000 OA
ATOM     29  H   UNL     1       7.430   7.425  15.471  0.00  0.00    +0.000 HD
ATOM     30  H   UNL     1       7.258   6.510  16.934  0.00  0.00    +0.000 HD
ENDBRANCH   1  27
TORSDOF 4
ENDMDL
MODEL 7
REMARK VINA RESULT:      -6.8      1.671      2.289
REMARK  Name = 
REMARK  4 active torsions:
REMARK  status: ('A' for Active; 'I' for Inactive)
REMARK    1  A    between atoms: C_2  and  C_4
REMARK    2  A    between atoms: C_7  and  N_8
REMARK    3  A    between atoms: C_12  and  N_13
REMARK    4  A    between atoms: C_17  and  C_18
REMARK                            x       y       z     vdW  Elec       q    Type
REMARK                         _______ _______ _______ _____ _____    ______ ____
ROOT
ATOM      1  C   UNL     1       2.547   3.214  19.104  0.00  0.00    +0.000 A 
ATOM      2  C   UNL     1       3.381   2.720  18.116  0.00  0.00    +0.000 A 
ATOM      3  N   UNL     1       4.136   3.481  17.287  0.00  0.00    +0.000 NA
ATOM      4  C   UNL     1       4.107   4.838  17.377  0.00  0.00    +0.000 A 
ATOM      5  C   UNL     1       3.205   5.430  18.318  0.00  0.00    +0.000 A 
ATOM      6  C   UNL     1       2.856   6.817  18.518  0.00  0.00    +0.000 A 
ATOM      7  C   UNL     1       1.985   7.048  19.556  0.00  0.00    +0.000 A 
ATOM      8  S   UNL     1       1.494   5.575  20.243  0.00  0.00    +0.000 S 
ATOM      9  C   UNL     1       2.461   4.612  19.182  0.00  0.00    +0.000 A 
ENDROOT
BRANCH   7  10
ATOM     10  C   UNL     1       1.504   8.332  20.081  0.00  0.00    +0.000 A 
ATOM     11  C   UNL     1       1.289   8.535  21.453  0.00  0.00    +0.000 A 
ATOM     12  C   UNL     1       0.839   9.767  21.935  0.00  0.00    +0.000 A 
ATOM     13  C   UNL     1       0.593  10.809  21.046  0.00  0.00    +0.000 A 
ATOM     14 CL   UNL     1       0.038  12.324  21.639  0.00  0.00    +0.000 Cl
ATOM     15  C   UNL     1       0.792  10.631  19.680  0.00  0.00    +0.000 A 
ATOM     16  C   UNL     1       1.247   9.398  19.201  0.00  0.00    +0.000 A 
ENDBRANCH   7  10
BRANCH   4  17
ATOM     17  N   UNL     1       4.909   5.589  16.538  0.00  0.00    +0.000 N 
ATOM     18  C   UNL     1       5.335   5.045  15.253  0.00  0.00    +0.000 C 
ATOM     19  C   UNL     1       6.853   4.879  15.191  0.00  0.00    +0.000 C 
ATOM     20  C   UNL     1       7.588   6.150  15.616  0.00  0.00    +0.000 C 
ATOM     21  C   UNL     1       7.137   6.583  17.013  0.00  0.00    +0.000 C 
ATOM     22  C   UNL     1       5.607   6.769  17.045  0.00  0.00    +0.000 C 
BRANCH  21  23
ATOM     23  N   UNL     1       7.825   7.817  17.422  0.00  0.00    +0.000 NA
ATOM     24  H   UNL     1       7.304   8.629  17.095  0.00  0.00    +0.000 HD
ATOM     25  H   UNL     1       8.735   7.862  16.962  0.00  0.00    +0.000 HD
ENDBRANCH  21  23
ENDBRANCH   4  17
BRANCH   1  27
ATOM     26  N   UNL     1       0.930   1.401  19.327  0.00  0.00    +0.000 N 
ATOM     27  C   UNL     1       1.789   2.265  19.942  0.00  0.00    +0.000 C 
ATOM     28  O   UNL     1       1.911   2.263  21.162  0.00  0.00    +0.000 OA
ATOM     29  H   UNL     1       0.459   0.710  19.894  0.00  0.00    +0.000 HD
ATOM     30  H   UNL     1       0.828   1.345  18.323  0.00  0.00    +0.000 HD
ENDBRANCH   1  27
TORSDOF 4
ENDMDL
MODEL 8
REMARK VINA RESULT:      -6.7      1.726      2.119
REMARK  Name = 
REMARK  4 active torsions:
REMARK  status: ('A' for Active; 'I' for Inactive)
REMARK    1  A    between atoms: C_2  and  C_4
REMARK    2  A    between atoms: C_7  and  N_8
REMARK    3  A    between atoms: C_12  and  N_13
REMARK    4  A    between atoms: C_17  and  C_18
REMARK                            x       y       z     vdW  Elec       q    Type
REMARK                         _______ _______ _______ _____ _____    ______ ____
ROOT
ATOM      1  C   UNL     1       2.156   3.388  19.088  0.00  0.00    +0.000 A 
ATOM      2  C   UNL     1       2.964   2.764  18.153  0.00  0.00    +0.000 A 
ATOM      3  N   UNL     1       3.800   3.406  17.301  0.00  0.00    +0.000 NA
ATOM      4  C   UNL     1       3.889   4.762  17.310  0.00  0.00    +0.000 A 
ATOM      5  C   UNL     1       3.022   5.486  18.190  0.00  0.00    +0.000 A 
ATOM      6  C   UNL     1       2.792   6.908  18.299  0.00  0.00    +0.000 A 
ATOM      7  C   UNL     1       1.922   7.277  19.298  0.00  0.00    +0.000 A 
ATOM      8  S   UNL     1       1.290   5.896  20.057  0.00  0.00    +0.000 S 
ATOM      9  C   UNL     1       2.191   4.790  19.081  0.00  0.00    +0.000 A 
ENDROOT
BRANCH   7  10
ATOM     10  C   UNL     1       1.545   8.627  19.733  0.00  0.00    +0.000 A 
ATOM     11  C   UNL     1       1.503   9.708  18.838  0.00  0.00    +0.000 A 
ATOM     12  C   UNL     1       1.132  10.983  19.269  0.00  0.00    +0.000 A 
ATOM     13  C   UNL     1       0.806  11.194  20.606  0.00  0.00    +0.000 A 
ATOM     14 CL   UNL     1       0.352  12.765  21.136  0.00  0.00    +0.000 Cl
ATOM     15  C   UNL     1       0.847  10.140  21.515  0.00  0.00    +0.000 A 
ATOM     16  C   UNL     1       1.213   8.863  21.079  0.00  0.00    +0.000 A 
ENDBRANCH   7  10
BRANCH   4  17
ATOM     17  N   UNL     1       4.771   5.389  16.450  0.00  0.00    +0.000 N 
ATOM     18  C   UNL     1       5.260   4.690  15.267  0.00  0.00    +0.000 C 
ATOM     19  C   UNL     1       6.771   4.472  15.328  0.00  0.00    +0.000 C 
ATOM     20  C   UNL     1       7.523   5.762  15.658  0.00  0.00    +0.000 C 
ATOM     21  C   UNL     1       6.998   6.365  16.964  0.00  0.00    +0.000 C 
ATOM     22  C   UNL     1       5.477   6.598  16.868  0.00  0.00    +0.000 C 
BRANCH  21  23
ATOM     23  N   UNL     1       7.703   7.617  17.278  0.00  0.00    +0.000 NA
ATOM     24  H   UNL     1       7.647   7.805  18.278  0.00  0.00    +0.000 HD
ATOM     25  H   UNL     1       7.230   8.394  16.818  0.00  0.00    +0.000 HD
ENDBRANCH  21  23
ENDBRANCH   4  17
BRANCH   1  27
ATOM     26  N   UNL     1       1.690   2.366  21.254  0.00  0.00    +0.000 N 
ATOM     27  C   UNL     1       1.300   2.561  19.960  0.00  0.00    +0.000 C 
ATOM     28  O   UNL     1       0.275   2.043  19.532  0.00  0.00    +0.000 OA
ATOM     29  H   UNL     1       1.072   1.853  21.868  0.00  0.00    +0.000 HD
ATOM     30  H   UNL     1       2.507   2.805  21.656  0.00  0.00    +0.000 HD
ENDBRANCH   1  27
TORSDOF 4
ENDMDL
MODEL 9
REMARK VINA RESULT:      -6.4      1.464      1.893
REMARK  Name = 
REMARK  4 active torsions:
REMARK  status: ('A' for Active; 'I' for Inactive)
REMARK    1  A    between atoms: C_2  and  C_4
REMARK    2  A    between atoms: C_7  and  N_8
REMARK    3  A    between atoms: C_12  and  N_13
REMARK    4  A    between atoms: C_17  and  C_18
REMARK                            x       y       z     vdW  Elec       q    Type
REMARK                         _______ _______ _______ _____ _____    ______ ____
ROOT
ATOM      1  C   UNL     1       2.142   3.685  20.169  0.00  0.00    +0.000 A 
ATOM      2  C   UNL     1       3.132   2.990  19.495  0.00  0.00    +0.000 A 
ATOM      3  N   UNL     1       4.113   3.562  18.755  0.00  0.00    +0.000 NA
ATOM      4  C   UNL     1       4.176   4.913  18.617  0.00  0.00    +0.000 A 
ATOM      5  C   UNL     1       3.138   5.698  19.214  0.00  0.00    +0.000 A 
ATOM      6  C   UNL     1       2.869   7.113  19.101  0.00  0.00    +0.000 A 
ATOM      7  C   UNL     1       1.810   7.560  19.856  0.00  0.00    +0.000 A 
ATOM      8  S   UNL     1       1.059   6.252  20.636  0.00  0.00    +0.000 S 
ATOM      9  C   UNL     1       2.156   5.078  19.999  0.00  0.00    +0.000 A 
ENDROOT
BRANCH   7  10
ATOM     10  C   UNL     1       1.331   8.935  20.041  0.00  0.00    +0.000 A 
ATOM     11  C   UNL     1       1.240   9.837  18.969  0.00  0.00    +0.000 A 
ATOM     12  C   UNL     1       0.774  11.139  19.163  0.00  0.00    +0.000 A 
ATOM     13  C   UNL     1       0.399  11.557  20.437  0.00  0.00    +0.000 A 
ATOM     14 CL   UNL     1      -0.173  13.160  20.676  0.00  0.00    +0.000 Cl
ATOM     15  C   UNL     1       0.486  10.683  21.518  0.00  0.00    +0.000 A 
ATOM     16  C   UNL     1       0.949   9.379  21.319  0.00  0.00    +0.000 A 
ENDBRANCH   7  10
BRANCH   4  17
ATOM     17  N   UNL     1       5.204   5.470  17.879  0.00  0.00    +0.000 N 
ATOM     18  C   UNL     1       4.937   6.028  16.558  0.00  0.00    +0.000 C 
ATOM     19  C   UNL     1       5.681   5.261  15.465  0.00  0.00    +0.000 C 
ATOM     20  C   UNL     1       7.164   5.090  15.793  0.00  0.00    +0.000 C 
ATOM     21  C   UNL     1       7.334   4.413  17.156  0.00  0.00    +0.000 C 
ATOM     22  C   UNL     1       6.596   5.217  18.245  0.00  0.00    +0.000 C 
BRANCH  21  23
ATOM     23  N   UNL     1       8.759   4.263  17.487  0.00  0.00    +0.000 NA
ATOM     24  H   UNL     1       9.314   4.248  16.633  0.00  0.00    +0.000 HD
ATOM     25  H   UNL     1       8.906   3.357  17.934  0.00  0.00    +0.000 HD
ENDBRANCH  21  23
ENDBRANCH   4  17
BRANCH   1  27
ATOM     26  N   UNL     1       1.452   2.570  22.227  0.00  0.00    +0.000 N 
ATOM     27  C   UNL     1       1.141   2.931  20.947  0.00  0.00    +0.000 C 
ATOM     28  O   UNL     1       0.063   2.616  20.455  0.00  0.00    +0.000 OA
ATOM     29  H   UNL     1       0.743   2.109  22.780  0.00  0.00    +0.000 HD
ATOM     30  H   UNL     1       2.313   2.840  22.682  0.00  0.00    +0.000 HD
ENDBRANCH   1  27
TORSDOF 4
ENDMDL
