MODEL 1
REMARK VINA RESULT:      -9.1      0.000      0.000
REMARK  Name = 
REMARK  4 active torsions:
REMARK  status: ('A' for Active; 'I' for Inactive)
REMARK    1  A    between atoms: C_2  and  C_17
REMARK    2  A    between atoms: N_3  and  C_4
REMARK    3  A    between atoms: C_4  and  C_5
REMARK    4  A    between atoms: C_4  and  C_12
REMARK                            x       y       z     vdW  Elec       q    Type
REMARK                         _______ _______ _______ _____ _____    ______ ____
ROOT
ATOM      1  O   UNL     1       5.853   4.619  18.810  0.00  0.00    +0.000 OA
ATOM      2  C   UNL     1       5.235   5.020  17.824  0.00  0.00    +0.000 C 
ATOM      3  N   UNL     1       4.000   5.620  17.930  0.00  0.00    +0.000 N 
ATOM      4  H   UNL     1       3.582   5.994  17.090  0.00  0.00    +0.000 HD
ENDROOT
BRANCH   2   5
ATOM      5  C   UNL     1       5.734   4.891  16.470  0.00  0.00    +0.000 A 
ATOM      6  C   UNL     1       6.869   5.405  15.866  0.00  0.00    +0.000 A 
ATOM      7  C   UNL     1       6.886   4.926  14.529  0.00  0.00    +0.000 A 
ATOM      8  C   UNL     1       7.743   5.055  13.421  0.00  0.00    +0.000 A 
ATOM      9  C   UNL     1       7.405   4.397  12.228  0.00  0.00    +0.000 A 
ATOM     10  C   UNL     1       6.241   3.629  12.135  0.00  0.00    +0.000 A 
ATOM     11  C   UNL     1       5.378   3.489  13.227  0.00  0.00    +0.000 A 
ATOM     12  C   UNL     1       5.740   4.152  14.397  0.00  0.00    +0.000 A 
ATOM     13  O   UNL     1       5.037   4.134  15.563  0.00  0.00    +0.000 OA
ENDBRANCH   2   5
BRANCH   3  14
ATOM     14  C   UNL     1       3.351   5.848  19.202  0.00  0.00    +0.000 C 
BRANCH  14  15
ATOM     15  C   UNL     1       2.523   7.131  19.190  0.00  0.00    +0.000 A 
ATOM     16  C   UNL     1       1.890   7.596  20.359  0.00  0.00    +0.000 A 
ATOM     17  C   UNL     1       1.174   8.793  20.362  0.00  0.00    +0.000 A 
ATOM     18  C   UNL     1       1.078   9.534  19.193  0.00  0.00    +0.000 A 
ATOM     19  F   UNL     1       0.389  10.683  19.198  0.00  0.00    +0.000 F 
ATOM     20  C   UNL     1       1.685   9.100  18.022  0.00  0.00    +0.000 A 
ATOM     21  C   UNL     1       2.404   7.899  18.016  0.00  0.00    +0.000 A 
ENDBRANCH  14  15
BRANCH  14  22
ATOM     22  C   UNL     1       2.497   4.647  19.590  0.00  0.00    +0.000 A 
ATOM     23  C   UNL     1       2.277   4.158  20.868  0.00  0.00    +0.000 A 
ATOM     24  C   UNL     1       1.312   3.110  20.899  0.00  0.00    +0.000 A 
ATOM     25  C   UNL     1       0.846   2.802  19.642  0.00  0.00    +0.000 A 
ATOM     26  S   UNL     1       1.595   3.745  18.433  0.00  0.00    +0.000 S 
ENDBRANCH  14  22
ENDBRANCH   3  14
TORSDOF 4
ENDMDL
MODEL 2
REMARK VINA RESULT:      -9.0      0.646      1.275
REMARK  Name = 
REMARK  4 active torsions:
REMARK  status: ('A' for Active; 'I' for Inactive)
REMARK    1  A    between atoms: C_2  and  C_17
REMARK    2  A    between atoms: N_3  and  C_4
REMARK    3  A    between atoms: C_4  and  C_5
REMARK    4  A    between atoms: C_4  and  C_12
REMARK                            x       y       z     vdW  Elec       q    Type
REMARK                         _______ _______ _______ _____ _____    ______ ____
ROOT
ATOM      1  O   UNL     1       5.708   4.447  18.806  0.00  0.00    +0.000 OA
ATOM      2  C   UNL     1       5.145   4.934  17.825  0.00  0.00    +0.000 C 
ATOM      3  N   UNL     1       3.953   5.614  17.930  0.00  0.00    +0.000 N 
ATOM      4  H   UNL     1       3.585   6.053  17.098  0.00  0.00    +0.000 HD
ENDROOT
BRANCH   2   5
ATOM      5  C   UNL     1       5.671   4.830  16.479  0.00  0.00    +0.000 A 
ATOM      6  C   UNL     1       6.807   5.371  15.901  0.00  0.00    +0.000 A 
ATOM      7  C   UNL     1       6.856   4.909  14.560  0.00  0.00    +0.000 A 
ATOM      8  C   UNL     1       7.729   5.067  13.469  0.00  0.00    +0.000 A 
ATOM      9  C   UNL     1       7.425   4.418  12.263  0.00  0.00    +0.000 A 
ATOM     10  C   UNL     1       6.277   3.630  12.139  0.00  0.00    +0.000 A 
ATOM     11  C   UNL     1       5.398   3.461  13.214  0.00  0.00    +0.000 A 
ATOM     12  C   UNL     1       5.727   4.117  14.398  0.00  0.00    +0.000 A 
ATOM     13  O   UNL     1       5.003   4.072  15.551  0.00  0.00    +0.000 OA
ENDBRANCH   2   5
BRANCH   3  14
ATOM     14  C   UNL     1       3.287   5.830  19.195  0.00  0.00    +0.000 C 
BRANCH  14  15
ATOM     15  C   UNL     1       2.525   7.153  19.212  0.00  0.00    +0.000 A 
ATOM     16  C   UNL     1       2.419   7.942  18.051  0.00  0.00    +0.000 A 
ATOM     17  C   UNL     1       1.682   9.127  18.051  0.00  0.00    +0.000 A 
ATOM     18  C   UNL     1       1.050   9.537  19.215  0.00  0.00    +0.000 A 
ATOM     19  F   UNL     1       0.343  10.675  19.214  0.00  0.00    +0.000 F 
ATOM     20  C   UNL     1       1.141   8.785  20.380  0.00  0.00    +0.000 A 
ATOM     21  C   UNL     1       1.879   7.596  20.381  0.00  0.00    +0.000 A 
ENDBRANCH  14  15
BRANCH  14  22
ATOM     22  C   UNL     1       2.364   4.662  19.521  0.00  0.00    +0.000 A 
ATOM     23  C   UNL     1       1.531   3.987  18.643  0.00  0.00    +0.000 A 
ATOM     24  C   UNL     1       0.909   2.850  19.236  0.00  0.00    +0.000 A 
ATOM     25  C   UNL     1       1.257   2.705  20.559  0.00  0.00    +0.000 A 
ATOM     26  S   UNL     1       2.293   3.953  21.089  0.00  0.00    +0.000 S 
ENDBRANCH  14  22
ENDBRANCH   3  14
TORSDOF 4
ENDMDL
MODEL 3
REMARK VINA RESULT:      -9.0      0.924      1.762
REMARK  Name = 
REMARK  4 active torsions:
REMARK  status: ('A' for Active; 'I' for Inactive)
REMARK    1  A    between atoms: C_2  and  C_17
REMARK    2  A    between atoms: N_3  and  C_4
REMARK    3  A    between atoms: C_4  and  C_5
REMARK    4  A    between atoms: C_4  and  C_12
REMARK                            x       y       z     vdW  Elec       q    Type
REMARK                         _______ _______ _______ _____ _____    ______ ____
ROOT
ATOM      1  O   UNL     1       6.036   5.823  18.490  0.00  0.00    +0.000 OA
ATOM      2  C   UNL     1       5.230   5.453  17.636  0.00  0.00    +0.000 C 
ATOM      3  N   UNL     1       3.879   5.383  17.888  0.00  0.00    +0.000 N 
ATOM      4  H   UNL     1       3.266   5.144  17.121  0.00  0.00    +0.000 HD
ENDROOT
BRANCH   2   5
ATOM      5  C   UNL     1       5.621   5.048  16.301  0.00  0.00    +0.000 A 
ATOM      6  C   UNL     1       5.078   4.112  15.438  0.00  0.00    +0.000 A 
ATOM      7  C   UNL     1       5.837   4.155  14.239  0.00  0.00    +0.000 A 
ATOM      8  C   UNL     1       5.804   3.495  12.998  0.00  0.00    +0.000 A 
ATOM      9  C   UNL     1       6.759   3.835  12.028  0.00  0.00    +0.000 A 
ATOM     10  C   UNL     1       7.730   4.807  12.284  0.00  0.00    +0.000 A 
ATOM     11  C   UNL     1       7.778   5.474  13.512  0.00  0.00    +0.000 A 
ATOM     12  C   UNL     1       6.816   5.117  14.455  0.00  0.00    +0.000 A 
ATOM     13  O   UNL     1       6.696   5.653  15.700  0.00  0.00    +0.000 OA
ENDBRANCH   2   5
BRANCH   3  14
ATOM     14  C   UNL     1       3.302   5.762  19.159  0.00  0.00    +0.000 C 
BRANCH  14  15
ATOM     15  C   UNL     1       2.591   7.111  19.075  0.00  0.00    +0.000 A 
ATOM     16  C   UNL     1       2.577   7.849  17.876  0.00  0.00    +0.000 A 
ATOM     17  C   UNL     1       1.887   9.057  17.784  0.00  0.00    +0.000 A 
ATOM     18  C   UNL     1       1.209   9.543  18.892  0.00  0.00    +0.000 A 
ATOM     19  F   UNL     1       0.548  10.705  18.801  0.00  0.00    +0.000 F 
ATOM     20  C   UNL     1       1.210   8.843  20.092  0.00  0.00    +0.000 A 
ATOM     21  C   UNL     1       1.901   7.631  20.187  0.00  0.00    +0.000 A 
ENDBRANCH  14  15
BRANCH  14  22
ATOM     22  C   UNL     1       2.360   4.676  19.665  0.00  0.00    +0.000 A 
ATOM     23  C   UNL     1       1.434   3.962  18.921  0.00  0.00    +0.000 A 
ATOM     24  C   UNL     1       0.814   2.918  19.666  0.00  0.00    +0.000 A 
ATOM     25  C   UNL     1       1.255   2.884  20.969  0.00  0.00    +0.000 A 
ATOM     26  S   UNL     1       2.380   4.125  21.297  0.00  0.00    +0.000 S 
ENDBRANCH  14  22
ENDBRANCH   3  14
TORSDOF 4
ENDMDL
MODEL 4
REMARK VINA RESULT:      -9.0      0.630      1.206
REMARK  Name = 
REMARK  4 active torsions:
REMARK  status: ('A' for Active; 'I' for Inactive)
REMARK    1  A    between atoms: C_2  and  C_17
REMARK    2  A    between atoms: N_3  and  C_4
REMARK    3  A    between atoms: C_4  and  C_5
REMARK    4  A    between atoms: C_4  and  C_12
REMARK                            x       y       z     vdW  Elec       q    Type
REMARK                         _______ _______ _______ _____ _____    ______ ____
ROOT
ATOM      1  O   UNL     1       6.118   5.295  18.622  0.00  0.00    +0.000 OA
ATOM      2  C   UNL     1       5.313   5.239  17.692  0.00  0.00    +0.000 C 
ATOM      3  N   UNL     1       3.971   5.487  17.870  0.00  0.00    +0.000 N 
ATOM      4  H   UNL     1       3.379   5.498  17.052  0.00  0.00    +0.000 HD
ENDROOT
BRANCH   2   5
ATOM      5  C   UNL     1       5.694   4.898  16.336  0.00  0.00    +0.000 A 
ATOM      6  C   UNL     1       5.165   3.978  15.447  0.00  0.00    +0.000 A 
ATOM      7  C   UNL     1       5.901   4.092  14.238  0.00  0.00    +0.000 A 
ATOM      8  C   UNL     1       5.867   3.478  12.973  0.00  0.00    +0.000 A 
ATOM      9  C   UNL     1       6.793   3.886  12.001  0.00  0.00    +0.000 A 
ATOM     10  C   UNL     1       7.737   4.879  12.278  0.00  0.00    +0.000 A 
ATOM     11  C   UNL     1       7.785   5.500  13.530  0.00  0.00    +0.000 A 
ATOM     12  C   UNL     1       6.852   5.076  14.474  0.00  0.00    +0.000 A 
ATOM     13  O   UNL     1       6.737   5.560  15.741  0.00  0.00    +0.000 OA
ENDBRANCH   2   5
BRANCH   3  14
ATOM     14  C   UNL     1       3.411   5.858  19.151  0.00  0.00    +0.000 C 
BRANCH  14  15
ATOM     15  C   UNL     1       2.604   7.152  19.061  0.00  0.00    +0.000 A 
ATOM     16  C   UNL     1       1.886   7.637  20.170  0.00  0.00    +0.000 A 
ATOM     17  C   UNL     1       1.189   8.843  20.104  0.00  0.00    +0.000 A 
ATOM     18  C   UNL     1       1.199   9.573  18.925  0.00  0.00    +0.000 A 
ATOM     19  F   UNL     1       0.528  10.732  18.863  0.00  0.00    +0.000 F 
ATOM     20  C   UNL     1       1.892   9.119  17.810  0.00  0.00    +0.000 A 
ATOM     21  C   UNL     1       2.592   7.909  17.874  0.00  0.00    +0.000 A 
ENDBRANCH  14  15
BRANCH  14  22
ATOM     22  C   UNL     1       2.564   4.722  19.714  0.00  0.00    +0.000 A 
ATOM     23  C   UNL     1       2.439   4.355  21.045  0.00  0.00    +0.000 A 
ATOM     24  C   UNL     1       1.457   3.343  21.248  0.00  0.00    +0.000 A 
ATOM     25  C   UNL     1       0.882   2.940  20.066  0.00  0.00    +0.000 A 
ATOM     26  S   UNL     1       1.550   3.749  18.720  0.00  0.00    +0.000 S 
ENDBRANCH  14  22
ENDBRANCH   3  14
TORSDOF 4
ENDMDL
MODEL 5
REMARK VINA RESULT:      -8.8      3.629      7.721
REMARK  Name = 
REMARK  4 active torsions:
REMARK  status: ('A' for Active; 'I' for Inactive)
REMARK    1  A    between atoms: C_2  and  C_17
REMARK    2  A    between atoms: N_3  and  C_4
REMARK    3  A    between atoms: C_4  and  C_5
REMARK    4  A    between atoms: C_4  and  C_12
REMARK                            x       y       z     vdW  Elec       q    Type
REMARK                         _______ _______ _______ _____ _____    ______ ____
ROOT
ATOM      1  O   UNL     1       2.503   8.634  17.264  0.00  0.00    +0.000 OA
ATOM      2  C   UNL     1       2.132   8.156  18.336  0.00  0.00    +0.000 C 
ATOM      3  N   UNL     1       2.375   6.844  18.674  0.00  0.00    +0.000 N 
ATOM      4  H   UNL     1       2.110   6.537  19.599  0.00  0.00    +0.000 HD
ENDROOT
BRANCH   2   5
ATOM      5  C   UNL     1       1.401   8.915  19.330  0.00  0.00    +0.000 A 
ATOM      6  C   UNL     1       0.736  10.126  19.242  0.00  0.00    +0.000 A 
ATOM      7  C   UNL     1       0.158  10.380  20.513  0.00  0.00    +0.000 A 
ATOM      8  C   UNL     1      -0.635  11.396  21.078  0.00  0.00    +0.000 A 
ATOM      9  C   UNL     1      -1.026  11.278  22.420  0.00  0.00    +0.000 A 
ATOM     10  C   UNL     1      -0.638  10.177  23.189  0.00  0.00    +0.000 A 
ATOM     11  C   UNL     1       0.150   9.158  22.644  0.00  0.00    +0.000 A 
ATOM     12  C   UNL     1       0.522   9.302  21.310  0.00  0.00    +0.000 A 
ATOM     13  O   UNL     1       1.279   8.418  20.603  0.00  0.00    +0.000 OA
ENDBRANCH   2   5
BRANCH   3  14
ATOM     14  C   UNL     1       3.105   5.939  17.813  0.00  0.00    +0.000 C 
BRANCH  14  15
ATOM     15  C   UNL     1       4.610   6.019  18.057  0.00  0.00    +0.000 A 
ATOM     16  C   UNL     1       5.441   6.781  17.213  0.00  0.00    +0.000 A 
ATOM     17  C   UNL     1       6.808   6.895  17.463  0.00  0.00    +0.000 A 
ATOM     18  C   UNL     1       7.360   6.244  18.556  0.00  0.00    +0.000 A 
ATOM     19  F   UNL     1       8.673   6.354  18.794  0.00  0.00    +0.000 F 
ATOM     20  C   UNL     1       6.568   5.479  19.404  0.00  0.00    +0.000 A 
ATOM     21  C   UNL     1       5.196   5.363  19.156  0.00  0.00    +0.000 A 
ENDBRANCH  14  15
BRANCH  14  22
ATOM     22  C   UNL     1       2.597   4.512  17.983  0.00  0.00    +0.000 A 
ATOM     23  C   UNL     1       2.925   3.412  17.207  0.00  0.00    +0.000 A 
ATOM     24  C   UNL     1       2.390   2.195  17.720  0.00  0.00    +0.000 A 
ATOM     25  C   UNL     1       1.640   2.401  18.855  0.00  0.00    +0.000 A 
ATOM     26  S   UNL     1       1.552   4.053  19.273  0.00  0.00    +0.000 S 
ENDBRANCH  14  22
ENDBRANCH   3  14
TORSDOF 4
ENDMDL
MODEL 6
REMARK VINA RESULT:      -8.7      3.628      7.798
REMARK  Name = 
REMARK  4 active torsions:
REMARK  status: ('A' for Active; 'I' for Inactive)
REMARK    1  A    between atoms: C_2  and  C_17
REMARK    2  A    between atoms: N_3  and  C_4
REMARK    3  A    between atoms: C_4  and  C_5
REMARK    4  A    between atoms: C_4  and  C_12
REMARK                            x       y       z     vdW  Elec       q    Type
REMARK                         _______ _______ _______ _____ _____    ______ ____
ROOT
ATOM      1  O   UNL     1       2.413   8.609  17.539  0.00  0.00    +0.000 OA
ATOM      2  C   UNL     1       2.075   8.037  18.575  0.00  0.00    +0.000 C 
ATOM      3  N   UNL     1       2.359   6.709  18.803  0.00  0.00    +0.000 N 
ATOM      4  H   UNL     1       2.119   6.322  19.704  0.00  0.00    +0.000 HD
ENDROOT
BRANCH   2   5
ATOM      5  C   UNL     1       1.341   8.693  19.639  0.00  0.00    +0.000 A 
ATOM      6  C   UNL     1       1.189   8.366  20.975  0.00  0.00    +0.000 A 
ATOM      7  C   UNL     1       0.398   9.384  21.569  0.00  0.00    +0.000 A 
ATOM      8  C   UNL     1      -0.097   9.657  22.857  0.00  0.00    +0.000 A 
ATOM      9  C   UNL     1      -0.866  10.814  23.053  0.00  0.00    +0.000 A 
ATOM     10  C   UNL     1      -1.142  11.682  21.992  0.00  0.00    +0.000 A 
ATOM     11  C   UNL     1      -0.658  11.427  20.705  0.00  0.00    +0.000 A 
ATOM     12  C   UNL     1       0.103  10.272  20.542  0.00  0.00    +0.000 A 
ATOM     13  O   UNL     1       0.663   9.855  19.373  0.00  0.00    +0.000 OA
ENDBRANCH   2   5
BRANCH   3  14
ATOM     14  C   UNL     1       3.097   5.897  17.860  0.00  0.00    +0.000 C 
BRANCH  14  15
ATOM     15  C   UNL     1       4.605   6.013  18.076  0.00  0.00    +0.000 A 
ATOM     16  C   UNL     1       5.399   6.804  17.223  0.00  0.00    +0.000 A 
ATOM     17  C   UNL     1       6.768   6.950  17.447  0.00  0.00    +0.000 A 
ATOM     18  C   UNL     1       7.357   6.303  18.523  0.00  0.00    +0.000 A 
ATOM     19  F   UNL     1       8.672   6.444  18.736  0.00  0.00    +0.000 F 
ATOM     20  C   UNL     1       6.602   5.510  19.378  0.00  0.00    +0.000 A 
ATOM     21  C   UNL     1       5.229   5.362  19.156  0.00  0.00    +0.000 A 
ENDBRANCH  14  15
BRANCH  14  22
ATOM     22  C   UNL     1       2.643   4.444  17.935  0.00  0.00    +0.000 A 
ATOM     23  C   UNL     1       3.075   3.394  17.141  0.00  0.00    +0.000 A 
ATOM     24  C   UNL     1       2.560   2.134  17.563  0.00  0.00    +0.000 A 
ATOM     25  C   UNL     1       1.722   2.259  18.647  0.00  0.00    +0.000 A 
ATOM     26  S   UNL     1       1.529   3.886  19.124  0.00  0.00    +0.000 S 
ENDBRANCH  14  22
ENDBRANCH   3  14
TORSDOF 4
ENDMDL
MODEL 7
REMARK VINA RESULT:      -8.2      3.689      7.770
REMARK  Name = 
REMARK  4 active torsions:
REMARK  status: ('A' for Active; 'I' for Inactive)
REMARK    1  A    between atoms: C_2  and  C_17
REMARK    2  A    between atoms: N_3  and  C_4
REMARK    3  A    between atoms: C_4  and  C_5
REMARK    4  A    between atoms: C_4  and  C_12
REMARK                            x       y       z     vdW  Elec       q    Type
REMARK                         _______ _______ _______ _____ _____    ______ ____
ROOT
ATOM      1  O   UNL     1       2.285   8.676  17.466  0.00  0.00    +0.000 OA
ATOM      2  C   UNL     1       1.990   8.161  18.544  0.00  0.00    +0.000 C 
ATOM      3  N   UNL     1       2.315   6.858  18.845  0.00  0.00    +0.000 N 
ATOM      4  H   UNL     1       2.110   6.521  19.774  0.00  0.00    +0.000 HD
ENDROOT
BRANCH   2   5
ATOM      5  C   UNL     1       1.268   8.863  19.586  0.00  0.00    +0.000 A 
ATOM      6  C   UNL     1       1.047   8.543  20.914  0.00  0.00    +0.000 A 
ATOM      7  C   UNL     1       0.309   9.612  21.487  0.00  0.00    +0.000 A 
ATOM      8  C   UNL     1      -0.209   9.916  22.759  0.00  0.00    +0.000 A 
ATOM      9  C   UNL     1      -0.902  11.123  22.934  0.00  0.00    +0.000 A 
ATOM     10  C   UNL     1      -1.081  12.011  21.870  0.00  0.00    +0.000 A 
ATOM     11  C   UNL     1      -0.572  11.727  20.598  0.00  0.00    +0.000 A 
ATOM     12  C   UNL     1       0.112  10.522  20.455  0.00  0.00    +0.000 A 
ATOM     13  O   UNL     1       0.682  10.071  19.303  0.00  0.00    +0.000 OA
ENDBRANCH   2   5
BRANCH   3  14
ATOM     14  C   UNL     1       3.049   6.007  17.933  0.00  0.00    +0.000 C 
BRANCH  14  15
ATOM     15  C   UNL     1       4.558   6.134  18.136  0.00  0.00    +0.000 A 
ATOM     16  C   UNL     1       5.201   5.489  19.210  0.00  0.00    +0.000 A 
ATOM     17  C   UNL     1       6.584   5.563  19.368  0.00  0.00    +0.000 A 
ATOM     18  C   UNL     1       7.338   6.288  18.458  0.00  0.00    +0.000 A 
ATOM     19  F   UNL     1       8.667   6.358  18.612  0.00  0.00    +0.000 F 
ATOM     20  C   UNL     1       6.734   6.941  17.391  0.00  0.00    +0.000 A 
ATOM     21  C   UNL     1       5.346   6.868  17.230  0.00  0.00    +0.000 A 
ENDBRANCH  14  15
BRANCH  14  22
ATOM     22  C   UNL     1       2.597   4.559  18.071  0.00  0.00    +0.000 A 
ATOM     23  C   UNL     1       1.489   4.093  18.761  0.00  0.00    +0.000 A 
ATOM     24  C   UNL     1       1.267   2.698  18.573  0.00  0.00    +0.000 A 
ATOM     25  C   UNL     1       2.230   2.128  17.772  0.00  0.00    +0.000 A 
ATOM     26  S   UNL     1       3.411   3.260  17.286  0.00  0.00    +0.000 S 
ENDBRANCH  14  22
ENDBRANCH   3  14
TORSDOF 4
ENDMDL
MODEL 8
REMARK VINA RESULT:      -7.9      3.701      7.811
REMARK  Name = 
REMARK  4 active torsions:
REMARK  status: ('A' for Active; 'I' for Inactive)
REMARK    1  A    between atoms: C_2  and  C_17
REMARK    2  A    between atoms: N_3  and  C_4
REMARK    3  A    between atoms: C_4  and  C_5
REMARK    4  A    between atoms: C_4  and  C_12
REMARK                            x       y       z     vdW  Elec       q    Type
REMARK                         _______ _______ _______ _____ _____    ______ ____
ROOT
ATOM      1  O   UNL     1       2.226   8.823  17.296  0.00  0.00    +0.000 OA
ATOM      2  C   UNL     1       1.910   8.459  18.429  0.00  0.00    +0.000 C 
ATOM      3  N   UNL     1       2.120   7.171  18.867  0.00  0.00    +0.000 N 
ATOM      4  H   UNL     1       1.907   6.959  19.831  0.00  0.00    +0.000 HD
ENDROOT
BRANCH   2   5
ATOM      5  C   UNL     1       1.284   9.336  19.397  0.00  0.00    +0.000 A 
ATOM      6  C   UNL     1       0.574   9.058  20.552  0.00  0.00    +0.000 A 
ATOM      7  C   UNL     1       0.224  10.301  21.140  0.00  0.00    +0.000 A 
ATOM      8  C   UNL     1      -0.462  10.715  22.296  0.00  0.00    +0.000 A 
ATOM      9  C   UNL     1      -0.600  12.089  22.543  0.00  0.00    +0.000 A 
ATOM     10  C   UNL     1      -0.071  13.035  21.660  0.00  0.00    +0.000 A 
ATOM     11  C   UNL     1       0.615  12.642  20.507  0.00  0.00    +0.000 A 
ATOM     12  C   UNL     1       0.737  11.272  20.289  0.00  0.00    +0.000 A 
ATOM     13  O   UNL     1       1.371  10.696  19.231  0.00  0.00    +0.000 OA
ENDBRANCH   2   5
BRANCH   3  14
ATOM     14  C   UNL     1       2.747   6.160  18.045  0.00  0.00    +0.000 C 
BRANCH  14  15
ATOM     15  C   UNL     1       4.265   6.159  18.213  0.00  0.00    +0.000 A 
ATOM     16  C   UNL     1       4.878   5.423  19.245  0.00  0.00    +0.000 A 
ATOM     17  C   UNL     1       6.267   5.382  19.371  0.00  0.00    +0.000 A 
ATOM     18  C   UNL     1       7.056   6.081  18.470  0.00  0.00    +0.000 A 
ATOM     19  F   UNL     1       8.389   6.040  18.593  0.00  0.00    +0.000 F 
ATOM     20  C   UNL     1       6.481   6.822  17.445  0.00  0.00    +0.000 A 
ATOM     21  C   UNL     1       5.089   6.865  17.316  0.00  0.00    +0.000 A 
ENDBRANCH  14  15
BRANCH  14  22
ATOM     22  C   UNL     1       2.161   4.786  18.345  0.00  0.00    +0.000 A 
ATOM     23  C   UNL     1       2.175   3.674  17.517  0.00  0.00    +0.000 A 
ATOM     24  C   UNL     1       1.670   2.504  18.155  0.00  0.00    +0.000 A 
ATOM     25  C   UNL     1       1.252   2.759  19.441  0.00  0.00    +0.000 A 
ATOM     26  S   UNL     1       1.434   4.404  19.859  0.00  0.00    +0.000 S 
ENDBRANCH  14  22
ENDBRANCH   3  14
TORSDOF 4
ENDMDL
MODEL 9
REMARK VINA RESULT:      -7.8      3.658      5.844
REMARK  Name = 
REMARK  4 active torsions:
REMARK  status: ('A' for Active; 'I' for Inactive)
REMARK    1  A    between atoms: C_2  and  C_17
REMARK    2  A    between atoms: N_3  and  C_4
REMARK    3  A    between atoms: C_4  and  C_5
REMARK    4  A    between atoms: C_4  and  C_12
REMARK                            x       y       z     vdW  Elec       q    Type
REMARK                         _______ _______ _______ _____ _____    ______ ____
ROOT
ATOM      1  O   UNL     1       2.333  10.287  17.603  0.00  0.00    +0.000 OA
ATOM      2  C   UNL     1       1.932   9.265  18.161  0.00  0.00    +0.000 C 
ATOM      3  N   UNL     1       0.859   9.277  19.023  0.00  0.00    +0.000 N 
ATOM      4  H   UNL     1       0.536   8.392  19.387  0.00  0.00    +0.000 HD
ENDROOT
BRANCH   2   5
ATOM      5  C   UNL     1       2.551   7.968  17.977  0.00  0.00    +0.000 A 
ATOM      6  C   UNL     1       2.130   6.700  18.338  0.00  0.00    +0.000 A 
ATOM      7  C   UNL     1       3.109   5.784  17.871  0.00  0.00    +0.000 A 
ATOM      8  C   UNL     1       3.278   4.387  17.893  0.00  0.00    +0.000 A 
ATOM      9  C   UNL     1       4.422   3.837  17.295  0.00  0.00    +0.000 A 
ATOM     10  C   UNL     1       5.381   4.655  16.690  0.00  0.00    +0.000 A 
ATOM     11  C   UNL     1       5.229   6.045  16.658  0.00  0.00    +0.000 A 
ATOM     12  C   UNL     1       4.083   6.561  17.259  0.00  0.00    +0.000 A 
ATOM     13  O   UNL     1       3.756   7.881  17.326  0.00  0.00    +0.000 OA
ENDBRANCH   2   5
BRANCH   3  14
ATOM     14  C   UNL     1       0.108  10.477  19.317  0.00  0.00    +0.000 C 
BRANCH  14  15
ATOM     15  C   UNL     1      -1.175  10.555  18.492  0.00  0.00    +0.000 A 
ATOM     16  C   UNL     1      -2.206  11.450  18.839  0.00  0.00    +0.000 A 
ATOM     17  C   UNL     1      -3.357  11.558  18.059  0.00  0.00    +0.000 A 
ATOM     18  C   UNL     1      -3.492  10.767  16.928  0.00  0.00    +0.000 A 
ATOM     19  F   UNL     1      -4.598  10.872  16.180  0.00  0.00    +0.000 F 
ATOM     20  C   UNL     1      -2.496   9.870  16.562  0.00  0.00    +0.000 A 
ATOM     21  C   UNL     1      -1.340   9.760  17.343  0.00  0.00    +0.000 A 
ENDBRANCH  14  15
BRANCH  14  22
ATOM     22  C   UNL     1      -0.192  10.569  20.808  0.00  0.00    +0.000 A 
ATOM     23  C   UNL     1      -0.520  11.710  21.524  0.00  0.00    +0.000 A 
ATOM     24  C   UNL     1      -0.881  11.430  22.874  0.00  0.00    +0.000 A 
ATOM     25  C   UNL     1      -0.789  10.088  23.163  0.00  0.00    +0.000 A 
ATOM     26  S   UNL     1      -0.233   9.182  21.828  0.00  0.00    +0.000 S 
ENDBRANCH  14  22
ENDBRANCH   3  14
TORSDOF 4
ENDMDL
