MODEL 1
REMARK VINA RESULT:      -9.2      0.000      0.000
REMARK  Name = 
REMARK  10 active torsions:
REMARK  status: ('A' for Active; 'I' for Inactive)
REMARK    1  A    between atoms: C_1  and  N_2
REMARK    2  A    between atoms: C_13  and  N_14
REMARK    3  A    between atoms: C_15  and  C_17
REMARK    4  A    between atoms: C_17  and  N_18
REMARK    5  A    between atoms: N_18  and  C_19
REMARK    6  A    between atoms: C_19  and  C_20
REMARK    7  A    between atoms: C_27  and  C_29
REMARK    8  A    between atoms: C_29  and  C_30
REMARK    9  A    between atoms: C_29  and  C_31
REMARK   10  A    between atoms: C_29  and  C_32
REMARK                            x       y       z     vdW  Elec       q    Type
REMARK                         _______ _______ _______ _____ _____    ______ ____
ROOT
ATOM      1  N   UNL     1       1.310   9.483  20.508  0.00  0.00    +0.000 N 
ATOM      2  C   UNL     1       0.132   9.469  21.272  0.00  0.00    +0.000 C 
ATOM      3  O   UNL     1      -0.504   8.450  21.547  0.00  0.00    +0.000 OA
ATOM      4  H   UNL     1       1.583  10.372  20.107  0.00  0.00    +0.000 HD
ENDROOT
BRANCH   1  17
ATOM      5  C   UNL     1       4.913   3.680  19.031  0.00  0.00    +0.000 C 
ATOM      6  N   UNL     1       3.634   3.010  19.039  0.00  0.00    +0.000 N 
ATOM      7  C   UNL     1       3.486   1.641  18.943  0.00  0.00    +0.000 C 
ATOM      8  O   UNL     1       4.371   0.803  18.927  0.00  0.00    +0.000 OA
ATOM      9  N   UNL     1       2.166   1.363  18.834  0.00  0.00    +0.000 N 
ATOM     10  C   UNL     1       1.422   2.496  18.750  0.00  0.00    +0.000 C 
ATOM     11  O   UNL     1       0.214   2.515  18.574  0.00  0.00    +0.000 OA
ATOM     12  C   UNL     1       2.344   3.712  18.935  0.00  0.00    +0.000 C 
ATOM     13  C   UNL     1       2.259   4.662  17.705  0.00  0.00    +0.000 C 
ATOM     14  C   UNL     1       2.263   6.019  18.336  0.00  0.00    +0.000 A 
ATOM     15  C   UNL     1       2.410   7.255  17.720  0.00  0.00    +0.000 A 
ATOM     16  C   UNL     1       2.150   8.420  18.455  0.00  0.00    +0.000 A 
ATOM     17  C   UNL     1       1.715   8.331  19.790  0.00  0.00    +0.000 A 
ATOM     18  C   UNL     1       1.662   7.089  20.429  0.00  0.00    +0.000 A 
ATOM     19  C   UNL     1       1.958   5.942  19.702  0.00  0.00    +0.000 A 
ATOM     20  C   UNL     1       1.928   4.518  20.180  0.00  0.00    +0.000 C 
ATOM     21  H   UNL     1       1.802   0.432  18.723  0.00  0.00    +0.000 HD
ENDBRANCH   1  17
BRANCH   2  22
ATOM     22  C   UNL     1      -0.284  10.860  21.849  0.00  0.00    +0.000 C 
BRANCH  22  23
ATOM     23  N   UNL     1      -0.649  12.057  21.039  0.00  0.00    +0.000 N 
ATOM     24  C   UNL     1       0.254  13.111  20.954  0.00  0.00    +0.000 C 
ATOM     25  O   UNL     1       1.330  13.021  21.559  0.00  0.00    +0.000 OA
BRANCH  24  26
ATOM     26  C   UNL     1      -0.046  14.463  20.223  0.00  0.00    +0.000 C 
ATOM     27  C   UNL     1      -1.268  15.155  20.846  0.00  0.00    +0.000 C 
ATOM     28  C   UNL     1       1.171  15.403  20.471  0.00  0.00    +0.000 C 
ATOM     29  C   UNL     1      -0.185  14.387  18.701  0.00  0.00    +0.000 C 
ENDBRANCH  24  26
BRANCH  23  30
ATOM     30  C   UNL     1      -2.040  12.058  20.556  0.00  0.00    +0.000 C 
BRANCH  30  31
ATOM     31  C   UNL     1      -2.322  11.446  19.198  0.00  0.00    +0.000 A 
ATOM     32  C   UNL     1      -1.416  10.623  18.514  0.00  0.00    +0.000 A 
ATOM     33  C   UNL     1      -1.682  10.199  17.207  0.00  0.00    +0.000 A 
ATOM     34  C   UNL     1      -2.870  10.567  16.573  0.00  0.00    +0.000 A 
ATOM     35  C   UNL     1      -3.787  11.350  17.256  0.00  0.00    +0.000 A 
ATOM     36  F   UNL     1      -4.923  11.718  16.651  0.00  0.00    +0.000 F 
ATOM     37  C   UNL     1      -3.528  11.784  18.555  0.00  0.00    +0.000 A 
ENDBRANCH  30  31
ENDBRANCH  23  30
ENDBRANCH  22  23
ENDBRANCH   2  22
TORSDOF 6
ENDMDL
MODEL 2
REMARK VINA RESULT:      -9.0      1.157      1.408
REMARK  Name = 
REMARK  10 active torsions:
REMARK  status: ('A' for Active; 'I' for Inactive)
REMARK    1  A    between atoms: C_1  and  N_2
REMARK    2  A    between atoms: C_13  and  N_14
REMARK    3  A    between atoms: C_15  and  C_17
REMARK    4  A    between atoms: C_17  and  N_18
REMARK    5  A    between atoms: N_18  and  C_19
REMARK    6  A    between atoms: C_19  and  C_20
REMARK    7  A    between atoms: C_27  and  C_29
REMARK    8  A    between atoms: C_29  and  C_30
REMARK    9  A    between atoms: C_29  and  C_31
REMARK   10  A    between atoms: C_29  and  C_32
REMARK                            x       y       z     vdW  Elec       q    Type
REMARK                         _______ _______ _______ _____ _____    ______ ____
ROOT
ATOM      1  N   UNL     1       0.812  10.217  20.366  0.00  0.00    +0.000 N 
ATOM      2  C   UNL     1      -0.227  10.112  21.304  0.00  0.00    +0.000 C 
ATOM      3  O   UNL     1      -0.578   9.058  21.837  0.00  0.00    +0.000 OA
ATOM      4  H   UNL     1       0.825  11.050  19.791  0.00  0.00    +0.000 HD
ENDROOT
BRANCH   1  17
ATOM      5  C   UNL     1       5.226   4.870  19.488  0.00  0.00    +0.000 C 
ATOM      6  N   UNL     1       4.064   4.025  19.629  0.00  0.00    +0.000 N 
ATOM      7  C   UNL     1       4.124   2.648  19.711  0.00  0.00    +0.000 C 
ATOM      8  O   UNL     1       5.125   1.956  19.766  0.00  0.00    +0.000 OA
ATOM      9  N   UNL     1       2.859   2.166  19.688  0.00  0.00    +0.000 N 
ATOM     10  C   UNL     1       1.950   3.156  19.492  0.00  0.00    +0.000 C 
ATOM     11  O   UNL     1       0.751   2.973  19.362  0.00  0.00    +0.000 OA
ATOM     12  C   UNL     1       2.680   4.509  19.488  0.00  0.00    +0.000 C 
ATOM     13  C   UNL     1       2.428   5.268  18.153  0.00  0.00    +0.000 C 
ATOM     14  C   UNL     1       2.238   6.681  18.608  0.00  0.00    +0.000 A 
ATOM     15  C   UNL     1       2.184   7.835  17.838  0.00  0.00    +0.000 A 
ATOM     16  C   UNL     1       1.764   9.034  18.430  0.00  0.00    +0.000 A 
ATOM     17  C   UNL     1       1.373   9.055  19.782  0.00  0.00    +0.000 A 
ATOM     18  C   UNL     1       1.522   7.912  20.573  0.00  0.00    +0.000 A 
ATOM     19  C   UNL     1       1.975   6.737  19.985  0.00  0.00    +0.000 A 
ATOM     20  C   UNL     1       2.171   5.398  20.638  0.00  0.00    +0.000 C 
ATOM     21  H   UNL     1       2.639   1.185  19.709  0.00  0.00    +0.000 HD
ENDBRANCH   1  17
BRANCH   2  22
ATOM     22  C   UNL     1      -0.871  11.476  21.714  0.00  0.00    +0.000 C 
BRANCH  22  23
ATOM     23  N   UNL     1      -0.905  12.704  20.870  0.00  0.00    +0.000 N 
ATOM     24  C   UNL     1       0.193  13.557  20.881  0.00  0.00    +0.000 C 
ATOM     25  O   UNL     1       1.162  13.268  21.596  0.00  0.00    +0.000 OA
BRANCH  24  26
ATOM     26  C   UNL     1       0.246  14.926  20.122  0.00  0.00    +0.000 C 
ATOM     27  C   UNL     1      -0.599  15.981  20.852  0.00  0.00    +0.000 C 
ATOM     28  C   UNL     1       1.720  15.426  20.171  0.00  0.00    +0.000 C 
ATOM     29  C   UNL     1      -0.111  14.883  18.635  0.00  0.00    +0.000 C 
ENDBRANCH  24  26
BRANCH  23  30
ATOM     30  C   UNL     1      -2.210  12.970  20.243  0.00  0.00    +0.000 C 
BRANCH  30  31
ATOM     31  C   UNL     1      -2.682  12.026  19.154  0.00  0.00    +0.000 A 
ATOM     32  C   UNL     1      -4.032  11.796  18.856  0.00  0.00    +0.000 A 
ATOM     33  C   UNL     1      -4.404  10.813  17.931  0.00  0.00    +0.000 A 
ATOM     34  C   UNL     1      -3.431  10.062  17.270  0.00  0.00    +0.000 A 
ATOM     35  C   UNL     1      -2.092  10.308  17.533  0.00  0.00    +0.000 A 
ATOM     36  F   UNL     1      -1.153   9.584  16.911  0.00  0.00    +0.000 F 
ATOM     37  C   UNL     1      -1.713  11.279  18.457  0.00  0.00    +0.000 A 
ENDBRANCH  30  31
ENDBRANCH  23  30
ENDBRANCH  22  23
ENDBRANCH   2  22
TORSDOF 6
ENDMDL
MODEL 3
REMARK VINA RESULT:      -9.0      2.195      3.492
REMARK  Name = 
REMARK  10 active torsions:
REMARK  status: ('A' for Active; 'I' for Inactive)
REMARK    1  A    between atoms: C_1  and  N_2
REMARK    2  A    between atoms: C_13  and  N_14
REMARK    3  A    between atoms: C_15  and  C_17
REMARK    4  A    between atoms: C_17  and  N_18
REMARK    5  A    between atoms: N_18  and  C_19
REMARK    6  A    between atoms: C_19  and  C_20
REMARK    7  A    between atoms: C_27  and  C_29
REMARK    8  A    between atoms: C_29  and  C_30
REMARK    9  A    between atoms: C_29  and  C_31
REMARK   10  A    between atoms: C_29  and  C_32
REMARK                            x       y       z     vdW  Elec       q    Type
REMARK                         _______ _______ _______ _____ _____    ______ ____
ROOT
ATOM      1  N   UNL     1       1.015  10.679  18.838  0.00  0.00    +0.000 N 
ATOM      2  C   UNL     1      -0.315  11.124  18.906  0.00  0.00    +0.000 C 
ATOM      3  O   UNL     1      -1.228  10.500  19.450  0.00  0.00    +0.000 OA
ATOM      4  H   UNL     1       1.605  11.112  18.138  0.00  0.00    +0.000 HD
ENDROOT
BRANCH   1  17
ATOM      5  C   UNL     1       1.368   3.719  18.316  0.00  0.00    +0.000 C 
ATOM      6  N   UNL     1       2.800   3.895  18.339  0.00  0.00    +0.000 N 
ATOM      7  C   UNL     1       3.701   2.872  18.123  0.00  0.00    +0.000 C 
ATOM      8  O   UNL     1       3.449   1.723  17.804  0.00  0.00    +0.000 OA
ATOM      9  N   UNL     1       4.947   3.346  18.358  0.00  0.00    +0.000 N 
ATOM     10  C   UNL     1       4.917   4.622  18.823  0.00  0.00    +0.000 C 
ATOM     11  O   UNL     1       5.902   5.249  19.177  0.00  0.00    +0.000 OA
ATOM     12  C   UNL     1       3.465   5.126  18.801  0.00  0.00    +0.000 C 
ATOM     13  C   UNL     1       3.012   5.571  20.222  0.00  0.00    +0.000 C 
ATOM     14  C   UNL     1       2.229   6.816  19.944  0.00  0.00    +0.000 A 
ATOM     15  C   UNL     1       1.414   7.533  20.810  0.00  0.00    +0.000 A 
ATOM     16  C   UNL     1       0.956   8.801  20.425  0.00  0.00    +0.000 A 
ATOM     17  C   UNL     1       1.346   9.347  19.188  0.00  0.00    +0.000 A 
ATOM     18  C   UNL     1       2.086   8.580  18.284  0.00  0.00    +0.000 A 
ATOM     19  C   UNL     1       2.504   7.309  18.660  0.00  0.00    +0.000 A 
ATOM     20  C   UNL     1       3.331   6.340  17.863  0.00  0.00    +0.000 C 
ATOM     21  H   UNL     1       5.777   2.781  18.295  0.00  0.00    +0.000 HD
ENDBRANCH   1  17
BRANCH   2  22
ATOM     22  C   UNL     1      -0.555  12.548  18.309  0.00  0.00    +0.000 C 
BRANCH  22  23
ATOM     23  N   UNL     1      -0.066  13.825  18.901  0.00  0.00    +0.000 N 
ATOM     24  C   UNL     1       1.259  14.196  18.700  0.00  0.00    +0.000 C 
ATOM     25  O   UNL     1       1.990  13.448  18.038  0.00  0.00    +0.000 OA
BRANCH  24  26
ATOM     26  C   UNL     1       1.923  15.457  19.348  0.00  0.00    +0.000 C 
ATOM     27  C   UNL     1       2.238  15.200  20.830  0.00  0.00    +0.000 C 
ATOM     28  C   UNL     1       3.291  15.677  18.636  0.00  0.00    +0.000 C 
ATOM     29  C   UNL     1       1.168  16.777  19.177  0.00  0.00    +0.000 C 
ENDBRANCH  24  26
BRANCH  23  30
ATOM     30  C   UNL     1      -1.026  14.477  19.809  0.00  0.00    +0.000 C 
BRANCH  30  31
ATOM     31  C   UNL     1      -1.509  13.694  21.014  0.00  0.00    +0.000 A 
ATOM     32  C   UNL     1      -0.651  13.107  21.954  0.00  0.00    +0.000 A 
ATOM     33  C   UNL     1      -1.156  12.285  22.969  0.00  0.00    +0.000 A 
ATOM     34  C   UNL     1      -2.529  12.058  23.076  0.00  0.00    +0.000 A 
ATOM     35  C   UNL     1      -3.387  12.664  22.171  0.00  0.00    +0.000 A 
ATOM     36  F   UNL     1      -4.704  12.442  22.260  0.00  0.00    +0.000 F 
ATOM     37  C   UNL     1      -2.894  13.477  21.154  0.00  0.00    +0.000 A 
ENDBRANCH  30  31
ENDBRANCH  23  30
ENDBRANCH  22  23
ENDBRANCH   2  22
TORSDOF 6
ENDMDL
MODEL 4
REMARK VINA RESULT:      -9.0      0.779      1.334
REMARK  Name = 
REMARK  10 active torsions:
REMARK  status: ('A' for Active; 'I' for Inactive)
REMARK    1  A    between atoms: C_1  and  N_2
REMARK    2  A    between atoms: C_13  and  N_14
REMARK    3  A    between atoms: C_15  and  C_17
REMARK    4  A    between atoms: C_17  and  N_18
REMARK    5  A    between atoms: N_18  and  C_19
REMARK    6  A    between atoms: C_19  and  C_20
REMARK    7  A    between atoms: C_27  and  C_29
REMARK    8  A    between atoms: C_29  and  C_30
REMARK    9  A    between atoms: C_29  and  C_31
REMARK   10  A    between atoms: C_29  and  C_32
REMARK                            x       y       z     vdW  Elec       q    Type
REMARK                         _______ _______ _______ _____ _____    ______ ____
ROOT
ATOM      1  N   UNL     1       1.361   9.452  20.805  0.00  0.00    +0.000 N 
ATOM      2  C   UNL     1       0.058   9.576  21.314  0.00  0.00    +0.000 C 
ATOM      3  O   UNL     1      -0.775   8.669  21.317  0.00  0.00    +0.000 OA
ATOM      4  H   UNL     1       1.851  10.311  20.591  0.00  0.00    +0.000 HD
ENDROOT
BRANCH   1  17
ATOM      5  C   UNL     1       4.888   3.714  18.939  0.00  0.00    +0.000 C 
ATOM      6  N   UNL     1       3.614   3.037  19.007  0.00  0.00    +0.000 N 
ATOM      7  C   UNL     1       3.466   1.670  18.881  0.00  0.00    +0.000 C 
ATOM      8  O   UNL     1       4.351   0.838  18.786  0.00  0.00    +0.000 OA
ATOM      9  N   UNL     1       2.142   1.388  18.845  0.00  0.00    +0.000 N 
ATOM     10  C   UNL     1       1.390   2.519  18.841  0.00  0.00    +0.000 C 
ATOM     11  O   UNL     1       0.174   2.537  18.741  0.00  0.00    +0.000 OA
ATOM     12  C   UNL     1       2.317   3.734  19.003  0.00  0.00    +0.000 C 
ATOM     13  C   UNL     1       2.153   4.719  17.809  0.00  0.00    +0.000 C 
ATOM     14  C   UNL     1       2.190   6.058  18.478  0.00  0.00    +0.000 A 
ATOM     15  C   UNL     1       2.295   7.312  17.891  0.00  0.00    +0.000 A 
ATOM     16  C   UNL     1       2.076   8.453  18.673  0.00  0.00    +0.000 A 
ATOM     17  C   UNL     1       1.725   8.323  20.030  0.00  0.00    +0.000 A 
ATOM     18  C   UNL     1       1.716   7.063  20.635  0.00  0.00    +0.000 A 
ATOM     19  C   UNL     1       1.972   5.939  19.858  0.00  0.00    +0.000 A 
ATOM     20  C   UNL     1       1.976   4.501  20.295  0.00  0.00    +0.000 C 
ATOM     21  H   UNL     1       1.776   0.459  18.730  0.00  0.00    +0.000 HD
ENDBRANCH   1  17
BRANCH   2  22
ATOM     22  C   UNL     1      -0.248  10.955  21.982  0.00  0.00    +0.000 C 
BRANCH  22  23
ATOM     23  N   UNL     1      -0.611  12.205  21.256  0.00  0.00    +0.000 N 
ATOM     24  C   UNL     1       0.365  13.176  21.060  0.00  0.00    +0.000 C 
ATOM     25  O   UNL     1       1.504  12.969  21.499  0.00  0.00    +0.000 OA
BRANCH  24  26
ATOM     26  C   UNL     1       0.093  14.572  20.405  0.00  0.00    +0.000 C 
ATOM     27  C   UNL     1       1.276  15.522  20.646  0.00  0.00    +0.000 C 
ATOM     28  C   UNL     1       0.006  14.353  18.866  0.00  0.00    +0.000 C 
ATOM     29  C   UNL     1      -1.228  15.245  20.786  0.00  0.00    +0.000 C 
ENDBRANCH  24  26
BRANCH  23  30
ATOM     30  C   UNL     1      -2.051  12.348  20.981  0.00  0.00    +0.000 C 
BRANCH  30  31
ATOM     31  C   UNL     1      -2.567  11.880  19.635  0.00  0.00    +0.000 A 
ATOM     32  C   UNL     1      -3.861  12.144  19.165  0.00  0.00    +0.000 A 
ATOM     33  C   UNL     1      -4.320  11.570  17.973  0.00  0.00    +0.000 A 
ATOM     34  C   UNL     1      -3.485  10.744  17.219  0.00  0.00    +0.000 A 
ATOM     35  C   UNL     1      -2.192  10.508  17.659  0.00  0.00    +0.000 A 
ATOM     36  F   UNL     1      -1.388   9.708  16.948  0.00  0.00    +0.000 F 
ATOM     37  C   UNL     1      -1.728  11.068  18.848  0.00  0.00    +0.000 A 
ENDBRANCH  30  31
ENDBRANCH  23  30
ENDBRANCH  22  23
ENDBRANCH   2  22
TORSDOF 6
ENDMDL
MODEL 5
REMARK VINA RESULT:      -9.0      3.435      9.802
REMARK  Name = 
REMARK  10 active torsions:
REMARK  status: ('A' for Active; 'I' for Inactive)
REMARK    1  A    between atoms: C_1  and  N_2
REMARK    2  A    between atoms: C_13  and  N_14
REMARK    3  A    between atoms: C_15  and  C_17
REMARK    4  A    between atoms: C_17  and  N_18
REMARK    5  A    between atoms: N_18  and  C_19
REMARK    6  A    between atoms: C_19  and  C_20
REMARK    7  A    between atoms: C_27  and  C_29
REMARK    8  A    between atoms: C_29  and  C_30
REMARK    9  A    between atoms: C_29  and  C_31
REMARK   10  A    between atoms: C_29  and  C_32
REMARK                            x       y       z     vdW  Elec       q    Type
REMARK                         _______ _______ _______ _____ _____    ______ ____
ROOT
ATOM      1  N   UNL     1       0.618   9.051  18.692  0.00  0.00    +0.000 N 
ATOM      2  C   UNL     1       1.860   9.216  18.059  0.00  0.00    +0.000 C 
ATOM      3  O   UNL     1       2.509  10.263  18.066  0.00  0.00    +0.000 OA
ATOM      4  H   UNL     1       0.051   8.269  18.389  0.00  0.00    +0.000 HD
ENDROOT
BRANCH   1  17
ATOM      5  C   UNL     1      -3.942  12.672  22.557  0.00  0.00    +0.000 C 
ATOM      6  N   UNL     1      -2.796  13.414  23.026  0.00  0.00    +0.000 N 
ATOM      7  C   UNL     1      -2.851  14.347  24.041  0.00  0.00    +0.000 C 
ATOM      8  O   UNL     1      -3.811  14.623  24.738  0.00  0.00    +0.000 OA
ATOM      9  N   UNL     1      -1.643  14.953  24.126  0.00  0.00    +0.000 N 
ATOM     10  C   UNL     1      -0.804  14.537  23.142  0.00  0.00    +0.000 C 
ATOM     11  O   UNL     1       0.316  14.984  22.958  0.00  0.00    +0.000 OA
ATOM     12  C   UNL     1      -1.491  13.419  22.341  0.00  0.00    +0.000 C 
ATOM     13  C   UNL     1      -1.590  13.798  20.835  0.00  0.00    +0.000 C 
ATOM     14  C   UNL     1      -1.267  12.508  20.149  0.00  0.00    +0.000 A 
ATOM     15  C   UNL     1      -1.403  12.190  18.804  0.00  0.00    +0.000 A 
ATOM     16  C   UNL     1      -0.826  11.008  18.319  0.00  0.00    +0.000 A 
ATOM     17  C   UNL     1      -0.093  10.174  19.184  0.00  0.00    +0.000 A 
ATOM     18  C   UNL     1      -0.043  10.452  20.553  0.00  0.00    +0.000 A 
ATOM     19  C   UNL     1      -0.651  11.608  21.030  0.00  0.00    +0.000 A 
ATOM     20  C   UNL     1      -0.686  12.111  22.445  0.00  0.00    +0.000 C 
ATOM     21  H   UNL     1      -1.438  15.693  24.775  0.00  0.00    +0.000 HD
ENDBRANCH   1  17
BRANCH   2  22
ATOM     22  C   UNL     1       2.431   7.918  17.402  0.00  0.00    +0.000 C 
BRANCH  22  23
ATOM     23  N   UNL     1       3.431   7.004  18.023  0.00  0.00    +0.000 N 
ATOM     24  C   UNL     1       4.546   6.625  17.283  0.00  0.00    +0.000 C 
ATOM     25  O   UNL     1       4.667   7.058  16.129  0.00  0.00    +0.000 OA
BRANCH  24  26
ATOM     26  C   UNL     1       5.616   5.594  17.777  0.00  0.00    +0.000 C 
ATOM     27  C   UNL     1       5.284   4.184  17.266  0.00  0.00    +0.000 C 
ATOM     28  C   UNL     1       6.975   5.992  17.130  0.00  0.00    +0.000 C 
ATOM     29  C   UNL     1       5.882   5.574  19.283  0.00  0.00    +0.000 C 
ENDBRANCH  24  26
BRANCH  23  30
ATOM     30  C   UNL     1       3.017   6.449  19.323  0.00  0.00    +0.000 C 
BRANCH  30  31
ATOM     31  C   UNL     1       2.318   5.103  19.331  0.00  0.00    +0.000 A 
ATOM     32  C   UNL     1       1.861   4.458  18.174  0.00  0.00    +0.000 A 
ATOM     33  C   UNL     1       1.105   3.283  18.261  0.00  0.00    +0.000 A 
ATOM     34  C   UNL     1       0.819   2.719  19.505  0.00  0.00    +0.000 A 
ATOM     35  C   UNL     1       1.299   3.331  20.652  0.00  0.00    +0.000 A 
ATOM     36  F   UNL     1       1.019   2.802  21.850  0.00  0.00    +0.000 F 
ATOM     37  C   UNL     1       2.045   4.505  20.576  0.00  0.00    +0.000 A 
ENDBRANCH  30  31
ENDBRANCH  23  30
ENDBRANCH  22  23
ENDBRANCH   2  22
TORSDOF 6
ENDMDL
MODEL 6
REMARK VINA RESULT:      -8.9      1.162      1.559
REMARK  Name = 
REMARK  10 active torsions:
REMARK  status: ('A' for Active; 'I' for Inactive)
REMARK    1  A    between atoms: C_1  and  N_2
REMARK    2  A    between atoms: C_13  and  N_14
REMARK    3  A    between atoms: C_15  and  C_17
REMARK    4  A    between atoms: C_17  and  N_18
REMARK    5  A    between atoms: N_18  and  C_19
REMARK    6  A    between atoms: C_19  and  C_20
REMARK    7  A    between atoms: C_27  and  C_29
REMARK    8  A    between atoms: C_29  and  C_30
REMARK    9  A    between atoms: C_29  and  C_31
REMARK   10  A    between atoms: C_29  and  C_32
REMARK                            x       y       z     vdW  Elec       q    Type
REMARK                         _______ _______ _______ _____ _____    ______ ____
ROOT
ATOM      1  N   UNL     1       1.322   9.295  21.157  0.00  0.00    +0.000 N 
ATOM      2  C   UNL     1      -0.028   9.518  21.473  0.00  0.00    +0.000 C 
ATOM      3  O   UNL     1      -0.938   8.724  21.232  0.00  0.00    +0.000 OA
ATOM      4  H   UNL     1       1.925  10.107  21.132  0.00  0.00    +0.000 HD
ENDROOT
BRANCH   1  17
ATOM      5  C   UNL     1       4.866   3.700  18.924  0.00  0.00    +0.000 C 
ATOM      6  N   UNL     1       3.592   3.021  18.932  0.00  0.00    +0.000 N 
ATOM      7  C   UNL     1       3.445   1.667  18.708  0.00  0.00    +0.000 C 
ATOM      8  O   UNL     1       4.331   0.843  18.563  0.00  0.00    +0.000 OA
ATOM      9  N   UNL     1       2.122   1.389  18.641  0.00  0.00    +0.000 N 
ATOM     10  C   UNL     1       1.370   2.518  18.709  0.00  0.00    +0.000 C 
ATOM     11  O   UNL     1       0.155   2.543  18.600  0.00  0.00    +0.000 OA
ATOM     12  C   UNL     1       2.295   3.718  18.965  0.00  0.00    +0.000 C 
ATOM     13  C   UNL     1       2.141   4.784  17.842  0.00  0.00    +0.000 C 
ATOM     14  C   UNL     1       2.173   6.072  18.604  0.00  0.00    +0.000 A 
ATOM     15  C   UNL     1       2.282   7.365  18.107  0.00  0.00    +0.000 A 
ATOM     16  C   UNL     1       2.057   8.449  18.967  0.00  0.00    +0.000 A 
ATOM     17  C   UNL     1       1.693   8.223  20.308  0.00  0.00    +0.000 A 
ATOM     18  C   UNL     1       1.679   6.923  20.822  0.00  0.00    +0.000 A 
ATOM     19  C   UNL     1       1.941   5.857  19.970  0.00  0.00    +0.000 A 
ATOM     20  C   UNL     1       1.942   4.392  20.305  0.00  0.00    +0.000 C 
ATOM     21  H   UNL     1       1.756   0.470  18.457  0.00  0.00    +0.000 HD
ENDBRANCH   1  17
BRANCH   2  22
ATOM     22  C   UNL     1      -0.300  10.842  22.258  0.00  0.00    +0.000 C 
BRANCH  22  23
ATOM     23  N   UNL     1      -0.374  12.203  21.657  0.00  0.00    +0.000 N 
ATOM     24  C   UNL     1      -0.807  13.263  22.445  0.00  0.00    +0.000 C 
ATOM     25  O   UNL     1      -1.120  13.039  23.622  0.00  0.00    +0.000 OA
BRANCH  24  26
ATOM     26  C   UNL     1      -1.027  14.719  21.912  0.00  0.00    +0.000 C 
ATOM     27  C   UNL     1      -2.496  14.933  21.517  0.00  0.00    +0.000 C 
ATOM     28  C   UNL     1      -0.738  15.694  23.091  0.00  0.00    +0.000 C 
ATOM     29  C   UNL     1      -0.094  15.169  20.786  0.00  0.00    +0.000 C 
ENDBRANCH  24  26
BRANCH  23  30
ATOM     30  C   UNL     1      -0.145  12.235  20.202  0.00  0.00    +0.000 C 
BRANCH  30  31
ATOM     31  C   UNL     1      -1.272  11.780  19.295  0.00  0.00    +0.000 A 
ATOM     32  C   UNL     1      -2.600  12.206  19.433  0.00  0.00    +0.000 A 
ATOM     33  C   UNL     1      -3.616  11.646  18.649  0.00  0.00    +0.000 A 
ATOM     34  C   UNL     1      -3.316  10.672  17.695  0.00  0.00    +0.000 A 
ATOM     35  C   UNL     1      -2.000  10.272  17.528  0.00  0.00    +0.000 A 
ATOM     36  F   UNL     1      -1.705   9.330  16.624  0.00  0.00    +0.000 F 
ATOM     37  C   UNL     1      -0.983  10.817  18.309  0.00  0.00    +0.000 A 
ENDBRANCH  30  31
ENDBRANCH  23  30
ENDBRANCH  22  23
ENDBRANCH   2  22
TORSDOF 6
ENDMDL
MODEL 7
REMARK VINA RESULT:      -8.9      2.143      3.163
REMARK  Name = 
REMARK  10 active torsions:
REMARK  status: ('A' for Active; 'I' for Inactive)
REMARK    1  A    between atoms: C_1  and  N_2
REMARK    2  A    between atoms: C_13  and  N_14
REMARK    3  A    between atoms: C_15  and  C_17
REMARK    4  A    between atoms: C_17  and  N_18
REMARK    5  A    between atoms: N_18  and  C_19
REMARK    6  A    between atoms: C_19  and  C_20
REMARK    7  A    between atoms: C_27  and  C_29
REMARK    8  A    between atoms: C_29  and  C_30
REMARK    9  A    between atoms: C_29  and  C_31
REMARK   10  A    between atoms: C_29  and  C_32
REMARK                            x       y       z     vdW  Elec       q    Type
REMARK                         _______ _______ _______ _____ _____    ______ ____
ROOT
ATOM      1  N   UNL     1       1.276   9.316  21.005  0.00  0.00    +0.000 N 
ATOM      2  C   UNL     1      -0.014   9.355  21.558  0.00  0.00    +0.000 C 
ATOM      3  O   UNL     1      -0.795   8.402  21.566  0.00  0.00    +0.000 OA
ATOM      4  H   UNL     1       1.710  10.206  20.795  0.00  0.00    +0.000 HD
ENDROOT
BRANCH   1  17
ATOM      5  C   UNL     1       4.882   3.667  19.024  0.00  0.00    +0.000 C 
ATOM      6  N   UNL     1       3.606   2.992  18.993  0.00  0.00    +0.000 N 
ATOM      7  C   UNL     1       3.463   1.635  18.790  0.00  0.00    +0.000 C 
ATOM      8  O   UNL     1       4.350   0.805  18.696  0.00  0.00    +0.000 OA
ATOM      9  N   UNL     1       2.142   1.360  18.674  0.00  0.00    +0.000 N 
ATOM     10  C   UNL     1       1.392   2.493  18.691  0.00  0.00    +0.000 C 
ATOM     11  O   UNL     1       0.183   2.520  18.531  0.00  0.00    +0.000 OA
ATOM     12  C   UNL     1       2.312   3.695  18.961  0.00  0.00    +0.000 C 
ATOM     13  C   UNL     1       2.208   4.740  17.813  0.00  0.00    +0.000 C 
ATOM     14  C   UNL     1       2.215   6.042  18.550  0.00  0.00    +0.000 A 
ATOM     15  C   UNL     1       2.350   7.324  18.034  0.00  0.00    +0.000 A 
ATOM     16  C   UNL     1       2.095   8.425  18.862  0.00  0.00    +0.000 A 
ATOM     17  C   UNL     1       1.676   8.227  20.191  0.00  0.00    +0.000 A 
ATOM     18  C   UNL     1       1.636   6.937  20.730  0.00  0.00    +0.000 A 
ATOM     19  C   UNL     1       1.928   5.853  19.909  0.00  0.00    +0.000 A 
ATOM     20  C   UNL     1       1.909   4.395  20.272  0.00  0.00    +0.000 C 
ATOM     21  H   UNL     1       1.780   0.439  18.493  0.00  0.00    +0.000 HD
ENDBRANCH   1  17
BRANCH   2  22
ATOM     22  C   UNL     1      -0.374  10.699  22.268  0.00  0.00    +0.000 C 
BRANCH  22  23
ATOM     23  N   UNL     1      -1.333  11.718  21.753  0.00  0.00    +0.000 N 
ATOM     24  C   UNL     1      -2.389  12.117  22.565  0.00  0.00    +0.000 C 
ATOM     25  O   UNL     1      -2.500  11.609  23.688  0.00  0.00    +0.000 OA
BRANCH  24  26
ATOM     26  C   UNL     1      -3.520  13.100  22.109  0.00  0.00    +0.000 C 
ATOM     27  C   UNL     1      -4.627  13.179  23.171  0.00  0.00    +0.000 C 
ATOM     28  C   UNL     1      -2.889  14.521  22.019  0.00  0.00    +0.000 C 
ATOM     29  C   UNL     1      -4.116  12.841  20.724  0.00  0.00    +0.000 C 
ENDBRANCH  24  26
BRANCH  23  30
ATOM     30  C   UNL     1      -1.146  12.061  20.333  0.00  0.00    +0.000 C 
BRANCH  30  31
ATOM     31  C   UNL     1       0.135  12.768  19.935  0.00  0.00    +0.000 A 
ATOM     32  C   UNL     1       0.429  14.094  20.279  0.00  0.00    +0.000 A 
ATOM     33  C   UNL     1       1.566  14.731  19.767  0.00  0.00    +0.000 A 
ATOM     34  C   UNL     1       2.442  14.043  18.925  0.00  0.00    +0.000 A 
ATOM     35  C   UNL     1       2.177  12.720  18.610  0.00  0.00    +0.000 A 
ATOM     36  F   UNL     1       3.005  12.056  17.794  0.00  0.00    +0.000 F 
ATOM     37  C   UNL     1       1.043  12.080  19.108  0.00  0.00    +0.000 A 
ENDBRANCH  30  31
ENDBRANCH  23  30
ENDBRANCH  22  23
ENDBRANCH   2  22
TORSDOF 6
ENDMDL
MODEL 8
REMARK VINA RESULT:      -8.8      1.603      2.249
REMARK  Name = 
REMARK  10 active torsions:
REMARK  status: ('A' for Active; 'I' for Inactive)
REMARK    1  A    between atoms: C_1  and  N_2
REMARK    2  A    between atoms: C_13  and  N_14
REMARK    3  A    between atoms: C_15  and  C_17
REMARK    4  A    between atoms: C_17  and  N_18
REMARK    5  A    between atoms: N_18  and  C_19
REMARK    6  A    between atoms: C_19  and  C_20
REMARK    7  A    between atoms: C_27  and  C_29
REMARK    8  A    between atoms: C_29  and  C_30
REMARK    9  A    between atoms: C_29  and  C_31
REMARK   10  A    between atoms: C_29  and  C_32
REMARK                            x       y       z     vdW  Elec       q    Type
REMARK                         _______ _______ _______ _____ _____    ______ ____
ROOT
ATOM      1  N   UNL     1       1.289   9.571  20.933  0.00  0.00    +0.000 N 
ATOM      2  C   UNL     1      -0.040   9.751  21.350  0.00  0.00    +0.000 C 
ATOM      3  O   UNL     1      -0.918   8.892  21.257  0.00  0.00    +0.000 OA
ATOM      4  H   UNL     1       1.838  10.409  20.788  0.00  0.00    +0.000 HD
ENDROOT
BRANCH   1  17
ATOM      5  C   UNL     1       4.817   3.862  18.985  0.00  0.00    +0.000 C 
ATOM      6  N   UNL     1       3.547   3.181  19.057  0.00  0.00    +0.000 N 
ATOM      7  C   UNL     1       3.402   1.815  18.919  0.00  0.00    +0.000 C 
ATOM      8  O   UNL     1       4.289   0.987  18.809  0.00  0.00    +0.000 OA
ATOM      9  N   UNL     1       2.079   1.529  18.892  0.00  0.00    +0.000 N 
ATOM     10  C   UNL     1       1.323   2.658  18.904  0.00  0.00    +0.000 C 
ATOM     11  O   UNL     1       0.106   2.672  18.814  0.00  0.00    +0.000 OA
ATOM     12  C   UNL     1       2.247   3.874  19.070  0.00  0.00    +0.000 C 
ATOM     13  C   UNL     1       2.070   4.870  17.887  0.00  0.00    +0.000 C 
ATOM     14  C   UNL     1       2.109   6.202  18.567  0.00  0.00    +0.000 A 
ATOM     15  C   UNL     1       2.205   7.462  17.991  0.00  0.00    +0.000 A 
ATOM     16  C   UNL     1       1.989   8.595  18.786  0.00  0.00    +0.000 A 
ATOM     17  C   UNL     1       1.649   8.451  20.145  0.00  0.00    +0.000 A 
ATOM     18  C   UNL     1       1.650   7.185  20.738  0.00  0.00    +0.000 A 
ATOM     19  C   UNL     1       1.902   6.069  19.948  0.00  0.00    +0.000 A 
ATOM     20  C   UNL     1       1.915   4.628  20.372  0.00  0.00    +0.000 C 
ATOM     21  H   UNL     1       1.714   0.600  18.771  0.00  0.00    +0.000 HD
ENDBRANCH   1  17
BRANCH   2  22
ATOM     22  C   UNL     1      -0.323  11.121  22.045  0.00  0.00    +0.000 C 
BRANCH  22  23
ATOM     23  N   UNL     1      -1.407  12.072  21.672  0.00  0.00    +0.000 N 
ATOM     24  C   UNL     1      -2.486  12.235  22.534  0.00  0.00    +0.000 C 
ATOM     25  O   UNL     1      -2.509  11.580  23.585  0.00  0.00    +0.000 OA
BRANCH  24  26
ATOM     26  C   UNL     1      -3.736  13.123  22.216  0.00  0.00    +0.000 C 
ATOM     27  C   UNL     1      -4.384  13.629  23.513  0.00  0.00    +0.000 C 
ATOM     28  C   UNL     1      -3.228  14.382  21.453  0.00  0.00    +0.000 C 
ATOM     29  C   UNL     1      -4.786  12.497  21.295  0.00  0.00    +0.000 C 
ENDBRANCH  24  26
BRANCH  23  30
ATOM     30  C   UNL     1      -1.295  12.610  20.305  0.00  0.00    +0.000 C 
BRANCH  30  31
ATOM     31  C   UNL     1      -1.857  11.782  19.166  0.00  0.00    +0.000 A 
ATOM     32  C   UNL     1      -3.210  11.779  18.801  0.00  0.00    +0.000 A 
ATOM     33  C   UNL     1      -3.688  10.892  17.829  0.00  0.00    +0.000 A 
ATOM     34  C   UNL     1      -2.815  10.012  17.187  0.00  0.00    +0.000 A 
ATOM     35  C   UNL     1      -1.469  10.034  17.517  0.00  0.00    +0.000 A 
ATOM     36  F   UNL     1      -0.627   9.185  16.914  0.00  0.00    +0.000 F 
ATOM     37  C   UNL     1      -0.986  10.907  18.488  0.00  0.00    +0.000 A 
ENDBRANCH  30  31
ENDBRANCH  23  30
ENDBRANCH  22  23
ENDBRANCH   2  22
TORSDOF 6
ENDMDL
MODEL 9
REMARK VINA RESULT:      -8.8      3.630      9.731
REMARK  Name = 
REMARK  10 active torsions:
REMARK  status: ('A' for Active; 'I' for Inactive)
REMARK    1  A    between atoms: C_1  and  N_2
REMARK    2  A    between atoms: C_13  and  N_14
REMARK    3  A    between atoms: C_15  and  C_17
REMARK    4  A    between atoms: C_17  and  N_18
REMARK    5  A    between atoms: N_18  and  C_19
REMARK    6  A    between atoms: C_19  and  C_20
REMARK    7  A    between atoms: C_27  and  C_29
REMARK    8  A    between atoms: C_29  and  C_30
REMARK    9  A    between atoms: C_29  and  C_31
REMARK   10  A    between atoms: C_29  and  C_32
REMARK                            x       y       z     vdW  Elec       q    Type
REMARK                         _______ _______ _______ _____ _____    ______ ____
ROOT
ATOM      1  N   UNL     1       1.239   8.406  20.043  0.00  0.00    +0.000 N 
ATOM      2  C   UNL     1       1.832   8.864  18.855  0.00  0.00    +0.000 C 
ATOM      3  O   UNL     1       1.991  10.052  18.572  0.00  0.00    +0.000 OA
ATOM      4  H   UNL     1       0.901   7.451  20.046  0.00  0.00    +0.000 HD
ENDROOT
BRANCH   1  17
ATOM      5  C   UNL     1      -0.654  14.507  22.878  0.00  0.00    +0.000 C 
ATOM      6  N   UNL     1      -1.993  14.166  22.459  0.00  0.00    +0.000 N 
ATOM      7  C   UNL     1      -3.066  15.030  22.549  0.00  0.00    +0.000 C 
ATOM      8  O   UNL     1      -3.046  16.197  22.898  0.00  0.00    +0.000 OA
ATOM      9  N   UNL     1      -4.187  14.350  22.211  0.00  0.00    +0.000 N 
ATOM     10  C   UNL     1      -3.927  13.034  21.993  0.00  0.00    +0.000 C 
ATOM     11  O   UNL     1      -4.779  12.197  21.745  0.00  0.00    +0.000 OA
ATOM     12  C   UNL     1      -2.411  12.803  22.089  0.00  0.00    +0.000 C 
ATOM     13  C   UNL     1      -2.081  11.743  23.180  0.00  0.00    +0.000 C 
ATOM     14  C   UNL     1      -0.996  10.936  22.538  0.00  0.00    +0.000 A 
ATOM     15  C   UNL     1      -0.173   9.982  23.120  0.00  0.00    +0.000 A 
ATOM     16  C   UNL     1       0.621   9.170  22.298  0.00  0.00    +0.000 A 
ATOM     17  C   UNL     1       0.557   9.305  20.899  0.00  0.00    +0.000 A 
ATOM     18  C   UNL     1      -0.201  10.331  20.327  0.00  0.00    +0.000 A 
ATOM     19  C   UNL     1      -0.956  11.155  21.153  0.00  0.00    +0.000 A 
ATOM     20  C   UNL     1      -1.860  12.285  20.747  0.00  0.00    +0.000 C 
ATOM     21  H   UNL     1      -5.107  14.755  22.226  0.00  0.00    +0.000 HD
ENDBRANCH   1  17
BRANCH   2  22
ATOM     22  C   UNL     1       2.378   7.733  17.925  0.00  0.00    +0.000 C 
BRANCH  22  23
ATOM     23  N   UNL     1       3.490   6.800  18.261  0.00  0.00    +0.000 N 
ATOM     24  C   UNL     1       4.487   6.575  17.319  0.00  0.00    +0.000 C 
ATOM     25  O   UNL     1       4.416   7.158  16.229  0.00  0.00    +0.000 OA
BRANCH  24  26
ATOM     26  C   UNL     1       5.652   5.546  17.506  0.00  0.00    +0.000 C 
ATOM     27  C   UNL     1       6.900   5.995  16.730  0.00  0.00    +0.000 C 
ATOM     28  C   UNL     1       6.040   5.554  19.014  0.00  0.00    +0.000 C 
ATOM     29  C   UNL     1       5.316   4.087  17.190  0.00  0.00    +0.000 C 
ENDBRANCH  24  26
BRANCH  23  30
ATOM     30  C   UNL     1       3.299   6.063  19.522  0.00  0.00    +0.000 C 
BRANCH  30  31
ATOM     31  C   UNL     1       2.474   4.792  19.486  0.00  0.00    +0.000 A 
ATOM     32  C   UNL     1       1.980   4.220  18.305  0.00  0.00    +0.000 A 
ATOM     33  C   UNL     1       1.113   3.122  18.351  0.00  0.00    +0.000 A 
ATOM     34  C   UNL     1       0.747   2.561  19.575  0.00  0.00    +0.000 A 
ATOM     35  C   UNL     1       1.261   3.098  20.745  0.00  0.00    +0.000 A 
ATOM     36  F   UNL     1       0.906   2.574  21.925  0.00  0.00    +0.000 F 
ATOM     37  C   UNL     1       2.118   4.196  20.711  0.00  0.00    +0.000 A 
ENDBRANCH  30  31
ENDBRANCH  23  30
ENDBRANCH  22  23
ENDBRANCH   2  22
TORSDOF 6
ENDMDL
