MODEL 1
REMARK VINA RESULT:      -6.1      0.000      0.000
REMARK  Name = 
REMARK  9 active torsions:
REMARK  status: ('A' for Active; 'I' for Inactive)
REMARK    1  A    between atoms: C_6  and  C_7
REMARK    2  A    between atoms: C_9  and  O_10
REMARK    3  A    between atoms: O_10  and  C_11
REMARK    4  A    between atoms: C_13  and  C_14
REMARK    5  A    between atoms: C_14  and  O_15
REMARK    6  A    between atoms: C_16  and  O_17
REMARK    7  A    between atoms: C_18  and  O_19
REMARK    8  A    between atoms: C_20  and  O_21
REMARK    9  A    between atoms: C_25  and  C_26
REMARK                            x       y       z     vdW  Elec       q    Type
REMARK                         _______ _______ _______ _____ _____    ______ ____
ROOT
ATOM      1  C   UNL     1       6.191  15.350  26.303  0.00  0.00    +0.000 C 
ATOM      2  C   UNL     1       6.904  14.367  25.739  0.00  0.00    +0.000 C 
ATOM      3  C   UNL     1       7.551  13.248  26.439  0.00  0.00    +0.000 C 
ATOM      4  C   UNL     1       7.012  11.863  26.300  0.00  0.00    +0.000 C 
ATOM      5  C   UNL     1       8.117  12.335  25.360  0.00  0.00    +0.000 C 
ATOM      6  C   UNL     1       7.778  12.892  23.992  0.00  0.00    +0.000 C 
ATOM      7  C   UNL     1       6.719  11.922  23.361  0.00  0.00    +0.000 C 
ATOM      8  C   UNL     1       8.962  13.166  23.009  0.00  0.00    +0.000 C 
ATOM      9  C   UNL     1       8.554  14.087  21.791  0.00  0.00    +0.000 C 
ATOM     10  O   UNL     1       8.781  15.480  21.667  0.00  0.00    +0.000 OA
ATOM     11  C   UNL     1       7.793  15.944  20.785  0.00  0.00    +0.000 C 
ATOM     12  O   UNL     1       7.745  17.057  20.292  0.00  0.00    +0.000 OA
ATOM     13  C   UNL     1       6.698  14.930  20.723  0.00  0.00    +0.000 C 
ATOM     14  C   UNL     1       5.277  15.100  20.296  0.00  0.00    +0.000 C 
ATOM     15  C   UNL     1       7.049  14.246  21.780  0.00  0.00    +0.000 C 
ATOM     16  C   UNL     1       6.405  14.745  23.128  0.00  0.00    +0.000 C 
ATOM     17  C   UNL     1       7.305  14.330  24.283  0.00  0.00    +0.000 C 
ENDROOT
BRANCH   9  18
ATOM     18  O   UNL     1       9.100  13.475  20.603  0.00  0.00    +0.000 OA
BRANCH  18  19
ATOM     19  C   UNL     1      10.555  13.357  20.581  0.00  0.00    +0.000 C 
ATOM     20  O   UNL     1      11.204  14.311  19.752  0.00  0.00    +0.000 OA
ATOM     21  C   UNL     1      11.509  13.975  18.392  0.00  0.00    +0.000 C 
ATOM     22  C   UNL     1      10.974  12.645  17.788  0.00  0.00    +0.000 C 
ATOM     23  C   UNL     1      10.364  11.653  18.792  0.00  0.00    +0.000 C 
ATOM     24  C   UNL     1      10.917  11.912  20.195  0.00  0.00    +0.000 C 
BRANCH  22  25
ATOM     25  O   UNL     1      12.121  11.941  17.239  0.00  0.00    +0.000 OA
ATOM     26  H   UNL     1      11.790  11.222  16.672  0.00  0.00    +0.000 HD
ENDBRANCH  22  25
BRANCH  23  27
ATOM     27  O   UNL     1       8.934  11.681  18.733  0.00  0.00    +0.000 OA
ATOM     28  H   UNL     1       8.585  11.233  19.529  0.00  0.00    +0.000 HD
ENDBRANCH  23  27
BRANCH  24  29
ATOM     29  O   UNL     1      12.331  11.681  20.267  0.00  0.00    +0.000 OA
ATOM     30  H   UNL     1      12.795  12.520  20.064  0.00  0.00    +0.000 HD
ENDBRANCH  24  29
BRANCH  21  31
ATOM     31  C   UNL     1      11.158  15.241  17.584  0.00  0.00    +0.000 C 
BRANCH  31  32
ATOM     32  O   UNL     1      12.180  15.448  16.597  0.00  0.00    +0.000 OA
ATOM     33  H   UNL     1      13.015  15.173  17.024  0.00  0.00    +0.000 HD
ENDBRANCH  31  32
ENDBRANCH  21  31
ENDBRANCH  18  19
ENDBRANCH   9  18
TORSDOF 7
ENDMDL
MODEL 2
REMARK VINA RESULT:      -6.0      9.067     12.656
REMARK  Name = 
REMARK  9 active torsions:
REMARK  status: ('A' for Active; 'I' for Inactive)
REMARK    1  A    between atoms: C_6  and  C_7
REMARK    2  A    between atoms: C_9  and  O_10
REMARK    3  A    between atoms: O_10  and  C_11
REMARK    4  A    between atoms: C_13  and  C_14
REMARK    5  A    between atoms: C_14  and  O_15
REMARK    6  A    between atoms: C_16  and  O_17
REMARK    7  A    between atoms: C_18  and  O_19
REMARK    8  A    between atoms: C_20  and  O_21
REMARK    9  A    between atoms: C_25  and  C_26
REMARK                            x       y       z     vdW  Elec       q    Type
REMARK                         _______ _______ _______ _____ _____    ______ ____
ROOT
ATOM      1  C   UNL     1       8.530   5.385  12.518  0.00  0.00    +0.000 C 
ATOM      2  C   UNL     1       7.336   5.004  12.987  0.00  0.00    +0.000 C 
ATOM      3  C   UNL     1       6.215   4.480  12.193  0.00  0.00    +0.000 C 
ATOM      4  C   UNL     1       5.830   3.042  12.294  0.00  0.00    +0.000 C 
ATOM      5  C   UNL     1       5.138   4.067  13.187  0.00  0.00    +0.000 C 
ATOM      6  C   UNL     1       5.629   4.314  14.600  0.00  0.00    +0.000 C 
ATOM      7  C   UNL     1       5.867   2.905  15.245  0.00  0.00    +0.000 C 
ATOM      8  C   UNL     1       4.755   5.225  15.520  0.00  0.00    +0.000 C 
ATOM      9  C   UNL     1       5.525   5.727  16.805  0.00  0.00    +0.000 C 
ATOM     10  O   UNL     1       6.145   6.987  16.985  0.00  0.00    +0.000 OA
ATOM     11  C   UNL     1       7.144   6.780  17.949  0.00  0.00    +0.000 C 
ATOM     12  O   UNL     1       7.794   7.651  18.500  0.00  0.00    +0.000 OA
ATOM     13  C   UNL     1       7.431   5.317  18.027  0.00  0.00    +0.000 C 
ATOM     14  C   UNL     1       8.645   4.619  18.550  0.00  0.00    +0.000 C 
ATOM     15  C   UNL     1       6.832   4.973  16.918  0.00  0.00    +0.000 C 
ATOM     16  C   UNL     1       7.751   5.006  15.639  0.00  0.00    +0.000 C 
ATOM     17  C   UNL     1       6.874   5.203  14.411  0.00  0.00    +0.000 C 
ENDROOT
BRANCH   9  18
ATOM     18  O   UNL     1       4.631   5.546  17.925  0.00  0.00    +0.000 OA
BRANCH  18  19
ATOM     19  C   UNL     1       3.344   4.940  17.598  0.00  0.00    +0.000 C 
ATOM     20  O   UNL     1       2.256   5.436  18.365  0.00  0.00    +0.000 OA
ATOM     21  C   UNL     1       1.871   4.756  19.568  0.00  0.00    +0.000 C 
ATOM     22  C   UNL     1       2.752   3.596  20.113  0.00  0.00    +0.000 C 
ATOM     23  C   UNL     1       3.849   3.086  19.164  0.00  0.00    +0.000 C 
ATOM     24  C   UNL     1       3.486   3.412  17.713  0.00  0.00    +0.000 C 
BRANCH  22  25
ATOM     25  O   UNL     1       1.874   2.451  20.294  0.00  0.00    +0.000 OA
ATOM     26  H   UNL     1       1.730   2.041  19.423  0.00  0.00    +0.000 HD
ENDBRANCH  22  25
BRANCH  23  27
ATOM     27  O   UNL     1       5.133   3.586  19.552  0.00  0.00    +0.000 OA
ATOM     28  H   UNL     1       5.778   2.854  19.489  0.00  0.00    +0.000 HD
ENDBRANCH  23  27
BRANCH  24  29
ATOM     29  O   UNL     1       2.294   2.734  17.291  0.00  0.00    +0.000 OA
ATOM     30  H   UNL     1       2.400   2.472  16.353  0.00  0.00    +0.000 HD
ENDBRANCH  24  29
BRANCH  21  31
ATOM     31  C   UNL     1       1.583   5.882  20.582  0.00  0.00    +0.000 C 
BRANCH  31  32
ATOM     32  O   UNL     1       2.456   6.985  20.295  0.00  0.00    +0.000 OA
ATOM     33  H   UNL     1       2.016   7.488  19.582  0.00  0.00    +0.000 HD
ENDBRANCH  31  32
ENDBRANCH  21  31
ENDBRANCH  18  19
ENDBRANCH   9  18
TORSDOF 7
ENDMDL
MODEL 3
REMARK VINA RESULT:      -5.9     10.113     13.386
REMARK  Name = 
REMARK  9 active torsions:
REMARK  status: ('A' for Active; 'I' for Inactive)
REMARK    1  A    between atoms: C_6  and  C_7
REMARK    2  A    between atoms: C_9  and  O_10
REMARK    3  A    between atoms: O_10  and  C_11
REMARK    4  A    between atoms: C_13  and  C_14
REMARK    5  A    between atoms: C_14  and  O_15
REMARK    6  A    between atoms: C_16  and  O_17
REMARK    7  A    between atoms: C_18  and  O_19
REMARK    8  A    between atoms: C_20  and  O_21
REMARK    9  A    between atoms: C_25  and  C_26
REMARK                            x       y       z     vdW  Elec       q    Type
REMARK                         _______ _______ _______ _____ _____    ______ ____
ROOT
ATOM      1  C   UNL     1       2.135  12.762  18.927  0.00  0.00    +0.000 C 
ATOM      2  C   UNL     1       0.966  12.196  19.251  0.00  0.00    +0.000 C 
ATOM      3  C   UNL     1       0.505  10.859  18.850  0.00  0.00    +0.000 C 
ATOM      4  C   UNL     1       0.413   9.762  19.858  0.00  0.00    +0.000 C 
ATOM      5  C   UNL     1      -0.814  10.623  19.573  0.00  0.00    +0.000 C 
ATOM      6  C   UNL     1      -1.136  11.818  20.448  0.00  0.00    +0.000 C 
ATOM      7  C   UNL     1      -0.970  11.346  21.934  0.00  0.00    +0.000 C 
ATOM      8  C   UNL     1      -2.509  12.530  20.222  0.00  0.00    +0.000 C 
ATOM      9  C   UNL     1      -2.580  13.960  20.891  0.00  0.00    +0.000 C 
ATOM     10  O   UNL     1      -2.390  15.208  20.249  0.00  0.00    +0.000 OA
ATOM     11  C   UNL     1      -1.971  16.090  21.258  0.00  0.00    +0.000 C 
ATOM     12  O   UNL     1      -1.860  17.298  21.147  0.00  0.00    +0.000 OA
ATOM     13  C   UNL     1      -1.476  15.285  22.414  0.00  0.00    +0.000 C 
ATOM     14  C   UNL     1      -0.561  15.690  23.524  0.00  0.00    +0.000 C 
ATOM     15  C   UNL     1      -1.375  14.143  21.788  0.00  0.00    +0.000 C 
ATOM     16  C   UNL     1       0.024  13.887  21.111  0.00  0.00    +0.000 C 
ATOM     17  C   UNL     1      -0.161  12.908  19.960  0.00  0.00    +0.000 C 
ENDROOT
BRANCH   9  18
ATOM     18  O   UNL     1      -3.851  14.039  21.573  0.00  0.00    +0.000 OA
BRANCH  18  19
ATOM     19  C   UNL     1      -4.261  12.819  22.261  0.00  0.00    +0.000 C 
ATOM     20  O   UNL     1      -5.479  12.265  21.786  0.00  0.00    +0.000 OA
ATOM     21  C   UNL     1      -6.714  12.619  22.425  0.00  0.00    +0.000 C 
ATOM     22  C   UNL     1      -6.728  13.733  23.510  0.00  0.00    +0.000 C 
ATOM     23  C   UNL     1      -5.350  14.200  24.007  0.00  0.00    +0.000 C 
ATOM     24  C   UNL     1      -4.305  13.107  23.772  0.00  0.00    +0.000 C 
BRANCH  22  25
ATOM     25  O   UNL     1      -7.362  13.164  24.688  0.00  0.00    +0.000 OA
ATOM     26  H   UNL     1      -7.592  13.895  25.288  0.00  0.00    +0.000 HD
ENDBRANCH  22  25
BRANCH  23  27
ATOM     27  O   UNL     1      -4.995  15.457  23.423  0.00  0.00    +0.000 OA
ATOM     28  H   UNL     1      -5.636  15.657  22.711  0.00  0.00    +0.000 HD
ENDBRANCH  23  27
BRANCH  24  29
ATOM     29  O   UNL     1      -4.585  11.922  24.531  0.00  0.00    +0.000 OA
ATOM     30  H   UNL     1      -3.779  11.673  25.030  0.00  0.00    +0.000 HD
ENDBRANCH  24  29
BRANCH  21  31
ATOM     31  C   UNL     1      -7.711  12.828  21.268  0.00  0.00    +0.000 C 
BRANCH  31  32
ATOM     32  O   UNL     1      -7.743  11.632  20.474  0.00  0.00    +0.000 OA
ATOM     33  H   UNL     1      -8.623  11.237  20.630  0.00  0.00    +0.000 HD
ENDBRANCH  31  32
ENDBRANCH  21  31
ENDBRANCH  18  19
ENDBRANCH   9  18
TORSDOF 7
ENDMDL
MODEL 4
REMARK VINA RESULT:      -5.8      6.716      9.637
REMARK  Name = 
REMARK  9 active torsions:
REMARK  status: ('A' for Active; 'I' for Inactive)
REMARK    1  A    between atoms: C_6  and  C_7
REMARK    2  A    between atoms: C_9  and  O_10
REMARK    3  A    between atoms: O_10  and  C_11
REMARK    4  A    between atoms: C_13  and  C_14
REMARK    5  A    between atoms: C_14  and  O_15
REMARK    6  A    between atoms: C_16  and  O_17
REMARK    7  A    between atoms: C_18  and  O_19
REMARK    8  A    between atoms: C_20  and  O_21
REMARK    9  A    between atoms: C_25  and  C_26
REMARK                            x       y       z     vdW  Elec       q    Type
REMARK                         _______ _______ _______ _____ _____    ______ ____
ROOT
ATOM      1  C   UNL     1       0.997   7.987  21.307  0.00  0.00    +0.000 C 
ATOM      2  C   UNL     1       1.150   8.891  20.331  0.00  0.00    +0.000 C 
ATOM      3  C   UNL     1       1.892   8.700  19.076  0.00  0.00    +0.000 C 
ATOM      4  C   UNL     1       1.160   8.592  17.780  0.00  0.00    +0.000 C 
ATOM      5  C   UNL     1       1.662   9.955  18.246  0.00  0.00    +0.000 C 
ATOM      6  C   UNL     1       0.743  10.900  18.994  0.00  0.00    +0.000 C 
ATOM      7  C   UNL     1      -0.620  10.908  18.220  0.00  0.00    +0.000 C 
ATOM      8  C   UNL     1       1.260  12.350  19.262  0.00  0.00    +0.000 C 
ATOM      9  C   UNL     1       0.416  13.114  20.359  0.00  0.00    +0.000 C 
ATOM     10  O   UNL     1       0.750  13.276  21.726  0.00  0.00    +0.000 OA
ATOM     11  C   UNL     1      -0.472  13.467  22.390  0.00  0.00    +0.000 C 
ATOM     12  O   UNL     1      -0.604  13.805  23.553  0.00  0.00    +0.000 OA
ATOM     13  C   UNL     1      -1.573  12.979  21.508  0.00  0.00    +0.000 C 
ATOM     14  C   UNL     1      -2.963  12.567  21.871  0.00  0.00    +0.000 C 
ATOM     15  C   UNL     1      -0.826  12.309  20.670  0.00  0.00    +0.000 C 
ATOM     16  C   UNL     1      -0.583  10.805  21.067  0.00  0.00    +0.000 C 
ATOM     17  C   UNL     1       0.716  10.333  20.428  0.00  0.00    +0.000 C 
ENDROOT
BRANCH   9  18
ATOM     18  O   UNL     1       0.158  14.438  19.841  0.00  0.00    +0.000 OA
BRANCH  18  19
ATOM     19  C   UNL     1       1.231  15.005  19.029  0.00  0.00    +0.000 C 
ATOM     20  O   UNL     1       2.526  14.853  19.589  0.00  0.00    +0.000 OA
ATOM     21  C   UNL     1       3.071  15.898  20.407  0.00  0.00    +0.000 C 
ATOM     22  C   UNL     1       2.175  17.103  20.814  0.00  0.00    +0.000 C 
ATOM     23  C   UNL     1       0.827  17.211  20.084  0.00  0.00    +0.000 C 
ATOM     24  C   UNL     1       0.892  16.478  18.741  0.00  0.00    +0.000 C 
BRANCH  22  25
ATOM     25  O   UNL     1       2.891  18.308  20.428  0.00  0.00    +0.000 OA
ATOM     26  H   UNL     1       2.252  18.919  20.020  0.00  0.00    +0.000 HD
ENDBRANCH  22  25
BRANCH  23  27
ATOM     27  O   UNL     1      -0.245  16.764  20.921  0.00  0.00    +0.000 OA
ATOM     28  H   UNL     1      -0.954  17.437  20.896  0.00  0.00    +0.000 HD
ENDBRANCH  23  27
BRANCH  24  29
ATOM     29  O   UNL     1       1.841  17.077  17.847  0.00  0.00    +0.000 OA
ATOM     30  H   UNL     1       2.581  16.449  17.712  0.00  0.00    +0.000 HD
ENDBRANCH  24  29
BRANCH  21  31
ATOM     31  C   UNL     1       3.748  15.167  21.583  0.00  0.00    +0.000 C 
BRANCH  31  32
ATOM     32  O   UNL     1       2.824  15.119  22.681  0.00  0.00    +0.000 OA
ATOM     33  H   UNL     1       3.251  15.616  23.404  0.00  0.00    +0.000 HD
ENDBRANCH  31  32
ENDBRANCH  21  31
ENDBRANCH  18  19
ENDBRANCH   9  18
TORSDOF 7
ENDMDL
MODEL 5
REMARK VINA RESULT:      -5.8      8.807     11.120
REMARK  Name = 
REMARK  9 active torsions:
REMARK  status: ('A' for Active; 'I' for Inactive)
REMARK    1  A    between atoms: C_6  and  C_7
REMARK    2  A    between atoms: C_9  and  O_10
REMARK    3  A    between atoms: O_10  and  C_11
REMARK    4  A    between atoms: C_13  and  C_14
REMARK    5  A    between atoms: C_14  and  O_15
REMARK    6  A    between atoms: C_16  and  O_17
REMARK    7  A    between atoms: C_18  and  O_19
REMARK    8  A    between atoms: C_20  and  O_21
REMARK    9  A    between atoms: C_25  and  C_26
REMARK                            x       y       z     vdW  Elec       q    Type
REMARK                         _______ _______ _______ _____ _____    ______ ____
ROOT
ATOM      1  C   UNL     1      -5.263  16.435  24.225  0.00  0.00    +0.000 C 
ATOM      2  C   UNL     1      -5.034  15.205  23.748  0.00  0.00    +0.000 C 
ATOM      3  C   UNL     1      -5.952  14.059  23.817  0.00  0.00    +0.000 C 
ATOM      4  C   UNL     1      -6.619  13.556  22.580  0.00  0.00    +0.000 C 
ATOM      5  C   UNL     1      -5.298  12.935  23.024  0.00  0.00    +0.000 C 
ATOM      6  C   UNL     1      -3.985  13.420  22.441  0.00  0.00    +0.000 C 
ATOM      7  C   UNL     1      -4.195  13.531  20.891  0.00  0.00    +0.000 C 
ATOM      8  C   UNL     1      -2.697  12.608  22.789  0.00  0.00    +0.000 C 
ATOM      9  C   UNL     1      -1.364  13.395  22.467  0.00  0.00    +0.000 C 
ATOM     10  O   UNL     1      -0.560  14.114  23.386  0.00  0.00    +0.000 OA
ATOM     11  C   UNL     1       0.116  15.076  22.620  0.00  0.00    +0.000 C 
ATOM     12  O   UNL     1       1.026  15.786  23.011  0.00  0.00    +0.000 OA
ATOM     13  C   UNL     1      -0.604  15.241  21.322  0.00  0.00    +0.000 C 
ATOM     14  C   UNL     1      -0.568  16.384  20.361  0.00  0.00    +0.000 C 
ATOM     15  C   UNL     1      -1.708  14.635  21.670  0.00  0.00    +0.000 C 
ATOM     16  C   UNL     1      -2.800  15.574  22.305  0.00  0.00    +0.000 C 
ATOM     17  C   UNL     1      -3.710  14.737  23.194  0.00  0.00    +0.000 C 
ENDROOT
BRANCH   9  18
ATOM     18  O   UNL     1      -0.486  12.471  21.789  0.00  0.00    +0.000 OA
BRANCH  18  19
ATOM     19  C   UNL     1      -1.159  11.393  21.070  0.00  0.00    +0.000 C 
ATOM     20  O   UNL     1      -0.694  10.093  21.404  0.00  0.00    +0.000 OA
ATOM     21  C   UNL     1       0.346   9.491  20.621  0.00  0.00    +0.000 C 
ATOM     22  C   UNL     1       1.073  10.329  19.530  0.00  0.00    +0.000 C 
ATOM     23  C   UNL     1       0.434  11.686  19.194  0.00  0.00    +0.000 C 
ATOM     24  C   UNL     1      -1.052  11.678  19.561  0.00  0.00    +0.000 C 
BRANCH  22  25
ATOM     25  O   UNL     1       0.984   9.573  18.291  0.00  0.00    +0.000 OA
ATOM     26  H   UNL     1       1.382  10.109  17.583  0.00  0.00    +0.000 HD
ENDBRANCH  22  25
BRANCH  23  27
ATOM     27  O   UNL     1       1.161  12.758  19.803  0.00  0.00    +0.000 OA
ATOM     28  H   UNL     1       0.715  13.598  19.578  0.00  0.00    +0.000 HD
ENDBRANCH  23  27
BRANCH  24  29
ATOM     29  O   UNL     1      -1.792  10.724  18.787  0.00  0.00    +0.000 OA
ATOM     30  H   UNL     1      -2.541  10.397  19.328  0.00  0.00    +0.000 HD
ENDBRANCH  24  29
BRANCH  21  31
ATOM     31  C   UNL     1       1.277   8.820  21.650  0.00  0.00    +0.000 C 
BRANCH  31  32
ATOM     32  O   UNL     1       1.857   7.654  21.046  0.00  0.00    +0.000 OA
ATOM     33  H   UNL     1       2.819   7.823  21.021  0.00  0.00    +0.000 HD
ENDBRANCH  31  32
ENDBRANCH  21  31
ENDBRANCH  18  19
ENDBRANCH   9  18
TORSDOF 7
ENDMDL
MODEL 6
REMARK VINA RESULT:      -5.7      8.539     12.195
REMARK  Name = 
REMARK  9 active torsions:
REMARK  status: ('A' for Active; 'I' for Inactive)
REMARK    1  A    between atoms: C_6  and  C_7
REMARK    2  A    between atoms: C_9  and  O_10
REMARK    3  A    between atoms: O_10  and  C_11
REMARK    4  A    between atoms: C_13  and  C_14
REMARK    5  A    between atoms: C_14  and  O_15
REMARK    6  A    between atoms: C_16  and  O_17
REMARK    7  A    between atoms: C_18  and  O_19
REMARK    8  A    between atoms: C_20  and  O_21
REMARK    9  A    between atoms: C_25  and  C_26
REMARK                            x       y       z     vdW  Elec       q    Type
REMARK                         _______ _______ _______ _____ _____    ______ ____
ROOT
ATOM      1  C   UNL     1       8.644   4.931  12.711  0.00  0.00    +0.000 C 
ATOM      2  C   UNL     1       7.394   4.822  13.177  0.00  0.00    +0.000 C 
ATOM      3  C   UNL     1       6.209   4.417  12.407  0.00  0.00    +0.000 C 
ATOM      4  C   UNL     1       5.572   3.090  12.652  0.00  0.00    +0.000 C 
ATOM      5  C   UNL     1       5.062   4.315  13.404  0.00  0.00    +0.000 C 
ATOM      6  C   UNL     1       5.569   4.629  14.797  0.00  0.00    +0.000 C 
ATOM      7  C   UNL     1       5.543   3.282  15.599  0.00  0.00    +0.000 C 
ATOM      8  C   UNL     1       4.859   5.779  15.582  0.00  0.00    +0.000 C 
ATOM      9  C   UNL     1       5.689   6.278  16.831  0.00  0.00    +0.000 C 
ATOM     10  O   UNL     1       6.522   7.422  16.894  0.00  0.00    +0.000 OA
ATOM     11  C   UNL     1       7.454   7.152  17.908  0.00  0.00    +0.000 C 
ATOM     12  O   UNL     1       8.242   7.952  18.383  0.00  0.00    +0.000 OA
ATOM     13  C   UNL     1       7.474   5.680  18.155  0.00  0.00    +0.000 C 
ATOM     14  C   UNL     1       8.535   4.842  18.790  0.00  0.00    +0.000 C 
ATOM     15  C   UNL     1       6.839   5.324  17.069  0.00  0.00    +0.000 C 
ATOM     16  C   UNL     1       7.766   5.049  15.827  0.00  0.00    +0.000 C 
ATOM     17  C   UNL     1       6.956   5.258  14.555  0.00  0.00    +0.000 C 
ENDROOT
BRANCH   9  18
ATOM     18  O   UNL     1       4.762   6.385  17.933  0.00  0.00    +0.000 OA
BRANCH  18  19
ATOM     19  C   UNL     1       3.368   6.112  17.598  0.00  0.00    +0.000 C 
ATOM     20  O   UNL     1       2.444   7.037  18.151  0.00  0.00    +0.000 OA
ATOM     21  C   UNL     1       1.827   6.752  19.415  0.00  0.00    +0.000 C 
ATOM     22  C   UNL     1       2.304   5.527  20.245  0.00  0.00    +0.000 C 
ATOM     23  C   UNL     1       3.240   4.548  19.517  0.00  0.00    +0.000 C 
ATOM     24  C   UNL     1       3.049   4.661  18.002  0.00  0.00    +0.000 C 
BRANCH  22  25
ATOM     25  O   UNL     1       1.121   4.736  20.546  0.00  0.00    +0.000 OA
ATOM     26  H   UNL     1       0.495   4.840  19.807  0.00  0.00    +0.000 HD
ENDBRANCH  22  25
BRANCH  23  27
ATOM     27  O   UNL     1       4.597   4.735  19.931  0.00  0.00    +0.000 OA
ATOM     28  H   UNL     1       4.636   5.523  20.509  0.00  0.00    +0.000 HD
ENDBRANCH  23  27
BRANCH  24  29
ATOM     29  O   UNL     1       1.728   4.275  17.596  0.00  0.00    +0.000 OA
ATOM     30  H   UNL     1       1.198   4.085  18.399  0.00  0.00    +0.000 HD
ENDBRANCH  24  29
BRANCH  21  31
ATOM     31  C   UNL     1       1.842   8.095  20.173  0.00  0.00    +0.000 C 
BRANCH  31  32
ATOM     32  O   UNL     1       1.596   7.833  21.564  0.00  0.00    +0.000 OA
ATOM     33  H   UNL     1       0.982   8.534  21.856  0.00  0.00    +0.000 HD
ENDBRANCH  31  32
ENDBRANCH  21  31
ENDBRANCH  18  19
ENDBRANCH   9  18
TORSDOF 7
ENDMDL
MODEL 7
REMARK VINA RESULT:      -5.7     11.203     14.324
REMARK  Name = 
REMARK  9 active torsions:
REMARK  status: ('A' for Active; 'I' for Inactive)
REMARK    1  A    between atoms: C_6  and  C_7
REMARK    2  A    between atoms: C_9  and  O_10
REMARK    3  A    between atoms: O_10  and  C_11
REMARK    4  A    between atoms: C_13  and  C_14
REMARK    5  A    between atoms: C_14  and  O_15
REMARK    6  A    between atoms: C_16  and  O_17
REMARK    7  A    between atoms: C_18  and  O_19
REMARK    8  A    between atoms: C_20  and  O_21
REMARK    9  A    between atoms: C_25  and  C_26
REMARK                            x       y       z     vdW  Elec       q    Type
REMARK                         _______ _______ _______ _____ _____    ______ ____
ROOT
ATOM      1  C   UNL     1      -7.453   9.610  19.746  0.00  0.00    +0.000 C 
ATOM      2  C   UNL     1      -6.864  10.776  19.450  0.00  0.00    +0.000 C 
ATOM      3  C   UNL     1      -6.516  11.260  18.106  0.00  0.00    +0.000 C 
ATOM      4  C   UNL     1      -7.273  12.394  17.498  0.00  0.00    +0.000 C 
ATOM      5  C   UNL     1      -5.996  12.681  18.282  0.00  0.00    +0.000 C 
ATOM      6  C   UNL     1      -6.062  13.070  19.746  0.00  0.00    +0.000 C 
ATOM      7  C   UNL     1      -7.193  14.149  19.873  0.00  0.00    +0.000 C 
ATOM      8  C   UNL     1      -4.738  13.542  20.428  0.00  0.00    +0.000 C 
ATOM      9  C   UNL     1      -4.825  13.549  22.006  0.00  0.00    +0.000 C 
ATOM     10  O   UNL     1      -4.340  12.552  22.887  0.00  0.00    +0.000 OA
ATOM     11  C   UNL     1      -5.115  12.670  24.051  0.00  0.00    +0.000 C 
ATOM     12  O   UNL     1      -4.904  12.101  25.108  0.00  0.00    +0.000 OA
ATOM     13  C   UNL     1      -6.357  13.429  23.719  0.00  0.00    +0.000 C 
ATOM     14  C   UNL     1      -7.663  13.466  24.443  0.00  0.00    +0.000 C 
ATOM     15  C   UNL     1      -6.265  13.332  22.418  0.00  0.00    +0.000 C 
ATOM     16  C   UNL     1      -6.967  12.065  21.803  0.00  0.00    +0.000 C 
ATOM     17  C   UNL     1      -6.303  11.733  20.474  0.00  0.00    +0.000 C 
ENDROOT
BRANCH   9  18
ATOM     18  O   UNL     1      -4.257  14.800  22.451  0.00  0.00    +0.000 OA
BRANCH  18  19
ATOM     19  C   UNL     1      -3.029  15.199  21.769  0.00  0.00    +0.000 C 
ATOM     20  O   UNL     1      -2.061  14.166  21.663  0.00  0.00    +0.000 OA
ATOM     21  C   UNL     1      -1.044  14.043  22.667  0.00  0.00    +0.000 C 
ATOM     22  C   UNL     1      -1.115  14.924  23.947  0.00  0.00    +0.000 C 
ATOM     23  C   UNL     1      -2.147  16.063  23.917  0.00  0.00    +0.000 C 
ATOM     24  C   UNL     1      -2.470  16.449  22.472  0.00  0.00    +0.000 C 
BRANCH  22  25
ATOM     25  O   UNL     1       0.166  15.602  24.062  0.00  0.00    +0.000 OA
ATOM     26  H   UNL     1       0.829  15.074  23.583  0.00  0.00    +0.000 HD
ENDBRANCH  22  25
BRANCH  23  27
ATOM     27  O   UNL     1      -3.307  15.723  24.684  0.00  0.00    +0.000 OA
ATOM     28  H   UNL     1      -3.051  15.684  25.627  0.00  0.00    +0.000 HD
ENDBRANCH  23  27
BRANCH  24  29
ATOM     29  O   UNL     1      -1.324  16.975  21.787  0.00  0.00    +0.000 OA
ATOM     30  H   UNL     1      -1.495  16.944  20.823  0.00  0.00    +0.000 HD
ENDBRANCH  24  29
BRANCH  21  31
ATOM     31  C   UNL     1      -0.930  12.528  22.930  0.00  0.00    +0.000 C 
BRANCH  31  32
ATOM     32  O   UNL     1      -0.569  11.880  21.700  0.00  0.00    +0.000 OA
ATOM     33  H   UNL     1      -0.428  10.941  21.931  0.00  0.00    +0.000 HD
ENDBRANCH  31  32
ENDBRANCH  21  31
ENDBRANCH  18  19
ENDBRANCH   9  18
TORSDOF 7
ENDMDL
MODEL 8
REMARK VINA RESULT:      -5.7      7.680      9.690
REMARK  Name = 
REMARK  9 active torsions:
REMARK  status: ('A' for Active; 'I' for Inactive)
REMARK    1  A    between atoms: C_6  and  C_7
REMARK    2  A    between atoms: C_9  and  O_10
REMARK    3  A    between atoms: O_10  and  C_11
REMARK    4  A    between atoms: C_13  and  C_14
REMARK    5  A    between atoms: C_14  and  O_15
REMARK    6  A    between atoms: C_16  and  O_17
REMARK    7  A    between atoms: C_18  and  O_19
REMARK    8  A    between atoms: C_20  and  O_21
REMARK    9  A    between atoms: C_25  and  C_26
REMARK                            x       y       z     vdW  Elec       q    Type
REMARK                         _______ _______ _______ _____ _____    ______ ____
ROOT
ATOM      1  C   UNL     1       1.104   7.541  21.195  0.00  0.00    +0.000 C 
ATOM      2  C   UNL     1       1.360   8.397  20.198  0.00  0.00    +0.000 C 
ATOM      3  C   UNL     1       2.168   8.124  19.001  0.00  0.00    +0.000 C 
ATOM      4  C   UNL     1       1.512   7.998  17.666  0.00  0.00    +0.000 C 
ATOM      5  C   UNL     1       2.049   9.354  18.112  0.00  0.00    +0.000 C 
ATOM      6  C   UNL     1       1.132  10.369  18.765  0.00  0.00    +0.000 C 
ATOM      7  C   UNL     1      -0.179  10.408  17.906  0.00  0.00    +0.000 C 
ATOM      8  C   UNL     1       1.699  11.804  19.012  0.00  0.00    +0.000 C 
ATOM      9  C   UNL     1       0.827  12.648  20.024  0.00  0.00    +0.000 C 
ATOM     10  O   UNL     1       1.083  12.848  21.403  0.00  0.00    +0.000 OA
ATOM     11  C   UNL     1      -0.166  13.121  21.981  0.00  0.00    +0.000 C 
ATOM     12  O   UNL     1      -0.354  13.509  23.120  0.00  0.00    +0.000 OA
ATOM     13  C   UNL     1      -1.233  12.648  21.049  0.00  0.00    +0.000 C 
ATOM     14  C   UNL     1      -2.660  12.314  21.339  0.00  0.00    +0.000 C 
ATOM     15  C   UNL     1      -0.469  11.912  20.285  0.00  0.00    +0.000 C 
ATOM     16  C   UNL     1      -0.322  10.415  20.752  0.00  0.00    +0.000 C 
ATOM     17  C   UNL     1       0.990   9.861  20.214  0.00  0.00    +0.000 C 
ENDROOT
BRANCH   9  18
ATOM     18  O   UNL     1       0.665  13.960  19.443  0.00  0.00    +0.000 OA
BRANCH  18  19
ATOM     19  C   UNL     1       1.906  14.693  19.212  0.00  0.00    +0.000 C 
ATOM     20  O   UNL     1       2.462  15.277  20.381  0.00  0.00    +0.000 OA
ATOM     21  C   UNL     1       2.137  16.634  20.716  0.00  0.00    +0.000 C 
ATOM     22  C   UNL     1       1.049  17.389  19.901  0.00  0.00    +0.000 C 
ATOM     23  C   UNL     1       0.579  16.698  18.611  0.00  0.00    +0.000 C 
ATOM     24  C   UNL     1       1.655  15.733  18.106  0.00  0.00    +0.000 C 
BRANCH  22  25
ATOM     25  O   UNL     1       1.653  18.631  19.444  0.00  0.00    +0.000 OA
ATOM     26  H   UNL     1       1.412  19.332  20.075  0.00  0.00    +0.000 HD
ENDBRANCH  22  25
BRANCH  23  27
ATOM     27  O   UNL     1      -0.696  16.076  18.800  0.00  0.00    +0.000 OA
ATOM     28  H   UNL     1      -1.286  16.360  18.074  0.00  0.00    +0.000 HD
ENDBRANCH  23  27
BRANCH  24  29
ATOM     29  O   UNL     1       2.860  16.417  17.736  0.00  0.00    +0.000 OA
ATOM     30  H   UNL     1       3.598  16.061  18.274  0.00  0.00    +0.000 HD
ENDBRANCH  24  29
BRANCH  21  31
ATOM     31  C   UNL     1       1.911  16.619  22.241  0.00  0.00    +0.000 C 
BRANCH  31  32
ATOM     32  O   UNL     1       2.239  15.312  22.737  0.00  0.00    +0.000 OA
ATOM     33  H   UNL     1       2.538  14.805  21.957  0.00  0.00    +0.000 HD
ENDBRANCH  31  32
ENDBRANCH  21  31
ENDBRANCH  18  19
ENDBRANCH   9  18
TORSDOF 7
ENDMDL
MODEL 9
REMARK VINA RESULT:      -5.7      1.630      1.964
REMARK  Name = 
REMARK  9 active torsions:
REMARK  status: ('A' for Active; 'I' for Inactive)
REMARK    1  A    between atoms: C_6  and  C_7
REMARK    2  A    between atoms: C_9  and  O_10
REMARK    3  A    between atoms: O_10  and  C_11
REMARK    4  A    between atoms: C_13  and  C_14
REMARK    5  A    between atoms: C_14  and  O_15
REMARK    6  A    between atoms: C_16  and  O_17
REMARK    7  A    between atoms: C_18  and  O_19
REMARK    8  A    between atoms: C_20  and  O_21
REMARK    9  A    between atoms: C_25  and  C_26
REMARK                            x       y       z     vdW  Elec       q    Type
REMARK                         _______ _______ _______ _____ _____    ______ ____
ROOT
ATOM      1  C   UNL     1       8.003  14.078  26.845  0.00  0.00    +0.000 C 
ATOM      2  C   UNL     1       7.989  13.345  25.725  0.00  0.00    +0.000 C 
ATOM      3  C   UNL     1       7.727  11.902  25.631  0.00  0.00    +0.000 C 
ATOM      4  C   UNL     1       6.454  11.408  25.029  0.00  0.00    +0.000 C 
ATOM      5  C   UNL     1       7.688  11.567  24.146  0.00  0.00    +0.000 C 
ATOM      6  C   UNL     1       7.896  12.829  23.334  0.00  0.00    +0.000 C 
ATOM      7  C   UNL     1       6.524  13.152  22.645  0.00  0.00    +0.000 C 
ATOM      8  C   UNL     1       9.071  12.841  22.304  0.00  0.00    +0.000 C 
ATOM      9  C   UNL     1       9.440  14.294  21.804  0.00  0.00    +0.000 C 
ATOM     10  O   UNL     1      10.499  15.110  22.272  0.00  0.00    +0.000 OA
ATOM     11  C   UNL     1      10.103  16.429  22.005  0.00  0.00    +0.000 C 
ATOM     12  O   UNL     1      10.807  17.419  22.108  0.00  0.00    +0.000 OA
ATOM     13  C   UNL     1       8.626  16.446  21.788  0.00  0.00    +0.000 C 
ATOM     14  C   UNL     1       7.669  17.589  21.892  0.00  0.00    +0.000 C 
ATOM     15  C   UNL     1       8.375  15.260  22.276  0.00  0.00    +0.000 C 
ATOM     16  C   UNL     1       8.070  15.237  23.821  0.00  0.00    +0.000 C 
ATOM     17  C   UNL     1       8.405  13.855  24.366  0.00  0.00    +0.000 C 
ENDROOT
BRANCH   9  18
ATOM     18  O   UNL     1       9.585  14.218  20.369  0.00  0.00    +0.000 OA
BRANCH  18  19
ATOM     19  C   UNL     1      10.798  13.552  19.904  0.00  0.00    +0.000 C 
ATOM     20  O   UNL     1      11.820  14.440  19.474  0.00  0.00    +0.000 OA
ATOM     21  C   UNL     1      11.909  14.798  18.088  0.00  0.00    +0.000 C 
ATOM     22  C   UNL     1      10.788  14.356  17.104  0.00  0.00    +0.000 C 
ATOM     23  C   UNL     1       9.783  13.330  17.654  0.00  0.00    +0.000 C 
ATOM     24  C   UNL     1      10.407  12.544  18.809  0.00  0.00    +0.000 C 
BRANCH  22  25
ATOM     25  O   UNL     1      11.442  13.664  16.005  0.00  0.00    +0.000 OA
ATOM     26  H   UNL     1      11.180  14.102  15.176  0.00  0.00    +0.000 HD
ENDBRANCH  22  25
BRANCH  23  27
ATOM     27  O   UNL     1       8.547  13.963  18.003  0.00  0.00    +0.000 OA
ATOM     28  H   UNL     1       8.675  14.931  17.959  0.00  0.00    +0.000 HD
ENDBRANCH  23  27
BRANCH  24  29
ATOM     29  O   UNL     1      11.530  11.761  18.382  0.00  0.00    +0.000 OA
ATOM     30  H   UNL     1      11.317  10.813  18.508  0.00  0.00    +0.000 HD
ENDBRANCH  24  29
BRANCH  21  31
ATOM     31  C   UNL     1      12.210  16.310  18.090  0.00  0.00    +0.000 C 
BRANCH  31  32
ATOM     32  O   UNL     1      12.290  16.755  19.452  0.00  0.00    +0.000 OA
ATOM     33  H   UNL     1      11.609  16.247  19.934  0.00  0.00    +0.000 HD
ENDBRANCH  31  32
ENDBRANCH  21  31
ENDBRANCH  18  19
ENDBRANCH   9  18
TORSDOF 7
ENDMDL
