MODEL 1
REMARK VINA RESULT:      -8.1      0.000      0.000
REMARK  Name = 
REMARK  10 active torsions:
REMARK  status: ('A' for Active; 'I' for Inactive)
REMARK    1  A    between atoms: C_1  and  C_2
REMARK    2  A    between atoms: N_6  and  C_7
REMARK    3  A    between atoms: N_16  and  C_17
REMARK    4  A    between atoms: C_17  and  C_18
REMARK    5  A    between atoms: C_17  and  C_22
REMARK    6  A    between atoms: C_18  and  N_19
REMARK    7  A    between atoms: N_19  and  C_20
REMARK    8  A    between atoms: N_19  and  C_21
REMARK    9  A    between atoms: C_28  and  C_29
REMARK   10  A    between atoms: C_28  and  C_30
REMARK                            x       y       z     vdW  Elec       q    Type
REMARK                         _______ _______ _______ _____ _____    ______ ____
ROOT
ATOM      1  C   UNL     1       1.562   7.621  20.549  0.00  0.00    +0.000 A 
ATOM      2  N   UNL     1       2.238   8.055  19.418  0.00  0.00    +0.000 N 
ATOM      3  N   UNL     1       1.539   9.024  18.765  0.00  0.00    +0.000 NA
ATOM      4  C   UNL     1       0.712   9.461  19.727  0.00  0.00    +0.000 A 
ATOM      5  C   UNL     1       0.991   8.807  20.955  0.00  0.00    +0.000 A 
ATOM      6  C   UNL     1       1.276   9.915  21.903  0.00  0.00    +0.000 C 
ATOM      7  N   UNL     1       0.339  10.965  21.429  0.00  0.00    +0.000 N 
ATOM      8  C   UNL     1      -0.608  11.308  22.371  0.00  0.00    +0.000 C 
ATOM      9  O   UNL     1      -0.717  10.673  23.425  0.00  0.00    +0.000 OA
ATOM     10  N   UNL     1      -1.376  12.424  22.148  0.00  0.00    +0.000 N 
ATOM     11  C   UNL     1       0.123  10.843  19.923  0.00  0.00    +0.000 C 
ATOM     12  C   UNL     1       0.900  11.891  19.122  0.00  0.00    +0.000 C 
ATOM     13  C   UNL     1      -1.347  10.824  19.491  0.00  0.00    +0.000 C 
ATOM     14  H   UNL     1       2.954   7.545  18.920  0.00  0.00    +0.000 HD
ATOM     15  H   UNL     1      -0.961  13.144  21.575  0.00  0.00    +0.000 HD
ENDROOT
BRANCH   1  21
ATOM     16  C   UNL     1       6.584   5.279  18.754  0.00  0.00    +0.000 C 
ATOM     17  C   UNL     1       5.220   4.818  19.138  0.00  0.00    +0.000 A 
ATOM     18  C   UNL     1       4.126   5.577  19.501  0.00  0.00    +0.000 A 
ATOM     19  C   UNL     1       2.994   4.792  19.892  0.00  0.00    +0.000 A 
ATOM     20  C   UNL     1       1.696   5.097  20.344  0.00  0.00    +0.000 A 
ATOM     21  N   UNL     1       1.077   6.354  20.445  0.00  0.00    +0.000 N 
ATOM     22  N   UNL     1       0.866   4.064  20.654  0.00  0.00    +0.000 NA
ATOM     23  C   UNL     1       1.293   2.804  20.498  0.00  0.00    +0.000 A 
ATOM     24  N   UNL     1       2.478   2.405  20.047  0.00  0.00    +0.000 NA
ATOM     25  C   UNL     1       3.289   3.439  19.766  0.00  0.00    +0.000 A 
ATOM     26  S   UNL     1       4.860   3.151  19.171  0.00  0.00    +0.000 S 
ATOM     27  H   UNL     1       0.213   6.159  20.957  0.00  0.00    +0.000 HD
ENDBRANCH   1  21
BRANCH  10  28
ATOM     28  C   UNL     1      -2.203  12.869  23.282  0.00  0.00    +0.000 C 
BRANCH  28  29
ATOM     29  C   UNL     1      -1.869  14.252  23.831  0.00  0.00    +0.000 A 
ATOM     30  C   UNL     1      -0.833  14.995  23.240  0.00  0.00    +0.000 A 
ATOM     31  C   UNL     1      -0.349  16.162  23.834  0.00  0.00    +0.000 A 
ATOM     32  C   UNL     1      -0.914  16.615  25.022  0.00  0.00    +0.000 A 
ATOM     33  C   UNL     1      -1.982  15.934  25.590  0.00  0.00    +0.000 A 
ATOM     34  C   UNL     1      -2.457  14.770  24.997  0.00  0.00    +0.000 A 
ENDBRANCH  28  29
BRANCH  28  35
ATOM     35  C   UNL     1      -3.752  12.613  23.114  0.00  0.00    +0.000 C 
BRANCH  35  36
ATOM     36  N   UNL     1      -4.531  13.429  22.152  0.00  0.00    +0.000 NA
ATOM     37  C   UNL     1      -5.117  12.640  21.074  0.00  0.00    +0.000 C 
ATOM     38  C   UNL     1      -5.595  14.151  22.858  0.00  0.00    +0.000 C 
ENDBRANCH  35  36
ENDBRANCH  28  35
ENDBRANCH  10  28
TORSDOF 5
ENDMDL
MODEL 2
REMARK VINA RESULT:      -7.9      3.505     10.092
REMARK  Name = 
REMARK  10 active torsions:
REMARK  status: ('A' for Active; 'I' for Inactive)
REMARK    1  A    between atoms: C_1  and  C_2
REMARK    2  A    between atoms: N_6  and  C_7
REMARK    3  A    between atoms: N_16  and  C_17
REMARK    4  A    between atoms: C_17  and  C_18
REMARK    5  A    between atoms: C_17  and  C_22
REMARK    6  A    between atoms: C_18  and  N_19
REMARK    7  A    between atoms: N_19  and  C_20
REMARK    8  A    between atoms: N_19  and  C_21
REMARK    9  A    between atoms: C_28  and  C_29
REMARK   10  A    between atoms: C_28  and  C_30
REMARK                            x       y       z     vdW  Elec       q    Type
REMARK                         _______ _______ _______ _____ _____    ______ ____
ROOT
ATOM      1  C   UNL     1      -1.132  10.799  18.760  0.00  0.00    +0.000 A 
ATOM      2  N   UNL     1      -1.080  11.509  19.950  0.00  0.00    +0.000 N 
ATOM      3  N   UNL     1      -0.724  10.707  20.990  0.00  0.00    +0.000 NA
ATOM      4  C   UNL     1      -0.144   9.676  20.356  0.00  0.00    +0.000 A 
ATOM      5  C   UNL     1      -0.089   9.923  18.959  0.00  0.00    +0.000 A 
ATOM      6  C   UNL     1       1.356   9.814  18.626  0.00  0.00    +0.000 C 
ATOM      7  N   UNL     1       1.797   8.738  19.549  0.00  0.00    +0.000 N 
ATOM      8  C   UNL     1       2.255   7.616  18.890  0.00  0.00    +0.000 C 
ATOM      9  O   UNL     1       2.148   7.509  17.665  0.00  0.00    +0.000 OA
ATOM     10  N   UNL     1       2.908   6.653  19.619  0.00  0.00    +0.000 N 
ATOM     11  C   UNL     1       0.970   8.767  20.831  0.00  0.00    +0.000 C 
ATOM     12  C   UNL     1       1.720   9.389  22.012  0.00  0.00    +0.000 C 
ATOM     13  C   UNL     1       0.371   7.415  21.234  0.00  0.00    +0.000 C 
ATOM     14  H   UNL     1      -1.546  12.385  20.142  0.00  0.00    +0.000 HD
ATOM     15  H   UNL     1       3.382   6.969  20.453  0.00  0.00    +0.000 HD
ENDROOT
BRANCH   1  21
ATOM     16  C   UNL     1      -3.588  14.681  22.341  0.00  0.00    +0.000 C 
ATOM     17  C   UNL     1      -3.989  13.831  21.185  0.00  0.00    +0.000 A 
ATOM     18  C   UNL     1      -3.228  12.914  20.488  0.00  0.00    +0.000 A 
ATOM     19  C   UNL     1      -3.916  12.335  19.373  0.00  0.00    +0.000 A 
ATOM     20  C   UNL     1      -3.568  11.397  18.384  0.00  0.00    +0.000 A 
ATOM     21  N   UNL     1      -2.393  10.635  18.274  0.00  0.00    +0.000 N 
ATOM     22  N   UNL     1      -4.495  11.090  17.436  0.00  0.00    +0.000 NA
ATOM     23  C   UNL     1      -5.705  11.664  17.486  0.00  0.00    +0.000 A 
ATOM     24  N   UNL     1      -6.148  12.531  18.391  0.00  0.00    +0.000 NA
ATOM     25  C   UNL     1      -5.212  12.835  19.305  0.00  0.00    +0.000 A 
ATOM     26  S   UNL     1      -5.572  13.930  20.560  0.00  0.00    +0.000 S 
ATOM     27  H   UNL     1      -2.466  10.205  17.349  0.00  0.00    +0.000 HD
ENDBRANCH   1  21
BRANCH  10  28
ATOM     28  C   UNL     1       3.570   5.597  18.835  0.00  0.00    +0.000 C 
BRANCH  28  29
ATOM     29  C   UNL     1       5.035   5.855  18.497  0.00  0.00    +0.000 A 
ATOM     30  C   UNL     1       6.036   5.354  19.346  0.00  0.00    +0.000 A 
ATOM     31  C   UNL     1       7.369   5.743  19.201  0.00  0.00    +0.000 A 
ATOM     32  C   UNL     1       7.723   6.625  18.185  0.00  0.00    +0.000 A 
ATOM     33  C   UNL     1       6.763   7.081  17.293  0.00  0.00    +0.000 A 
ATOM     34  C   UNL     1       5.436   6.695  17.444  0.00  0.00    +0.000 A 
ENDBRANCH  28  29
BRANCH  28  35
ATOM     35  C   UNL     1       3.287   4.126  19.332  0.00  0.00    +0.000 C 
BRANCH  35  36
ATOM     36  N   UNL     1       1.972   3.498  19.060  0.00  0.00    +0.000 NA
ATOM     37  C   UNL     1       0.988   3.751  20.106  0.00  0.00    +0.000 C 
ATOM     38  C   UNL     1       1.448   3.976  17.776  0.00  0.00    +0.000 C 
ENDBRANCH  35  36
ENDBRANCH  28  35
ENDBRANCH  10  28
TORSDOF 5
ENDMDL
MODEL 3
REMARK VINA RESULT:      -7.9      0.970      1.391
REMARK  Name = 
REMARK  10 active torsions:
REMARK  status: ('A' for Active; 'I' for Inactive)
REMARK    1  A    between atoms: C_1  and  C_2
REMARK    2  A    between atoms: N_6  and  C_7
REMARK    3  A    between atoms: N_16  and  C_17
REMARK    4  A    between atoms: C_17  and  C_18
REMARK    5  A    between atoms: C_17  and  C_22
REMARK    6  A    between atoms: C_18  and  N_19
REMARK    7  A    between atoms: N_19  and  C_20
REMARK    8  A    between atoms: N_19  and  C_21
REMARK    9  A    between atoms: C_28  and  C_29
REMARK   10  A    between atoms: C_28  and  C_30
REMARK                            x       y       z     vdW  Elec       q    Type
REMARK                         _______ _______ _______ _____ _____    ______ ____
ROOT
ATOM      1  C   UNL     1       1.560   7.363  20.883  0.00  0.00    +0.000 A 
ATOM      2  N   UNL     1       2.425   7.725  19.862  0.00  0.00    +0.000 N 
ATOM      3  N   UNL     1       1.847   8.623  19.019  0.00  0.00    +0.000 NA
ATOM      4  C   UNL     1       0.854   9.113  19.777  0.00  0.00    +0.000 A 
ATOM      5  C   UNL     1       0.912   8.561  21.084  0.00  0.00    +0.000 A 
ATOM      6  C   UNL     1       1.010   9.746  21.976  0.00  0.00    +0.000 C 
ATOM      7  N   UNL     1       0.163  10.733  21.259  0.00  0.00    +0.000 N 
ATOM      8  C   UNL     1      -0.943  11.123  21.985  0.00  0.00    +0.000 C 
ATOM      9  O   UNL     1      -1.235  10.569  23.049  0.00  0.00    +0.000 OA
ATOM     10  N   UNL     1      -1.669  12.200  21.538  0.00  0.00    +0.000 N 
ATOM     11  C   UNL     1       0.225  10.490  19.753  0.00  0.00    +0.000 C 
ATOM     12  C   UNL     1       1.124  11.492  19.024  0.00  0.00    +0.000 C 
ATOM     13  C   UNL     1      -1.141  10.402  19.066  0.00  0.00    +0.000 C 
ATOM     14  H   UNL     1       3.226   7.196  19.544  0.00  0.00    +0.000 HD
ATOM     15  H   UNL     1      -1.164  12.884  20.993  0.00  0.00    +0.000 HD
ENDROOT
BRANCH   1  21
ATOM     16  C   UNL     1       5.254   5.810  16.656  0.00  0.00    +0.000 C 
ATOM     17  C   UNL     1       4.232   5.165  17.527  0.00  0.00    +0.000 A 
ATOM     18  C   UNL     1       3.408   5.753  18.466  0.00  0.00    +0.000 A 
ATOM     19  C   UNL     1       2.603   4.811  19.184  0.00  0.00    +0.000 A 
ATOM     20  C   UNL     1       1.651   4.918  20.215  0.00  0.00    +0.000 A 
ATOM     21  N   UNL     1       1.115   6.079  20.796  0.00  0.00    +0.000 N 
ATOM     22  N   UNL     1       1.083   3.774  20.685  0.00  0.00    +0.000 NA
ATOM     23  C   UNL     1       1.424   2.597  20.143  0.00  0.00    +0.000 A 
ATOM     24  N   UNL     1       2.279   2.386  19.147  0.00  0.00    +0.000 NA
ATOM     25  C   UNL     1       2.843   3.525  18.712  0.00  0.00    +0.000 A 
ATOM     26  S   UNL     1       3.971   3.483  17.436  0.00  0.00    +0.000 S 
ATOM     27  H   UNL     1       0.588   5.730  21.600  0.00  0.00    +0.000 HD
ENDBRANCH   1  21
BRANCH  10  28
ATOM     28  C   UNL     1      -2.693  12.710  22.465  0.00  0.00    +0.000 C 
BRANCH  28  29
ATOM     29  C   UNL     1      -2.200  13.731  23.485  0.00  0.00    +0.000 A 
ATOM     30  C   UNL     1      -2.991  14.016  24.611  0.00  0.00    +0.000 A 
ATOM     31  C   UNL     1      -2.691  15.088  25.454  0.00  0.00    +0.000 A 
ATOM     32  C   UNL     1      -1.577  15.879  25.192  0.00  0.00    +0.000 A 
ATOM     33  C   UNL     1      -0.743  15.576  24.125  0.00  0.00    +0.000 A 
ATOM     34  C   UNL     1      -1.049  14.510  23.286  0.00  0.00    +0.000 A 
ENDBRANCH  28  29
BRANCH  28  35
ATOM     35  C   UNL     1      -4.063  13.105  21.788  0.00  0.00    +0.000 C 
BRANCH  35  36
ATOM     36  N   UNL     1      -5.288  12.330  22.102  0.00  0.00    +0.000 NA
ATOM     37  C   UNL     1      -6.128  12.968  23.109  0.00  0.00    +0.000 C 
ATOM     38  C   UNL     1      -6.072  12.122  20.880  0.00  0.00    +0.000 C 
ENDBRANCH  35  36
ENDBRANCH  28  35
ENDBRANCH  10  28
TORSDOF 5
ENDMDL
MODEL 4
REMARK VINA RESULT:      -7.8      0.754      1.078
REMARK  Name = 
REMARK  10 active torsions:
REMARK  status: ('A' for Active; 'I' for Inactive)
REMARK    1  A    between atoms: C_1  and  C_2
REMARK    2  A    between atoms: N_6  and  C_7
REMARK    3  A    between atoms: N_16  and  C_17
REMARK    4  A    between atoms: C_17  and  C_18
REMARK    5  A    between atoms: C_17  and  C_22
REMARK    6  A    between atoms: C_18  and  N_19
REMARK    7  A    between atoms: N_19  and  C_20
REMARK    8  A    between atoms: N_19  and  C_21
REMARK    9  A    between atoms: C_28  and  C_29
REMARK   10  A    between atoms: C_28  and  C_30
REMARK                            x       y       z     vdW  Elec       q    Type
REMARK                         _______ _______ _______ _____ _____    ______ ____
ROOT
ATOM      1  C   UNL     1       1.588   7.655  20.560  0.00  0.00    +0.000 A 
ATOM      2  N   UNL     1       2.300   8.025  19.429  0.00  0.00    +0.000 N 
ATOM      3  N   UNL     1       1.631   8.967  18.709  0.00  0.00    +0.000 NA
ATOM      4  C   UNL     1       0.782   9.460  19.623  0.00  0.00    +0.000 A 
ATOM      5  C   UNL     1       1.019   8.865  20.890  0.00  0.00    +0.000 A 
ATOM      6  C   UNL     1       1.290  10.017  21.789  0.00  0.00    +0.000 C 
ATOM      7  N   UNL     1       0.378  11.051  21.237  0.00  0.00    +0.000 N 
ATOM      8  C   UNL     1      -0.591  11.450  22.133  0.00  0.00    +0.000 C 
ATOM      9  O   UNL     1      -0.737  10.870  23.214  0.00  0.00    +0.000 OA
ATOM     10  N   UNL     1      -1.340  12.560  21.832  0.00  0.00    +0.000 N 
ATOM     11  C   UNL     1       0.203  10.856  19.733  0.00  0.00    +0.000 C 
ATOM     12  C   UNL     1       1.014  11.854  18.903  0.00  0.00    +0.000 C 
ATOM     13  C   UNL     1      -1.254  10.829  19.260  0.00  0.00    +0.000 C 
ATOM     14  H   UNL     1       3.024   7.484  18.978  0.00  0.00    +0.000 HD
ATOM     15  H   UNL     1      -0.901  13.247  21.236  0.00  0.00    +0.000 HD
ENDROOT
BRANCH   1  21
ATOM     16  C   UNL     1       6.544   5.225  18.701  0.00  0.00    +0.000 C 
ATOM     17  C   UNL     1       5.188   4.786  19.134  0.00  0.00    +0.000 A 
ATOM     18  C   UNL     1       4.110   5.563  19.504  0.00  0.00    +0.000 A 
ATOM     19  C   UNL     1       2.983   4.798  19.947  0.00  0.00    +0.000 A 
ATOM     20  C   UNL     1       1.700   5.125  20.424  0.00  0.00    +0.000 A 
ATOM     21  N   UNL     1       1.092   6.389  20.506  0.00  0.00    +0.000 N 
ATOM     22  N   UNL     1       0.871   4.108  20.786  0.00  0.00    +0.000 NA
ATOM     23  C   UNL     1       1.286   2.841  20.655  0.00  0.00    +0.000 A 
ATOM     24  N   UNL     1       2.456   2.421  20.184  0.00  0.00    +0.000 NA
ATOM     25  C   UNL     1       3.266   3.440  19.853  0.00  0.00    +0.000 A 
ATOM     26  S   UNL     1       4.818   3.124  19.225  0.00  0.00    +0.000 S 
ATOM     27  H   UNL     1       0.240   6.216  21.046  0.00  0.00    +0.000 HD
ENDBRANCH   1  21
BRANCH  10  28
ATOM     28  C   UNL     1      -2.194  13.070  22.919  0.00  0.00    +0.000 C 
BRANCH  28  29
ATOM     29  C   UNL     1      -1.930  14.513  23.335  0.00  0.00    +0.000 A 
ATOM     30  C   UNL     1      -1.520  14.785  24.652  0.00  0.00    +0.000 A 
ATOM     31  C   UNL     1      -1.474  16.093  25.140  0.00  0.00    +0.000 A 
ATOM     32  C   UNL     1      -1.818  17.152  24.305  0.00  0.00    +0.000 A 
ATOM     33  C   UNL     1      -2.162  16.913  22.982  0.00  0.00    +0.000 A 
ATOM     34  C   UNL     1      -2.211  15.609  22.503  0.00  0.00    +0.000 A 
ENDBRANCH  28  29
BRANCH  28  35
ATOM     35  C   UNL     1      -3.728  12.726  22.774  0.00  0.00    +0.000 C 
BRANCH  35  36
ATOM     36  N   UNL     1      -4.691  13.219  23.788  0.00  0.00    +0.000 NA
ATOM     37  C   UNL     1      -6.051  13.342  23.277  0.00  0.00    +0.000 C 
ATOM     38  C   UNL     1      -4.690  12.325  24.952  0.00  0.00    +0.000 C 
ENDBRANCH  35  36
ENDBRANCH  28  35
ENDBRANCH  10  28
TORSDOF 5
ENDMDL
MODEL 5
REMARK VINA RESULT:      -7.8      3.474     10.556
REMARK  Name = 
REMARK  10 active torsions:
REMARK  status: ('A' for Active; 'I' for Inactive)
REMARK    1  A    between atoms: C_1  and  C_2
REMARK    2  A    between atoms: N_6  and  C_7
REMARK    3  A    between atoms: N_16  and  C_17
REMARK    4  A    between atoms: C_17  and  C_18
REMARK    5  A    between atoms: C_17  and  C_22
REMARK    6  A    between atoms: C_18  and  N_19
REMARK    7  A    between atoms: N_19  and  C_20
REMARK    8  A    between atoms: N_19  and  C_21
REMARK    9  A    between atoms: C_28  and  C_29
REMARK   10  A    between atoms: C_28  and  C_30
REMARK                            x       y       z     vdW  Elec       q    Type
REMARK                         _______ _______ _______ _____ _____    ______ ____
ROOT
ATOM      1  C   UNL     1       0.083  12.735  21.034  0.00  0.00    +0.000 A 
ATOM      2  N   UNL     1      -0.930  13.032  20.135  0.00  0.00    +0.000 N 
ATOM      3  N   UNL     1      -0.701  12.456  18.923  0.00  0.00    +0.000 NA
ATOM      4  C   UNL     1       0.171  11.487  19.240  0.00  0.00    +0.000 A 
ATOM      5  C   UNL     1       0.379  11.448  20.643  0.00  0.00    +0.000 A 
ATOM      6  C   UNL     1       0.023  10.056  21.026  0.00  0.00    +0.000 C 
ATOM      7  N   UNL     1       0.494   9.290  19.844  0.00  0.00    +0.000 N 
ATOM      8  C   UNL     1       1.499   8.396  20.147  0.00  0.00    +0.000 C 
ATOM      9  O   UNL     1       2.022   8.379  21.265  0.00  0.00    +0.000 OA
ATOM     10  N   UNL     1       1.851   7.466  19.200  0.00  0.00    +0.000 N 
ATOM     11  C   UNL     1       0.380  10.139  18.582  0.00  0.00    +0.000 C 
ATOM     12  C   UNL     1      -0.823   9.759  17.714  0.00  0.00    +0.000 C 
ATOM     13  C   UNL     1       1.653  10.191  17.732  0.00  0.00    +0.000 C 
ATOM     14  H   UNL     1      -1.571  13.811  20.197  0.00  0.00    +0.000 HD
ATOM     15  H   UNL     1       1.131   7.201  18.544  0.00  0.00    +0.000 HD
ENDROOT
BRANCH   1  21
ATOM     16  C   UNL     1      -4.103  15.629  23.867  0.00  0.00    +0.000 C 
ATOM     17  C   UNL     1      -2.645  15.771  23.597  0.00  0.00    +0.000 A 
ATOM     18  C   UNL     1      -1.829  14.962  22.834  0.00  0.00    +0.000 A 
ATOM     19  C   UNL     1      -0.451  15.352  22.864  0.00  0.00    +0.000 A 
ATOM     20  C   UNL     1       0.725  14.848  22.280  0.00  0.00    +0.000 A 
ATOM     21  N   UNL     1       0.865  13.802  21.352  0.00  0.00    +0.000 N 
ATOM     22  N   UNL     1       1.900  15.480  22.555  0.00  0.00    +0.000 NA
ATOM     23  C   UNL     1       1.897  16.564  23.341  0.00  0.00    +0.000 A 
ATOM     24  N   UNL     1       0.845  17.143  23.913  0.00  0.00    +0.000 NA
ATOM     25  C   UNL     1      -0.300  16.492  23.646  0.00  0.00    +0.000 A 
ATOM     26  S   UNL     1      -1.773  17.068  24.280  0.00  0.00    +0.000 S 
ATOM     27  H   UNL     1       1.875  13.650  21.306  0.00  0.00    +0.000 HD
ENDBRANCH   1  21
BRANCH  10  28
ATOM     28  C   UNL     1       2.762   6.401  19.656  0.00  0.00    +0.000 C 
BRANCH  28  29
ATOM     29  C   UNL     1       2.091   5.084  20.028  0.00  0.00    +0.000 A 
ATOM     30  C   UNL     1       2.281   4.554  21.316  0.00  0.00    +0.000 A 
ATOM     31  C   UNL     1       1.870   3.258  21.634  0.00  0.00    +0.000 A 
ATOM     32  C   UNL     1       1.240   2.479  20.669  0.00  0.00    +0.000 A 
ATOM     33  C   UNL     1       0.982   3.004  19.410  0.00  0.00    +0.000 A 
ATOM     34  C   UNL     1       1.397   4.293  19.097  0.00  0.00    +0.000 A 
ENDBRANCH  28  29
BRANCH  28  35
ATOM     35  C   UNL     1       4.063   6.222  18.781  0.00  0.00    +0.000 C 
BRANCH  35  36
ATOM     36  N   UNL     1       4.912   5.019  18.964  0.00  0.00    +0.000 NA
ATOM     37  C   UNL     1       4.861   4.104  17.831  0.00  0.00    +0.000 C 
ATOM     38  C   UNL     1       6.302   5.423  19.200  0.00  0.00    +0.000 C 
ENDBRANCH  35  36
ENDBRANCH  28  35
ENDBRANCH  10  28
TORSDOF 5
ENDMDL
MODEL 6
REMARK VINA RESULT:      -7.7      1.735      2.042
REMARK  Name = 
REMARK  10 active torsions:
REMARK  status: ('A' for Active; 'I' for Inactive)
REMARK    1  A    between atoms: C_1  and  C_2
REMARK    2  A    between atoms: N_6  and  C_7
REMARK    3  A    between atoms: N_16  and  C_17
REMARK    4  A    between atoms: C_17  and  C_18
REMARK    5  A    between atoms: C_17  and  C_22
REMARK    6  A    between atoms: C_18  and  N_19
REMARK    7  A    between atoms: N_19  and  C_20
REMARK    8  A    between atoms: N_19  and  C_21
REMARK    9  A    between atoms: C_28  and  C_29
REMARK   10  A    between atoms: C_28  and  C_30
REMARK                            x       y       z     vdW  Elec       q    Type
REMARK                         _______ _______ _______ _____ _____    ______ ____
ROOT
ATOM      1  C   UNL     1       1.972   8.256  18.922  0.00  0.00    +0.000 A 
ATOM      2  N   UNL     1       2.743   9.006  18.046  0.00  0.00    +0.000 N 
ATOM      3  N   UNL     1       2.043  10.063  17.551  0.00  0.00    +0.000 NA
ATOM      4  C   UNL     1       1.058  10.188  18.454  0.00  0.00    +0.000 A 
ATOM      5  C   UNL     1       1.238   9.260  19.513  0.00  0.00    +0.000 A 
ATOM      6  C   UNL     1       1.286  10.106  20.734  0.00  0.00    +0.000 C 
ATOM      7  N   UNL     1       0.319  11.181  20.394  0.00  0.00    +0.000 N 
ATOM      8  C   UNL     1      -0.773  11.210  21.237  0.00  0.00    +0.000 C 
ATOM      9  O   UNL     1      -0.955  10.323  22.076  0.00  0.00    +0.000 OA
ATOM     10  N   UNL     1      -1.612  12.295  21.178  0.00  0.00    +0.000 N 
ATOM     11  C   UNL     1       0.314  11.433  18.889  0.00  0.00    +0.000 C 
ATOM     12  C   UNL     1       1.082  12.698  18.494  0.00  0.00    +0.000 C 
ATOM     13  C   UNL     1      -1.077  11.432  18.247  0.00  0.00    +0.000 C 
ATOM     14  H   UNL     1       3.566   8.687  17.554  0.00  0.00    +0.000 HD
ATOM     15  H   UNL     1      -1.199  13.163  20.867  0.00  0.00    +0.000 HD
ENDROOT
BRANCH   1  21
ATOM     16  C   UNL     1       7.379   6.808  17.312  0.00  0.00    +0.000 C 
ATOM     17  C   UNL     1       6.034   6.171  17.378  0.00  0.00    +0.000 A 
ATOM     18  C   UNL     1       4.835   6.734  17.763  0.00  0.00    +0.000 A 
ATOM     19  C   UNL     1       3.750   5.799  17.787  0.00  0.00    +0.000 A 
ATOM     20  C   UNL     1       2.385   5.887  18.116  0.00  0.00    +0.000 A 
ATOM     21  N   UNL     1       1.633   7.029  18.441  0.00  0.00    +0.000 N 
ATOM     22  N   UNL     1       1.632   4.755  18.043  0.00  0.00    +0.000 NA
ATOM     23  C   UNL     1       2.200   3.611  17.638  0.00  0.00    +0.000 A 
ATOM     24  N   UNL     1       3.464   3.425  17.271  0.00  0.00    +0.000 NA
ATOM     25  C   UNL     1       4.193   4.549  17.370  0.00  0.00    +0.000 A 
ATOM     26  S   UNL     1       5.843   4.533  16.946  0.00  0.00    +0.000 S 
ATOM     27  H   UNL     1       0.740   6.650  18.764  0.00  0.00    +0.000 HD
ENDBRANCH   1  21
BRANCH  10  28
ATOM     28  C   UNL     1      -2.621  12.383  22.248  0.00  0.00    +0.000 C 
BRANCH  28  29
ATOM     29  C   UNL     1      -2.308  13.378  23.360  0.00  0.00    +0.000 A 
ATOM     30  C   UNL     1      -3.295  13.675  24.316  0.00  0.00    +0.000 A 
ATOM     31  C   UNL     1      -3.136  14.730  25.218  0.00  0.00    +0.000 A 
ATOM     32  C   UNL     1      -1.971  15.490  25.189  0.00  0.00    +0.000 A 
ATOM     33  C   UNL     1      -0.954  15.174  24.299  0.00  0.00    +0.000 A 
ATOM     34  C   UNL     1      -1.120  14.126  23.401  0.00  0.00    +0.000 A 
ENDBRANCH  28  29
BRANCH  28  35
ATOM     35  C   UNL     1      -4.116  12.446  21.747  0.00  0.00    +0.000 C 
BRANCH  35  36
ATOM     36  N   UNL     1      -4.439  13.160  20.488  0.00  0.00    +0.000 NA
ATOM     37  C   UNL     1      -5.427  12.466  19.671  0.00  0.00    +0.000 C 
ATOM     38  C   UNL     1      -4.926  14.510  20.793  0.00  0.00    +0.000 C 
ENDBRANCH  35  36
ENDBRANCH  28  35
ENDBRANCH  10  28
TORSDOF 5
ENDMDL
MODEL 7
REMARK VINA RESULT:      -7.6      1.084      1.258
REMARK  Name = 
REMARK  10 active torsions:
REMARK  status: ('A' for Active; 'I' for Inactive)
REMARK    1  A    between atoms: C_1  and  C_2
REMARK    2  A    between atoms: N_6  and  C_7
REMARK    3  A    between atoms: N_16  and  C_17
REMARK    4  A    between atoms: C_17  and  C_18
REMARK    5  A    between atoms: C_17  and  C_22
REMARK    6  A    between atoms: C_18  and  N_19
REMARK    7  A    between atoms: N_19  and  C_20
REMARK    8  A    between atoms: N_19  and  C_21
REMARK    9  A    between atoms: C_28  and  C_29
REMARK   10  A    between atoms: C_28  and  C_30
REMARK                            x       y       z     vdW  Elec       q    Type
REMARK                         _______ _______ _______ _____ _____    ______ ____
ROOT
ATOM      1  C   UNL     1       1.613   7.421  20.818  0.00  0.00    +0.000 A 
ATOM      2  N   UNL     1       2.393   7.736  19.715  0.00  0.00    +0.000 N 
ATOM      3  N   UNL     1       1.757   8.616  18.894  0.00  0.00    +0.000 NA
ATOM      4  C   UNL     1       0.839   9.145  19.717  0.00  0.00    +0.000 A 
ATOM      5  C   UNL     1       1.001   8.635  21.032  0.00  0.00    +0.000 A 
ATOM      6  C   UNL     1       1.189   9.846  21.872  0.00  0.00    +0.000 C 
ATOM      7  N   UNL     1       0.297  10.823  21.197  0.00  0.00    +0.000 N 
ATOM      8  C   UNL     1      -0.737  11.254  22.001  0.00  0.00    +0.000 C 
ATOM      9  O   UNL     1      -0.945  10.739  23.104  0.00  0.00    +0.000 OA
ATOM     10  N   UNL     1      -1.485  12.326  21.582  0.00  0.00    +0.000 N 
ATOM     11  C   UNL     1       0.228  10.531  19.701  0.00  0.00    +0.000 C 
ATOM     12  C   UNL     1       1.075  11.495  18.865  0.00  0.00    +0.000 C 
ATOM     13  C   UNL     1      -1.193  10.442  19.135  0.00  0.00    +0.000 C 
ATOM     14  H   UNL     1       3.157   7.185  19.348  0.00  0.00    +0.000 HD
ATOM     15  H   UNL     1      -1.020  12.985  20.973  0.00  0.00    +0.000 HD
ENDROOT
BRANCH   1  21
ATOM     16  C   UNL     1       5.096   5.608  16.515  0.00  0.00    +0.000 C 
ATOM     17  C   UNL     1       4.104   5.022  17.459  0.00  0.00    +0.000 A 
ATOM     18  C   UNL     1       3.330   5.667  18.403  0.00  0.00    +0.000 A 
ATOM     19  C   UNL     1       2.543   4.774  19.199  0.00  0.00    +0.000 A 
ATOM     20  C   UNL     1       1.639   4.946  20.264  0.00  0.00    +0.000 A 
ATOM     21  N   UNL     1       1.146   6.142  20.811  0.00  0.00    +0.000 N 
ATOM     22  N   UNL     1       1.075   3.835  20.812  0.00  0.00    +0.000 NA
ATOM     23  C   UNL     1       1.374   2.628  20.313  0.00  0.00    +0.000 A 
ATOM     24  N   UNL     1       2.182   2.356  19.292  0.00  0.00    +0.000 NA
ATOM     25  C   UNL     1       2.743   3.464  18.779  0.00  0.00    +0.000 A 
ATOM     26  S   UNL     1       3.814   3.342  17.460  0.00  0.00    +0.000 S 
ATOM     27  H   UNL     1       0.650   5.840  21.652  0.00  0.00    +0.000 HD
ENDBRANCH   1  21
BRANCH  10  28
ATOM     28  C   UNL     1      -2.420  12.882  22.575  0.00  0.00    +0.000 C 
BRANCH  28  29
ATOM     29  C   UNL     1      -2.109  14.300  23.042  0.00  0.00    +0.000 A 
ATOM     30  C   UNL     1      -2.403  15.383  22.196  0.00  0.00    +0.000 A 
ATOM     31  C   UNL     1      -1.944  16.671  22.483  0.00  0.00    +0.000 A 
ATOM     32  C   UNL     1      -1.202  16.896  23.638  0.00  0.00    +0.000 A 
ATOM     33  C   UNL     1      -0.956  15.855  24.522  0.00  0.00    +0.000 A 
ATOM     34  C   UNL     1      -1.411  14.574  24.230  0.00  0.00    +0.000 A 
ENDBRANCH  28  29
BRANCH  28  35
ATOM     35  C   UNL     1      -3.947  12.643  22.255  0.00  0.00    +0.000 C 
BRANCH  35  36
ATOM     36  N   UNL     1      -4.927  12.562  23.365  0.00  0.00    +0.000 NA
ATOM     37  C   UNL     1      -4.307  12.300  24.659  0.00  0.00    +0.000 C 
ATOM     38  C   UNL     1      -5.698  13.807  23.441  0.00  0.00    +0.000 C 
ENDBRANCH  35  36
ENDBRANCH  28  35
ENDBRANCH  10  28
TORSDOF 5
ENDMDL
MODEL 8
REMARK VINA RESULT:      -7.6      3.325     10.272
REMARK  Name = 
REMARK  10 active torsions:
REMARK  status: ('A' for Active; 'I' for Inactive)
REMARK    1  A    between atoms: C_1  and  C_2
REMARK    2  A    between atoms: N_6  and  C_7
REMARK    3  A    between atoms: N_16  and  C_17
REMARK    4  A    between atoms: C_17  and  C_18
REMARK    5  A    between atoms: C_17  and  C_22
REMARK    6  A    between atoms: C_18  and  N_19
REMARK    7  A    between atoms: N_19  and  C_20
REMARK    8  A    between atoms: N_19  and  C_21
REMARK    9  A    between atoms: C_28  and  C_29
REMARK   10  A    between atoms: C_28  and  C_30
REMARK                            x       y       z     vdW  Elec       q    Type
REMARK                         _______ _______ _______ _____ _____    ______ ____
ROOT
ATOM      1  C   UNL     1      -1.283  11.466  19.558  0.00  0.00    +0.000 A 
ATOM      2  N   UNL     1      -1.123  11.899  20.865  0.00  0.00    +0.000 N 
ATOM      3  N   UNL     1      -0.755  10.875  21.684  0.00  0.00    +0.000 NA
ATOM      4  C   UNL     1      -0.273   9.981  20.806  0.00  0.00    +0.000 A 
ATOM      5  C   UNL     1      -0.283  10.522  19.494  0.00  0.00    +0.000 A 
ATOM      6  C   UNL     1       1.131  10.424  19.048  0.00  0.00    +0.000 C 
ATOM      7  N   UNL     1       1.561   9.155  19.688  0.00  0.00    +0.000 N 
ATOM      8  C   UNL     1       1.915   8.183  18.776  0.00  0.00    +0.000 C 
ATOM      9  O   UNL     1       1.732   8.348  17.566  0.00  0.00    +0.000 OA
ATOM     10  N   UNL     1       2.551   7.057  19.236  0.00  0.00    +0.000 N 
ATOM     11  C   UNL     1       0.811   8.942  21.000  0.00  0.00    +0.000 C 
ATOM     12  C   UNL     1       1.663   9.260  22.232  0.00  0.00    +0.000 C 
ATOM     13  C   UNL     1       0.159   7.563  21.145  0.00  0.00    +0.000 C 
ATOM     14  H   UNL     1      -1.526  12.732  21.271  0.00  0.00    +0.000 HD
ATOM     15  H   UNL     1       3.090   7.164  20.084  0.00  0.00    +0.000 HD
ENDROOT
BRANCH   1  21
ATOM     16  C   UNL     1      -3.272  14.736  23.949  0.00  0.00    +0.000 C 
ATOM     17  C   UNL     1      -3.792  14.142  22.685  0.00  0.00    +0.000 A 
ATOM     18  C   UNL     1      -3.134  13.332  21.782  0.00  0.00    +0.000 A 
ATOM     19  C   UNL     1      -3.919  13.013  20.628  0.00  0.00    +0.000 A 
ATOM     20  C   UNL     1      -3.691  12.259  19.462  0.00  0.00    +0.000 A 
ATOM     21  N   UNL     1      -2.577  11.467  19.135  0.00  0.00    +0.000 N 
ATOM     22  N   UNL     1      -4.687  12.188  18.537  0.00  0.00    +0.000 NA
ATOM     23  C   UNL     1      -5.850  12.810  18.773  0.00  0.00    +0.000 A 
ATOM     24  N   UNL     1      -6.184  13.515  19.849  0.00  0.00    +0.000 NA
ATOM     25  C   UNL     1      -5.180  13.588  20.739  0.00  0.00    +0.000 A 
ATOM     26  S   UNL     1      -5.397  14.446  22.196  0.00  0.00    +0.000 S 
ATOM     27  H   UNL     1      -2.730  11.223  18.154  0.00  0.00    +0.000 HD
ENDBRANCH   1  21
BRANCH  10  28
ATOM     28  C   UNL     1       3.105   6.167  18.201  0.00  0.00    +0.000 C 
BRANCH  28  29
ATOM     29  C   UNL     1       4.628   6.114  18.133  0.00  0.00    +0.000 A 
ATOM     30  C   UNL     1       5.337   5.409  19.120  0.00  0.00    +0.000 A 
ATOM     31  C   UNL     1       6.727   5.510  19.224  0.00  0.00    +0.000 A 
ATOM     32  C   UNL     1       7.429   6.304  18.323  0.00  0.00    +0.000 A 
ATOM     33  C   UNL     1       6.757   6.956  17.299  0.00  0.00    +0.000 A 
ATOM     34  C   UNL     1       5.374   6.857  17.202  0.00  0.00    +0.000 A 
ENDBRANCH  28  29
BRANCH  28  35
ATOM     35  C   UNL     1       2.420   4.748  18.111  0.00  0.00    +0.000 C 
BRANCH  35  36
ATOM     36  N   UNL     1       2.327   3.898  19.323  0.00  0.00    +0.000 NA
ATOM     37  C   UNL     1       0.971   3.798  19.850  0.00  0.00    +0.000 C 
ATOM     38  C   UNL     1       2.832   2.553  19.027  0.00  0.00    +0.000 C 
ENDBRANCH  35  36
ENDBRANCH  28  35
ENDBRANCH  10  28
TORSDOF 5
ENDMDL
MODEL 9
REMARK VINA RESULT:      -7.6      3.426     10.259
REMARK  Name = 
REMARK  10 active torsions:
REMARK  status: ('A' for Active; 'I' for Inactive)
REMARK    1  A    between atoms: C_1  and  C_2
REMARK    2  A    between atoms: N_6  and  C_7
REMARK    3  A    between atoms: N_16  and  C_17
REMARK    4  A    between atoms: C_17  and  C_18
REMARK    5  A    between atoms: C_17  and  C_22
REMARK    6  A    between atoms: C_18  and  N_19
REMARK    7  A    between atoms: N_19  and  C_20
REMARK    8  A    between atoms: N_19  and  C_21
REMARK    9  A    between atoms: C_28  and  C_29
REMARK   10  A    between atoms: C_28  and  C_30
REMARK                            x       y       z     vdW  Elec       q    Type
REMARK                         _______ _______ _______ _____ _____    ______ ____
ROOT
ATOM      1  C   UNL     1      -1.309  11.212  19.113  0.00  0.00    +0.000 A 
ATOM      2  N   UNL     1      -1.234  11.778  20.377  0.00  0.00    +0.000 N 
ATOM      3  N   UNL     1      -0.893  10.852  21.314  0.00  0.00    +0.000 NA
ATOM      4  C   UNL     1      -0.341   9.888  20.561  0.00  0.00    +0.000 A 
ATOM      5  C   UNL     1      -0.286  10.294  19.202  0.00  0.00    +0.000 A 
ATOM      6  C   UNL     1       1.154  10.191  18.848  0.00  0.00    +0.000 C 
ATOM      7  N   UNL     1       1.573   9.005  19.637  0.00  0.00    +0.000 N 
ATOM      8  C   UNL     1       2.001   7.956  18.849  0.00  0.00    +0.000 C 
ATOM      9  O   UNL     1       1.886   7.994  17.621  0.00  0.00    +0.000 OA
ATOM     10  N   UNL     1       2.634   6.901  19.457  0.00  0.00    +0.000 N 
ATOM     11  C   UNL     1       0.753   8.904  20.920  0.00  0.00    +0.000 C 
ATOM     12  C   UNL     1       1.524   9.368  22.159  0.00  0.00    +0.000 C 
ATOM     13  C   UNL     1       0.124   7.530  21.168  0.00  0.00    +0.000 C 
ATOM     14  H   UNL     1      -1.678  12.636  20.672  0.00  0.00    +0.000 HD
ATOM     15  H   UNL     1       3.120   7.107  20.318  0.00  0.00    +0.000 HD
ENDROOT
BRANCH   1  21
ATOM     16  C   UNL     1      -3.634  14.796  23.072  0.00  0.00    +0.000 C 
ATOM     17  C   UNL     1      -4.064  14.075  21.841  0.00  0.00    +0.000 A 
ATOM     18  C   UNL     1      -3.334  13.209  21.053  0.00  0.00    +0.000 A 
ATOM     19  C   UNL     1      -4.042  12.764  19.890  0.00  0.00    +0.000 A 
ATOM     20  C   UNL     1      -3.726  11.917  18.812  0.00  0.00    +0.000 A 
ATOM     21  N   UNL     1      -2.575  11.134  18.621  0.00  0.00    +0.000 N 
ATOM     22  N   UNL     1      -4.665  11.733  17.843  0.00  0.00    +0.000 NA
ATOM     23  C   UNL     1      -5.856  12.336  17.956  0.00  0.00    +0.000 A 
ATOM     24  N   UNL     1      -6.270  13.123  18.945  0.00  0.00    +0.000 NA
ATOM     25  C   UNL     1      -5.322  13.307  19.879  0.00  0.00    +0.000 A 
ATOM     26  S   UNL     1      -5.645  14.284  21.237  0.00  0.00    +0.000 S 
ATOM     27  H   UNL     1      -2.664  10.800  17.658  0.00  0.00    +0.000 HD
ENDBRANCH   1  21
BRANCH  10  28
ATOM     28  C   UNL     1       3.267   5.927  18.551  0.00  0.00    +0.000 C 
BRANCH  28  29
ATOM     29  C   UNL     1       4.779   6.059  18.404  0.00  0.00    +0.000 A 
ATOM     30  C   UNL     1       5.304   6.784  17.320  0.00  0.00    +0.000 A 
ATOM     31  C   UNL     1       6.668   6.754  17.022  0.00  0.00    +0.000 A 
ATOM     32  C   UNL     1       7.531   6.012  17.821  0.00  0.00    +0.000 A 
ATOM     33  C   UNL     1       7.046   5.342  18.936  0.00  0.00    +0.000 A 
ATOM     34  C   UNL     1       5.687   5.371  19.226  0.00  0.00    +0.000 A 
ENDBRANCH  28  29
BRANCH  28  35
ATOM     35  C   UNL     1       2.779   4.437  18.733  0.00  0.00    +0.000 C 
BRANCH  35  36
ATOM     36  N   UNL     1       2.463   3.927  20.090  0.00  0.00    +0.000 NA
ATOM     37  C   UNL     1       1.044   3.659  20.287  0.00  0.00    +0.000 C 
ATOM     38  C   UNL     1       3.228   2.703  20.352  0.00  0.00    +0.000 C 
ENDBRANCH  35  36
ENDBRANCH  28  35
ENDBRANCH  10  28
TORSDOF 5
ENDMDL
