MODEL 1
REMARK VINA RESULT:      -7.8      0.000      0.000
REMARK  Name = 
REMARK  2 active torsions:
REMARK  status: ('A' for Active; 'I' for Inactive)
REMARK    1  A    between atoms: C_4  and  O_5
REMARK    2  A    between atoms: N_9  and  C_10
REMARK                            x       y       z     vdW  Elec       q    Type
REMARK                         _______ _______ _______ _____ _____    ______ ____
ROOT
ATOM      1  N   UNL     1       8.247   5.559  20.099  0.00  0.00    +0.000 N 
ATOM      2  C   UNL     1       7.359   5.210  19.101  0.00  0.00    +0.000 A 
ATOM      3  N   UNL     1       7.856   5.168  17.853  0.00  0.00    +0.000 NA
ATOM      4  C   UNL     1       7.026   4.787  16.863  0.00  0.00    +0.000 A 
ATOM      5  C   UNL     1       5.701   4.457  17.118  0.00  0.00    +0.000 A 
ATOM      6  N   UNL     1       4.650   4.022  16.344  0.00  0.00    +0.000 NA
ATOM      7  C   UNL     1       3.652   3.854  17.191  0.00  0.00    +0.000 A 
ATOM      8  N   UNL     1       4.009   4.172  18.474  0.00  0.00    +0.000 N 
ATOM      9  C   UNL     1       5.322   4.569  18.446  0.00  0.00    +0.000 A 
ATOM     10  N   UNL     1       6.096   4.952  19.476  0.00  0.00    +0.000 NA
ATOM     11  H   UNL     1       9.030   6.075  19.725  0.00  0.00    +0.000 HD
ATOM     12  H   UNL     1       7.766   5.942  20.899  0.00  0.00    +0.000 HD
ENDROOT
BRANCH   8  13
ATOM     13  C   UNL     1       3.197   4.053  19.659  0.00  0.00    +0.000 C 
ATOM     14  C   UNL     1       1.685   4.092  19.440  0.00  0.00    +0.000 C 
ATOM     15  C   UNL     1       1.141   3.682  20.806  0.00  0.00    +0.000 C 
ATOM     16  C   UNL     1       2.186   2.731  21.398  0.00  0.00    +0.000 C 
ATOM     17  C   UNL     1       3.367   2.742  20.429  0.00  0.00    +0.000 C 
ENDBRANCH   8  13
BRANCH   4  18
ATOM     18  O   UNL     1       7.601   4.729  15.624  0.00  0.00    +0.000 OA
ATOM     19  H   UNL     1       7.957   3.825  15.631  0.00  0.00    +0.000 HD
ENDBRANCH   4  18
TORSDOF 2
ENDMDL
MODEL 2
REMARK VINA RESULT:      -7.3      1.441      1.444
REMARK  Name = 
REMARK  2 active torsions:
REMARK  status: ('A' for Active; 'I' for Inactive)
REMARK    1  A    between atoms: C_4  and  O_5
REMARK    2  A    between atoms: N_9  and  C_10
REMARK                            x       y       z     vdW  Elec       q    Type
REMARK                         _______ _______ _______ _____ _____    ______ ____
ROOT
ATOM      1  N   UNL     1       8.507   5.207  20.602  0.00  0.00    +0.000 N 
ATOM      2  C   UNL     1       7.575   5.527  19.636  0.00  0.00    +0.000 A 
ATOM      3  N   UNL     1       8.027   6.235  18.587  0.00  0.00    +0.000 NA
ATOM      4  C   UNL     1       7.152   6.525  17.604  0.00  0.00    +0.000 A 
ATOM      5  C   UNL     1       5.827   6.116  17.675  0.00  0.00    +0.000 A 
ATOM      6  N   UNL     1       4.737   6.235  16.844  0.00  0.00    +0.000 NA
ATOM      7  C   UNL     1       3.763   5.601  17.469  0.00  0.00    +0.000 A 
ATOM      8  N   UNL     1       4.173   5.089  18.671  0.00  0.00    +0.000 N 
ATOM      9  C   UNL     1       5.496   5.416  18.824  0.00  0.00    +0.000 A 
ATOM     10  N   UNL     1       6.317   5.104  19.842  0.00  0.00    +0.000 NA
ATOM     11  H   UNL     1       9.294   5.839  20.573  0.00  0.00    +0.000 HD
ATOM     12  H   UNL     1       8.066   5.040  21.494  0.00  0.00    +0.000 HD
ENDROOT
BRANCH   8  13
ATOM     13  C   UNL     1       3.399   4.291  19.588  0.00  0.00    +0.000 C 
ATOM     14  C   UNL     1       2.217   4.995  20.254  0.00  0.00    +0.000 C 
ATOM     15  C   UNL     1       1.477   3.842  20.924  0.00  0.00    +0.000 C 
ATOM     16  C   UNL     1       1.725   2.619  20.034  0.00  0.00    +0.000 C 
ATOM     17  C   UNL     1       2.723   3.067  18.968  0.00  0.00    +0.000 C 
ENDBRANCH   8  13
BRANCH   4  18
ATOM     18  O   UNL     1       7.683   7.214  16.549  0.00  0.00    +0.000 OA
ATOM     19  H   UNL     1       8.621   7.234  16.799  0.00  0.00    +0.000 HD
ENDBRANCH   4  18
TORSDOF 2
ENDMDL
MODEL 3
REMARK VINA RESULT:      -7.0      1.678      3.025
REMARK  Name = 
REMARK  2 active torsions:
REMARK  status: ('A' for Active; 'I' for Inactive)
REMARK    1  A    between atoms: C_4  and  O_5
REMARK    2  A    between atoms: N_9  and  C_10
REMARK                            x       y       z     vdW  Elec       q    Type
REMARK                         _______ _______ _______ _____ _____    ______ ____
ROOT
ATOM      1  N   UNL     1       6.341   3.683  13.861  0.00  0.00    +0.000 N 
ATOM      2  C   UNL     1       6.296   4.274  15.108  0.00  0.00    +0.000 A 
ATOM      3  N   UNL     1       7.125   5.315  15.300  0.00  0.00    +0.000 NA
ATOM      4  C   UNL     1       7.074   5.942  16.492  0.00  0.00    +0.000 A 
ATOM      5  C   UNL     1       6.203   5.525  17.490  0.00  0.00    +0.000 A 
ATOM      6  N   UNL     1       5.912   5.965  18.761  0.00  0.00    +0.000 NA
ATOM      7  C   UNL     1       4.961   5.157  19.190  0.00  0.00    +0.000 A 
ATOM      8  N   UNL     1       4.633   4.210  18.258  0.00  0.00    +0.000 N 
ATOM      9  C   UNL     1       5.427   4.425  17.160  0.00  0.00    +0.000 A 
ATOM     10  N   UNL     1       5.437   3.751  15.997  0.00  0.00    +0.000 NA
ATOM     11  H   UNL     1       7.220   3.871  13.400  0.00  0.00    +0.000 HD
ATOM     12  H   UNL     1       6.020   2.727  13.898  0.00  0.00    +0.000 HD
ENDROOT
BRANCH   8  13
ATOM     13  C   UNL     1       3.602   3.207  18.359  0.00  0.00    +0.000 C 
ATOM     14  C   UNL     1       3.244   2.758  19.776  0.00  0.00    +0.000 C 
ATOM     15  C   UNL     1       1.983   1.929  19.553  0.00  0.00    +0.000 C 
ATOM     16  C   UNL     1       1.285   2.557  18.342  0.00  0.00    +0.000 C 
ATOM     17  C   UNL     1       2.237   3.626  17.811  0.00  0.00    +0.000 C 
ENDBRANCH   8  13
BRANCH   4  18
ATOM     18  O   UNL     1       7.913   7.014  16.612  0.00  0.00    +0.000 OA
ATOM     19  H   UNL     1       8.753   6.620  16.324  0.00  0.00    +0.000 HD
ENDBRANCH   4  18
TORSDOF 2
ENDMDL
MODEL 4
REMARK VINA RESULT:      -6.9      2.948      5.334
REMARK  Name = 
REMARK  2 active torsions:
REMARK  status: ('A' for Active; 'I' for Inactive)
REMARK    1  A    between atoms: C_4  and  O_5
REMARK    2  A    between atoms: N_9  and  C_10
REMARK                            x       y       z     vdW  Elec       q    Type
REMARK                         _______ _______ _______ _____ _____    ______ ____
ROOT
ATOM      1  N   UNL     1       3.990   0.614  18.546  0.00  0.00    +0.000 N 
ATOM      2  C   UNL     1       3.471   1.881  18.724  0.00  0.00    +0.000 A 
ATOM      3  N   UNL     1       2.215   1.947  19.197  0.00  0.00    +0.000 NA
ATOM      4  C   UNL     1       1.696   3.169  19.424  0.00  0.00    +0.000 A 
ATOM      5  C   UNL     1       2.428   4.322  19.170  0.00  0.00    +0.000 A 
ATOM      6  N   UNL     1       2.187   5.669  19.319  0.00  0.00    +0.000 NA
ATOM      7  C   UNL     1       3.300   6.258  18.926  0.00  0.00    +0.000 A 
ATOM      8  N   UNL     1       4.244   5.353  18.519  0.00  0.00    +0.000 N 
ATOM      9  C   UNL     1       3.698   4.103  18.662  0.00  0.00    +0.000 A 
ATOM     10  N   UNL     1       4.269   2.913  18.405  0.00  0.00    +0.000 NA
ATOM     11  H   UNL     1       3.254  -0.070  18.450  0.00  0.00    +0.000 HD
ATOM     12  H   UNL     1       4.729   0.614  17.860  0.00  0.00    +0.000 HD
ENDROOT
BRANCH   8  13
ATOM     13  C   UNL     1       5.590   5.633  18.085  0.00  0.00    +0.000 C 
ATOM     14  C   UNL     1       5.817   7.009  17.459  0.00  0.00    +0.000 C 
ATOM     15  C   UNL     1       7.338   7.083  17.365  0.00  0.00    +0.000 C 
ATOM     16  C   UNL     1       7.866   6.265  18.549  0.00  0.00    +0.000 C 
ATOM     17  C   UNL     1       6.642   5.618  19.195  0.00  0.00    +0.000 C 
ENDBRANCH   8  13
BRANCH   4  18
ATOM     18  O   UNL     1       0.430   3.168  19.939  0.00  0.00    +0.000 OA
ATOM     19  H   UNL     1       0.203   4.110  19.866  0.00  0.00    +0.000 HD
ENDBRANCH   4  18
TORSDOF 2
ENDMDL
MODEL 5
REMARK VINA RESULT:      -6.9      0.597      1.073
REMARK  Name = 
REMARK  2 active torsions:
REMARK  status: ('A' for Active; 'I' for Inactive)
REMARK    1  A    between atoms: C_4  and  O_5
REMARK    2  A    between atoms: N_9  and  C_10
REMARK                            x       y       z     vdW  Elec       q    Type
REMARK                         _______ _______ _______ _____ _____    ______ ____
ROOT
ATOM      1  N   UNL     1       8.014   5.508  20.092  0.00  0.00    +0.000 N 
ATOM      2  C   UNL     1       7.215   5.167  19.018  0.00  0.00    +0.000 A 
ATOM      3  N   UNL     1       7.787   5.247  17.805  0.00  0.00    +0.000 NA
ATOM      4  C   UNL     1       7.048   4.878  16.740  0.00  0.00    +0.000 A 
ATOM      5  C   UNL     1       5.739   4.438  16.888  0.00  0.00    +0.000 A 
ATOM      6  N   UNL     1       4.772   3.985  16.021  0.00  0.00    +0.000 NA
ATOM      7  C   UNL     1       3.741   3.688  16.789  0.00  0.00    +0.000 A 
ATOM      8  N   UNL     1       3.996   3.940  18.111  0.00  0.00    +0.000 N 
ATOM      9  C   UNL     1       5.274   4.430  18.193  0.00  0.00    +0.000 A 
ATOM     10  N   UNL     1       5.955   4.795  19.294  0.00  0.00    +0.000 NA
ATOM     11  H   UNL     1       8.777   6.103  19.803  0.00  0.00    +0.000 HD
ATOM     12  H   UNL     1       7.458   5.799  20.882  0.00  0.00    +0.000 HD
ENDROOT
BRANCH   8  13
ATOM     13  C   UNL     1       3.126   3.681  19.231  0.00  0.00    +0.000 C 
ATOM     14  C   UNL     1       3.623   2.642  20.236  0.00  0.00    +0.000 C 
ATOM     15  C   UNL     1       2.638   2.800  21.391  0.00  0.00    +0.000 C 
ATOM     16  C   UNL     1       2.225   4.275  21.382  0.00  0.00    +0.000 C 
ATOM     17  C   UNL     1       2.860   4.886  20.134  0.00  0.00    +0.000 C 
ENDBRANCH   8  13
BRANCH   4  18
ATOM     18  O   UNL     1       7.698   4.948  15.539  0.00  0.00    +0.000 OA
ATOM     19  H   UNL     1       8.506   5.423  15.797  0.00  0.00    +0.000 HD
ENDBRANCH   4  18
TORSDOF 2
ENDMDL
MODEL 6
REMARK VINA RESULT:      -6.9      1.053      1.053
REMARK  Name = 
REMARK  2 active torsions:
REMARK  status: ('A' for Active; 'I' for Inactive)
REMARK    1  A    between atoms: C_4  and  O_5
REMARK    2  A    between atoms: N_9  and  C_10
REMARK                            x       y       z     vdW  Elec       q    Type
REMARK                         _______ _______ _______ _____ _____    ______ ____
ROOT
ATOM      1  N   UNL     1       8.266   7.024  18.923  0.00  0.00    +0.000 N 
ATOM      2  C   UNL     1       7.394   6.291  18.142  0.00  0.00    +0.000 A 
ATOM      3  N   UNL     1       7.692   6.212  16.835  0.00  0.00    +0.000 NA
ATOM      4  C   UNL     1       6.886   5.467  16.053  0.00  0.00    +0.000 A 
ATOM      5  C   UNL     1       5.780   4.809  16.578  0.00  0.00    +0.000 A 
ATOM      6  N   UNL     1       4.815   3.981  16.054  0.00  0.00    +0.000 NA
ATOM      7  C   UNL     1       4.052   3.658  17.081  0.00  0.00    +0.000 A 
ATOM      8  N   UNL     1       4.476   4.250  18.241  0.00  0.00    +0.000 N 
ATOM      9  C   UNL     1       5.582   5.000  17.936  0.00  0.00    +0.000 A 
ATOM     10  N   UNL     1       6.341   5.737  18.765  0.00  0.00    +0.000 NA
ATOM     11  H   UNL     1       8.788   7.683  18.364  0.00  0.00    +0.000 HD
ATOM     12  H   UNL     1       7.811   7.364  19.757  0.00  0.00    +0.000 HD
ENDROOT
BRANCH   8  13
ATOM     13  C   UNL     1       3.922   4.076  19.561  0.00  0.00    +0.000 C 
ATOM     14  C   UNL     1       2.697   4.928  19.889  0.00  0.00    +0.000 C 
ATOM     15  C   UNL     1       2.217   4.326  21.206  0.00  0.00    +0.000 C 
ATOM     16  C   UNL     1       2.593   2.842  21.144  0.00  0.00    +0.000 C 
ATOM     17  C   UNL     1       3.412   2.666  19.866  0.00  0.00    +0.000 C 
ENDBRANCH   8  13
BRANCH   4  18
ATOM     18  O   UNL     1       7.264   5.396  14.742  0.00  0.00    +0.000 OA
ATOM     19  H   UNL     1       7.801   6.202  14.664  0.00  0.00    +0.000 HD
ENDBRANCH   4  18
TORSDOF 2
ENDMDL
MODEL 7
REMARK VINA RESULT:      -6.7      3.027      5.404
REMARK  Name = 
REMARK  2 active torsions:
REMARK  status: ('A' for Active; 'I' for Inactive)
REMARK    1  A    between atoms: C_4  and  O_5
REMARK    2  A    between atoms: N_9  and  C_10
REMARK                            x       y       z     vdW  Elec       q    Type
REMARK                         _______ _______ _______ _____ _____    ______ ____
ROOT
ATOM      1  N   UNL     1       2.062   7.270  20.549  0.00  0.00    +0.000 N 
ATOM      2  C   UNL     1       2.211   5.965  20.123  0.00  0.00    +0.000 A 
ATOM      3  N   UNL     1       1.337   5.075  20.624  0.00  0.00    +0.000 NA
ATOM      4  C   UNL     1       1.427   3.802  20.194  0.00  0.00    +0.000 A 
ATOM      5  C   UNL     1       2.393   3.418  19.271  0.00  0.00    +0.000 A 
ATOM      6  N   UNL     1       2.708   2.236  18.643  0.00  0.00    +0.000 NA
ATOM      7  C   UNL     1       3.719   2.533  17.848  0.00  0.00    +0.000 A 
ATOM      8  N   UNL     1       4.076   3.852  17.945  0.00  0.00    +0.000 N 
ATOM      9  C   UNL     1       3.239   4.436  18.861  0.00  0.00    +0.000 A 
ATOM     10  N   UNL     1       3.208   5.720  19.259  0.00  0.00    +0.000 NA
ATOM     11  H   UNL     1       1.569   7.312  21.429  0.00  0.00    +0.000 HD
ATOM     12  H   UNL     1       2.927   7.783  20.466  0.00  0.00    +0.000 HD
ENDROOT
BRANCH   8  13
ATOM     13  C   UNL     1       5.091   4.537  17.185  0.00  0.00    +0.000 C 
ATOM     14  C   UNL     1       6.468   4.632  17.841  0.00  0.00    +0.000 C 
ATOM     15  C   UNL     1       7.343   5.152  16.705  0.00  0.00    +0.000 C 
ATOM     16  C   UNL     1       6.726   4.592  15.419  0.00  0.00    +0.000 C 
ATOM     17  C   UNL     1       5.432   3.898  15.838  0.00  0.00    +0.000 C 
ENDBRANCH   8  13
BRANCH   4  18
ATOM     18  O   UNL     1       0.488   2.954  20.712  0.00  0.00    +0.000 OA
ATOM     19  H   UNL     1       0.261   3.416  21.536  0.00  0.00    +0.000 HD
ENDBRANCH   4  18
TORSDOF 2
ENDMDL
MODEL 8
REMARK VINA RESULT:      -6.6      2.870      5.266
REMARK  Name = 
REMARK  2 active torsions:
REMARK  status: ('A' for Active; 'I' for Inactive)
REMARK    1  A    between atoms: C_4  and  O_5
REMARK    2  A    between atoms: N_9  and  C_10
REMARK                            x       y       z     vdW  Elec       q    Type
REMARK                         _______ _______ _______ _____ _____    ______ ____
ROOT
ATOM      1  N   UNL     1       2.246   3.381  22.208  0.00  0.00    +0.000 N 
ATOM      2  C   UNL     1       2.296   3.297  20.831  0.00  0.00    +0.000 A 
ATOM      3  N   UNL     1       1.322   2.580  20.245  0.00  0.00    +0.000 NA
ATOM      4  C   UNL     1       1.317   2.515  18.899  0.00  0.00    +0.000 A 
ATOM      5  C   UNL     1       2.288   3.159  18.142  0.00  0.00    +0.000 A 
ATOM      6  N   UNL     1       2.526   3.293  16.794  0.00  0.00    +0.000 NA
ATOM      7  C   UNL     1       3.597   4.059  16.713  0.00  0.00    +0.000 A 
ATOM      8  N   UNL     1       4.067   4.415  17.949  0.00  0.00    +0.000 N 
ATOM      9  C   UNL     1       3.242   3.839  18.881  0.00  0.00    +0.000 A 
ATOM     10  N   UNL     1       3.309   3.933  20.221  0.00  0.00    +0.000 NA
ATOM     11  H   UNL     1       1.716   2.616  22.600  0.00  0.00    +0.000 HD
ATOM     12  H   UNL     1       3.157   3.574  22.596  0.00  0.00    +0.000 HD
ENDROOT
BRANCH   8  13
ATOM     13  C   UNL     1       5.177   5.288  18.241  0.00  0.00    +0.000 C 
ATOM     14  C   UNL     1       6.546   4.617  18.344  0.00  0.00    +0.000 C 
ATOM     15  C   UNL     1       7.498   5.809  18.388  0.00  0.00    +0.000 C 
ATOM     16  C   UNL     1       6.822   6.907  17.559  0.00  0.00    +0.000 C 
ATOM     17  C   UNL     1       5.439   6.372  17.194  0.00  0.00    +0.000 C 
ENDBRANCH   8  13
BRANCH   4  18
ATOM     18  O   UNL     1       0.281   1.802  18.363  0.00  0.00    +0.000 OA
ATOM     19  H   UNL     1      -0.274   1.669  19.149  0.00  0.00    +0.000 HD
ENDBRANCH   4  18
TORSDOF 2
ENDMDL
MODEL 9
REMARK VINA RESULT:      -6.6      2.999      5.375
REMARK  Name = 
REMARK  2 active torsions:
REMARK  status: ('A' for Active; 'I' for Inactive)
REMARK    1  A    between atoms: C_4  and  O_5
REMARK    2  A    between atoms: N_9  and  C_10
REMARK                            x       y       z     vdW  Elec       q    Type
REMARK                         _______ _______ _______ _____ _____    ______ ____
ROOT
ATOM      1  N   UNL     1       4.000   0.824  18.363  0.00  0.00    +0.000 N 
ATOM      2  C   UNL     1       3.411   2.023  18.710  0.00  0.00    +0.000 A 
ATOM      3  N   UNL     1       2.192   1.945  19.269  0.00  0.00    +0.000 NA
ATOM      4  C   UNL     1       1.608   3.095  19.660  0.00  0.00    +0.000 A 
ATOM      5  C   UNL     1       2.239   4.320  19.484  0.00  0.00    +0.000 A 
ATOM      6  N   UNL     1       1.919   5.621  19.793  0.00  0.00    +0.000 NA
ATOM      7  C   UNL     1       2.957   6.331  19.393  0.00  0.00    +0.000 A 
ATOM      8  N   UNL     1       3.927   5.546  18.830  0.00  0.00    +0.000 N 
ATOM      9  C   UNL     1       3.481   4.250  18.873  0.00  0.00    +0.000 A 
ATOM     10  N   UNL     1       4.111   3.140  18.452  0.00  0.00    +0.000 NA
ATOM     11  H   UNL     1       3.308   0.099  18.242  0.00  0.00    +0.000 HD
ATOM     12  H   UNL     1       4.686   0.951  17.633  0.00  0.00    +0.000 HD
ENDROOT
BRANCH   8  13
ATOM     13  C   UNL     1       5.216   5.970  18.341  0.00  0.00    +0.000 C 
ATOM     14  C   UNL     1       6.430   5.391  19.067  0.00  0.00    +0.000 C 
ATOM     15  C   UNL     1       7.587   5.809  18.165  0.00  0.00    +0.000 C 
ATOM     16  C   UNL     1       7.012   5.841  16.744  0.00  0.00    +0.000 C 
ATOM     17  C   UNL     1       5.512   5.593  16.889  0.00  0.00    +0.000 C 
ENDBRANCH   8  13
BRANCH   4  18
ATOM     18  O   UNL     1       0.387   2.945  20.254  0.00  0.00    +0.000 OA
ATOM     19  H   UNL     1       0.112   2.086  19.891  0.00  0.00    +0.000 HD
ENDBRANCH   4  18
TORSDOF 2
ENDMDL
