MODEL 1
REMARK VINA RESULT:      -6.8      0.000      0.000
REMARK  Name = 
REMARK  7 active torsions:
REMARK  status: ('A' for Active; 'I' for Inactive)
REMARK    1  A    between atoms: C_1  and  C_2
REMARK    2  A    between atoms: C_2  and  C_3
REMARK    3  A    between atoms: C_3  and  N_4
REMARK    4  A    between atoms: C_10  and  C_11
REMARK    5  A    between atoms: N_13  and  C_14
REMARK    6  A    between atoms: C_14  and  C_15
REMARK    7  A    between atoms: C_14  and  C_16
REMARK                            x       y       z     vdW  Elec       q    Type
REMARK                         _______ _______ _______ _____ _____    ______ ____
ROOT
ATOM      1  N   UNL     1       4.966   5.488  17.751  0.00  0.00    +0.000 N 
ATOM      2  C   UNL     1       4.666   4.185  18.300  0.00  0.00    +0.000 C 
ATOM      3  C   UNL     1       3.479   4.476  19.162  0.00  0.00    +0.000 A 
ATOM      4  C   UNL     1       2.782   3.590  19.967  0.00  0.00    +0.000 A 
ATOM      5  C   UNL     1       1.731   4.088  20.730  0.00  0.00    +0.000 A 
ATOM      6  C   UNL     1       1.412   5.462  20.696  0.00  0.00    +0.000 A 
ATOM      7  C   UNL     1       2.118   6.375  19.881  0.00  0.00    +0.000 A 
ATOM      8  C   UNL     1       3.127   5.837  19.092  0.00  0.00    +0.000 A 
ATOM      9  C   UNL     1       4.034   6.442  18.102  0.00  0.00    +0.000 C 
ATOM     10  O   UNL     1       3.951   7.566  17.646  0.00  0.00    +0.000 OA
ENDROOT
BRANCH   7  11
ATOM     11  C   UNL     1       1.767   7.824  20.045  0.00  0.00    +0.000 C 
ATOM     12  O   UNL     1       1.739   8.309  21.173  0.00  0.00    +0.000 OA
ATOM     13  N   UNL     1       1.540   8.576  18.924  0.00  0.00    +0.000 N 
ATOM     14  H   UNL     1       1.431   8.128  18.020  0.00  0.00    +0.000 HD
BRANCH  13  15
ATOM     15  C   UNL     1       1.263  10.003  18.941  0.00  0.00    +0.000 C 
ATOM     16  C   UNL     1       2.202  10.711  17.961  0.00  0.00    +0.000 C 
BRANCH  15  17
ATOM     17  C   UNL     1      -0.178  10.241  18.560  0.00  0.00    +0.000 A 
ATOM     18  C   UNL     1      -0.920   9.701  17.523  0.00  0.00    +0.000 A 
ATOM     19  C   UNL     1      -2.257  10.191  17.496  0.00  0.00    +0.000 A 
ATOM     20  C   UNL     1      -2.493  11.103  18.498  0.00  0.00    +0.000 A 
ATOM     21  S   UNL     1      -1.115  11.354  19.476  0.00  0.00    +0.000 S 
ENDBRANCH  15  17
ENDBRANCH  13  15
ENDBRANCH   7  11
BRANCH   1  22
ATOM     22  C   UNL     1       6.039   5.727  16.803  0.00  0.00    +0.000 C 
BRANCH  22  24
ATOM     23  C   UNL     1       7.695   6.191  18.675  0.00  0.00    +0.000 C 
ATOM     24  C   UNL     1       7.127   6.653  17.341  0.00  0.00    +0.000 C 
ENDBRANCH  22  24
ENDBRANCH   1  22
TORSDOF 5
ENDMDL
MODEL 2
REMARK VINA RESULT:      -6.7      1.024      1.286
REMARK  Name = 
REMARK  7 active torsions:
REMARK  status: ('A' for Active; 'I' for Inactive)
REMARK    1  A    between atoms: C_1  and  C_2
REMARK    2  A    between atoms: C_2  and  C_3
REMARK    3  A    between atoms: C_3  and  N_4
REMARK    4  A    between atoms: C_10  and  C_11
REMARK    5  A    between atoms: N_13  and  C_14
REMARK    6  A    between atoms: C_14  and  C_15
REMARK    7  A    between atoms: C_14  and  C_16
REMARK                            x       y       z     vdW  Elec       q    Type
REMARK                         _______ _______ _______ _____ _____    ______ ____
ROOT
ATOM      1  N   UNL     1       4.489   6.029  17.329  0.00  0.00    +0.000 N 
ATOM      2  C   UNL     1       4.387   4.718  17.929  0.00  0.00    +0.000 C 
ATOM      3  C   UNL     1       3.359   4.941  18.993  0.00  0.00    +0.000 A 
ATOM      4  C   UNL     1       2.884   4.024  19.916  0.00  0.00    +0.000 A 
ATOM      5  C   UNL     1       1.958   4.462  20.855  0.00  0.00    +0.000 A 
ATOM      6  C   UNL     1       1.542   5.810  20.875  0.00  0.00    +0.000 A 
ATOM      7  C   UNL     1       2.021   6.755  19.941  0.00  0.00    +0.000 A 
ATOM      8  C   UNL     1       2.905   6.274  18.983  0.00  0.00    +0.000 A 
ATOM      9  C   UNL     1       3.572   6.922  17.841  0.00  0.00    +0.000 C 
ATOM     10  O   UNL     1       3.328   8.030  17.403  0.00  0.00    +0.000 OA
ENDROOT
BRANCH   7  11
ATOM     11  C   UNL     1       1.606   8.179  20.160  0.00  0.00    +0.000 C 
ATOM     12  O   UNL     1       1.631   8.642  21.297  0.00  0.00    +0.000 OA
ATOM     13  N   UNL     1       1.258   8.937  19.074  0.00  0.00    +0.000 N 
ATOM     14  H   UNL     1       1.111   8.499  18.170  0.00  0.00    +0.000 HD
BRANCH  13  15
ATOM     15  C   UNL     1       0.907  10.346  19.141  0.00  0.00    +0.000 C 
ATOM     16  C   UNL     1       1.976  11.168  18.417  0.00  0.00    +0.000 C 
BRANCH  15  17
ATOM     17  C   UNL     1      -0.445  10.558  18.505  0.00  0.00    +0.000 A 
ATOM     18  C   UNL     1      -1.139   9.758  17.613  0.00  0.00    +0.000 A 
ATOM     19  C   UNL     1      -2.394  10.319  17.237  0.00  0.00    +0.000 A 
ATOM     20  C   UNL     1      -2.614  11.537  17.837  0.00  0.00    +0.000 A 
ATOM     21  S   UNL     1      -1.323  11.993  18.859  0.00  0.00    +0.000 S 
ENDBRANCH  15  17
ENDBRANCH  13  15
ENDBRANCH   7  11
BRANCH   1  22
ATOM     22  C   UNL     1       5.352   6.325  16.200  0.00  0.00    +0.000 C 
BRANCH  22  24
ATOM     23  C   UNL     1       5.674   4.462  14.501  0.00  0.00    +0.000 C 
ATOM     24  C   UNL     1       6.202   5.137  15.758  0.00  0.00    +0.000 C 
ENDBRANCH  22  24
ENDBRANCH   1  22
TORSDOF 5
ENDMDL
MODEL 3
REMARK VINA RESULT:      -6.5      1.847      2.226
REMARK  Name = 
REMARK  7 active torsions:
REMARK  status: ('A' for Active; 'I' for Inactive)
REMARK    1  A    between atoms: C_1  and  C_2
REMARK    2  A    between atoms: C_2  and  C_3
REMARK    3  A    between atoms: C_3  and  N_4
REMARK    4  A    between atoms: C_10  and  C_11
REMARK    5  A    between atoms: N_13  and  C_14
REMARK    6  A    between atoms: C_14  and  C_15
REMARK    7  A    between atoms: C_14  and  C_16
REMARK                            x       y       z     vdW  Elec       q    Type
REMARK                         _______ _______ _______ _____ _____    ______ ____
ROOT
ATOM      1  N   UNL     1       5.161   4.804  17.857  0.00  0.00    +0.000 N 
ATOM      2  C   UNL     1       4.756   3.728  18.733  0.00  0.00    +0.000 C 
ATOM      3  C   UNL     1       3.574   4.320  19.430  0.00  0.00    +0.000 A 
ATOM      4  C   UNL     1       2.797   3.739  20.420  0.00  0.00    +0.000 A 
ATOM      5  C   UNL     1       1.767   4.494  20.970  0.00  0.00    +0.000 A 
ATOM      6  C   UNL     1       1.546   5.820  20.543  0.00  0.00    +0.000 A 
ATOM      7  C   UNL     1       2.334   6.425  19.538  0.00  0.00    +0.000 A 
ATOM      8  C   UNL     1       3.320   5.626  18.972  0.00  0.00    +0.000 A 
ATOM      9  C   UNL     1       4.290   5.874  17.891  0.00  0.00    +0.000 C 
ATOM     10  O   UNL     1       4.297   6.828  17.139  0.00  0.00    +0.000 OA
ENDROOT
BRANCH   7  11
ATOM     11  C   UNL     1       2.083   7.880  19.279  0.00  0.00    +0.000 C 
ATOM     12  O   UNL     1       2.638   8.423  18.327  0.00  0.00    +0.000 OA
ATOM     13  N   UNL     1       1.200   8.549  20.084  0.00  0.00    +0.000 N 
ATOM     14  H   UNL     1       0.864   8.121  20.941  0.00  0.00    +0.000 HD
BRANCH  13  15
ATOM     15  C   UNL     1       0.815   9.938  19.896  0.00  0.00    +0.000 C 
ATOM     16  C   UNL     1      -0.044  10.058  18.635  0.00  0.00    +0.000 C 
BRANCH  15  17
ATOM     17  C   UNL     1       0.051  10.416  21.106  0.00  0.00    +0.000 A 
ATOM     18  C   UNL     1      -0.226   9.761  22.294  0.00  0.00    +0.000 A 
ATOM     19  C   UNL     1      -0.990  10.559  23.193  0.00  0.00    +0.000 A 
ATOM     20  C   UNL     1      -1.293  11.790  22.660  0.00  0.00    +0.000 A 
ATOM     21  S   UNL     1      -0.643  11.989  21.093  0.00  0.00    +0.000 S 
ENDBRANCH  15  17
ENDBRANCH  13  15
ENDBRANCH   7  11
BRANCH   1  22
ATOM     22  C   UNL     1       6.269   4.703  16.926  0.00  0.00    +0.000 C 
BRANCH  22  24
ATOM     23  C   UNL     1       7.828   5.620  18.712  0.00  0.00    +0.000 C 
ATOM     24  C   UNL     1       7.628   4.588  17.611  0.00  0.00    +0.000 C 
ENDBRANCH  22  24
ENDBRANCH   1  22
TORSDOF 5
ENDMDL
MODEL 4
REMARK VINA RESULT:      -6.5      3.771      7.144
REMARK  Name = 
REMARK  7 active torsions:
REMARK  status: ('A' for Active; 'I' for Inactive)
REMARK    1  A    between atoms: C_1  and  C_2
REMARK    2  A    between atoms: C_2  and  C_3
REMARK    3  A    between atoms: C_3  and  N_4
REMARK    4  A    between atoms: C_10  and  C_11
REMARK    5  A    between atoms: N_13  and  C_14
REMARK    6  A    between atoms: C_14  and  C_15
REMARK    7  A    between atoms: C_14  and  C_16
REMARK                            x       y       z     vdW  Elec       q    Type
REMARK                         _______ _______ _______ _____ _____    ______ ____
ROOT
ATOM      1  N   UNL     1       2.798   4.473  19.848  0.00  0.00    +0.000 N 
ATOM      2  C   UNL     1       1.807   5.507  20.046  0.00  0.00    +0.000 C 
ATOM      3  C   UNL     1       2.282   6.576  19.115  0.00  0.00    +0.000 A 
ATOM      4  C   UNL     1       1.727   7.829  18.912  0.00  0.00    +0.000 A 
ATOM      5  C   UNL     1       2.365   8.692  18.029  0.00  0.00    +0.000 A 
ATOM      6  C   UNL     1       3.557   8.302  17.383  0.00  0.00    +0.000 A 
ATOM      7  C   UNL     1       4.135   7.028  17.584  0.00  0.00    +0.000 A 
ATOM      8  C   UNL     1       3.444   6.170  18.432  0.00  0.00    +0.000 A 
ATOM      9  C   UNL     1       3.695   4.779  18.846  0.00  0.00    +0.000 C 
ATOM     10  O   UNL     1       4.516   4.024  18.363  0.00  0.00    +0.000 OA
ENDROOT
BRANCH   7  11
ATOM     11  C   UNL     1       5.471   6.794  16.947  0.00  0.00    +0.000 C 
ATOM     12  O   UNL     1       6.388   7.580  17.173  0.00  0.00    +0.000 OA
ATOM     13  N   UNL     1       5.644   5.679  16.171  0.00  0.00    +0.000 N 
ATOM     14  H   UNL     1       4.844   5.124  15.886  0.00  0.00    +0.000 HD
BRANCH  13  15
ATOM     15  C   UNL     1       6.906   5.299  15.557  0.00  0.00    +0.000 C 
ATOM     16  C   UNL     1       7.656   4.346  16.491  0.00  0.00    +0.000 C 
BRANCH  15  17
ATOM     17  C   UNL     1       6.640   4.638  14.227  0.00  0.00    +0.000 A 
ATOM     18  C   UNL     1       5.612   3.790  13.849  0.00  0.00    +0.000 A 
ATOM     19  C   UNL     1       5.721   3.369  12.493  0.00  0.00    +0.000 A 
ATOM     20  C   UNL     1       6.836   3.890  11.880  0.00  0.00    +0.000 A 
ATOM     21  S   UNL     1       7.737   4.895  12.928  0.00  0.00    +0.000 S 
ENDBRANCH  15  17
ENDBRANCH  13  15
ENDBRANCH   7  11
BRANCH   1  22
ATOM     22  C   UNL     1       2.755   3.186  20.518  0.00  0.00    +0.000 C 
BRANCH  22  24
ATOM     23  C   UNL     1       0.838   2.452  19.019  0.00  0.00    +0.000 C 
ATOM     24  C   UNL     1       2.168   2.073  19.655  0.00  0.00    +0.000 C 
ENDBRANCH  22  24
ENDBRANCH   1  22
TORSDOF 5
ENDMDL
MODEL 5
REMARK VINA RESULT:      -6.5      1.949      2.519
REMARK  Name = 
REMARK  7 active torsions:
REMARK  status: ('A' for Active; 'I' for Inactive)
REMARK    1  A    between atoms: C_1  and  C_2
REMARK    2  A    between atoms: C_2  and  C_3
REMARK    3  A    between atoms: C_3  and  N_4
REMARK    4  A    between atoms: C_10  and  C_11
REMARK    5  A    between atoms: N_13  and  C_14
REMARK    6  A    between atoms: C_14  and  C_15
REMARK    7  A    between atoms: C_14  and  C_16
REMARK                            x       y       z     vdW  Elec       q    Type
REMARK                         _______ _______ _______ _____ _____    ______ ____
ROOT
ATOM      1  N   UNL     1       5.202   4.720  17.764  0.00  0.00    +0.000 N 
ATOM      2  C   UNL     1       4.827   3.656  18.667  0.00  0.00    +0.000 C 
ATOM      3  C   UNL     1       3.668   4.257  19.395  0.00  0.00    +0.000 A 
ATOM      4  C   UNL     1       2.924   3.689  20.417  0.00  0.00    +0.000 A 
ATOM      5  C   UNL     1       1.913   4.450  20.990  0.00  0.00    +0.000 A 
ATOM      6  C   UNL     1       1.677   5.771  20.554  0.00  0.00    +0.000 A 
ATOM      7  C   UNL     1       2.431   6.362  19.515  0.00  0.00    +0.000 A 
ATOM      8  C   UNL     1       3.398   5.557  18.928  0.00  0.00    +0.000 A 
ATOM      9  C   UNL     1       4.332   5.790  17.813  0.00  0.00    +0.000 C 
ATOM     10  O   UNL     1       4.314   6.735  17.048  0.00  0.00    +0.000 OA
ENDROOT
BRANCH   7  11
ATOM     11  C   UNL     1       2.170   7.814  19.246  0.00  0.00    +0.000 C 
ATOM     12  O   UNL     1       2.692   8.344  18.268  0.00  0.00    +0.000 OA
ATOM     13  N   UNL     1       1.314   8.493  20.071  0.00  0.00    +0.000 N 
ATOM     14  H   UNL     1       1.008   8.077  20.944  0.00  0.00    +0.000 HD
BRANCH  13  15
ATOM     15  C   UNL     1       0.922   9.879  19.878  0.00  0.00    +0.000 C 
ATOM     16  C   UNL     1       0.071   9.992  18.610  0.00  0.00    +0.000 C 
BRANCH  15  17
ATOM     17  C   UNL     1       0.146  10.355  21.081  0.00  0.00    +0.000 A 
ATOM     18  C   UNL     1      -0.206   9.674  22.234  0.00  0.00    +0.000 A 
ATOM     19  C   UNL     1      -0.953  10.480  23.139  0.00  0.00    +0.000 A 
ATOM     20  C   UNL     1      -1.168  11.745  22.646  0.00  0.00    +0.000 A 
ATOM     21  S   UNL     1      -0.456  11.965  21.108  0.00  0.00    +0.000 S 
ENDBRANCH  15  17
ENDBRANCH  13  15
ENDBRANCH   7  11
BRANCH   1  22
ATOM     22  C   UNL     1       6.279   4.608  16.799  0.00  0.00    +0.000 C 
BRANCH  22  24
ATOM     23  C   UNL     1       6.443   4.421  14.269  0.00  0.00    +0.000 C 
ATOM     24  C   UNL     1       5.895   3.814  15.553  0.00  0.00    +0.000 C 
ENDBRANCH  22  24
ENDBRANCH   1  22
TORSDOF 5
ENDMDL
MODEL 6
REMARK VINA RESULT:      -6.5      3.365      6.929
REMARK  Name = 
REMARK  7 active torsions:
REMARK  status: ('A' for Active; 'I' for Inactive)
REMARK    1  A    between atoms: C_1  and  C_2
REMARK    2  A    between atoms: C_2  and  C_3
REMARK    3  A    between atoms: C_3  and  N_4
REMARK    4  A    between atoms: C_10  and  C_11
REMARK    5  A    between atoms: N_13  and  C_14
REMARK    6  A    between atoms: C_14  and  C_15
REMARK    7  A    between atoms: C_14  and  C_16
REMARK                            x       y       z     vdW  Elec       q    Type
REMARK                         _______ _______ _______ _____ _____    ______ ____
ROOT
ATOM      1  N   UNL     1       2.575   4.779  20.387  0.00  0.00    +0.000 N 
ATOM      2  C   UNL     1       1.704   5.902  20.654  0.00  0.00    +0.000 C 
ATOM      3  C   UNL     1       2.098   6.865  19.580  0.00  0.00    +0.000 A 
ATOM      4  C   UNL     1       1.607   8.143  19.369  0.00  0.00    +0.000 A 
ATOM      5  C   UNL     1       2.154   8.891  18.333  0.00  0.00    +0.000 A 
ATOM      6  C   UNL     1       3.197   8.362  17.543  0.00  0.00    +0.000 A 
ATOM      7  C   UNL     1       3.708   7.061  17.751  0.00  0.00    +0.000 A 
ATOM      8  C   UNL     1       3.104   6.321  18.760  0.00  0.00    +0.000 A 
ATOM      9  C   UNL     1       3.319   4.945  19.237  0.00  0.00    +0.000 C 
ATOM     10  O   UNL     1       3.997   4.095  18.693  0.00  0.00    +0.000 OA
ENDROOT
BRANCH   7  11
ATOM     11  C   UNL     1       4.905   6.677  16.935  0.00  0.00    +0.000 C 
ATOM     12  O   UNL     1       5.002   7.091  15.782  0.00  0.00    +0.000 OA
ATOM     13  N   UNL     1       5.883   5.917  17.518  0.00  0.00    +0.000 N 
ATOM     14  H   UNL     1       5.719   5.474  18.416  0.00  0.00    +0.000 HD
BRANCH  13  15
ATOM     15  C   UNL     1       7.123   5.538  16.862  0.00  0.00    +0.000 C 
ATOM     16  C   UNL     1       7.884   4.550  17.750  0.00  0.00    +0.000 C 
BRANCH  15  17
ATOM     17  C   UNL     1       6.815   4.917  15.522  0.00  0.00    +0.000 A 
ATOM     18  C   UNL     1       7.326   5.214  14.269  0.00  0.00    +0.000 A 
ATOM     19  C   UNL     1       6.768   4.398  13.244  0.00  0.00    +0.000 A 
ATOM     20  C   UNL     1       5.835   3.516  13.737  0.00  0.00    +0.000 A 
ATOM     21  S   UNL     1       5.646   3.659  15.429  0.00  0.00    +0.000 S 
ENDBRANCH  15  17
ENDBRANCH  13  15
ENDBRANCH   7  11
BRANCH   1  22
ATOM     22  C   UNL     1       2.549   3.548  21.154  0.00  0.00    +0.000 C 
BRANCH  22  24
ATOM     23  C   UNL     1       1.001   2.282  19.585  0.00  0.00    +0.000 C 
ATOM     24  C   UNL     1       1.245   2.769  21.006  0.00  0.00    +0.000 C 
ENDBRANCH  22  24
ENDBRANCH   1  22
TORSDOF 5
ENDMDL
MODEL 7
REMARK VINA RESULT:      -6.4      2.069      4.200
REMARK  Name = 
REMARK  7 active torsions:
REMARK  status: ('A' for Active; 'I' for Inactive)
REMARK    1  A    between atoms: C_1  and  C_2
REMARK    2  A    between atoms: C_2  and  C_3
REMARK    3  A    between atoms: C_3  and  N_4
REMARK    4  A    between atoms: C_10  and  C_11
REMARK    5  A    between atoms: N_13  and  C_14
REMARK    6  A    between atoms: C_14  and  C_15
REMARK    7  A    between atoms: C_14  and  C_16
REMARK                            x       y       z     vdW  Elec       q    Type
REMARK                         _______ _______ _______ _____ _____    ______ ____
ROOT
ATOM      1  N   UNL     1       2.596   4.690  20.260  0.00  0.00    +0.000 N 
ATOM      2  C   UNL     1       3.610   4.121  19.402  0.00  0.00    +0.000 C 
ATOM      3  C   UNL     1       3.911   5.257  18.478  0.00  0.00    +0.000 A 
ATOM      4  C   UNL     1       4.797   5.270  17.413  0.00  0.00    +0.000 A 
ATOM      5  C   UNL     1       4.885   6.428  16.649  0.00  0.00    +0.000 A 
ATOM      6  C   UNL     1       4.071   7.542  16.943  0.00  0.00    +0.000 A 
ATOM      7  C   UNL     1       3.162   7.540  18.025  0.00  0.00    +0.000 A 
ATOM      8  C   UNL     1       3.137   6.387  18.800  0.00  0.00    +0.000 A 
ATOM      9  C   UNL     1       2.376   6.028  20.009  0.00  0.00    +0.000 C 
ATOM     10  O   UNL     1       1.709   6.785  20.688  0.00  0.00    +0.000 OA
ENDROOT
BRANCH   7  11
ATOM     11  C   UNL     1       2.262   8.734  18.141  0.00  0.00    +0.000 C 
ATOM     12  O   UNL     1       2.188   9.522  17.202  0.00  0.00    +0.000 OA
ATOM     13  N   UNL     1       1.507   8.881  19.274  0.00  0.00    +0.000 N 
ATOM     14  H   UNL     1       1.686   8.300  20.087  0.00  0.00    +0.000 HD
BRANCH  13  15
ATOM     15  C   UNL     1       0.545   9.950  19.481  0.00  0.00    +0.000 C 
ATOM     16  C   UNL     1      -0.681   9.704  18.597  0.00  0.00    +0.000 C 
BRANCH  15  17
ATOM     17  C   UNL     1       0.148   9.997  20.936  0.00  0.00    +0.000 A 
ATOM     18  C   UNL     1       0.429   9.106  21.959  0.00  0.00    +0.000 A 
ATOM     19  C   UNL     1      -0.138   9.506  23.202  0.00  0.00    +0.000 A 
ATOM     20  C   UNL     1      -0.850  10.677  23.092  0.00  0.00    +0.000 A 
ATOM     21  S   UNL     1      -0.819  11.300  21.501  0.00  0.00    +0.000 S 
ENDBRANCH  15  17
ENDBRANCH  13  15
ENDBRANCH   7  11
BRANCH   1  22
ATOM     22  C   UNL     1       1.994   3.973  21.369  0.00  0.00    +0.000 C 
BRANCH  22  24
ATOM     23  C   UNL     1       0.690   2.795  19.532  0.00  0.00    +0.000 C 
ATOM     24  C   UNL     1       1.255   2.708  20.943  0.00  0.00    +0.000 C 
ENDBRANCH  22  24
ENDBRANCH   1  22
TORSDOF 5
ENDMDL
MODEL 8
REMARK VINA RESULT:      -6.4      2.073      4.129
REMARK  Name = 
REMARK  7 active torsions:
REMARK  status: ('A' for Active; 'I' for Inactive)
REMARK    1  A    between atoms: C_1  and  C_2
REMARK    2  A    between atoms: C_2  and  C_3
REMARK    3  A    between atoms: C_3  and  N_4
REMARK    4  A    between atoms: C_10  and  C_11
REMARK    5  A    between atoms: N_13  and  C_14
REMARK    6  A    between atoms: C_14  and  C_15
REMARK    7  A    between atoms: C_14  and  C_16
REMARK                            x       y       z     vdW  Elec       q    Type
REMARK                         _______ _______ _______ _____ _____    ______ ____
ROOT
ATOM      1  N   UNL     1       2.877   4.411  20.265  0.00  0.00    +0.000 N 
ATOM      2  C   UNL     1       4.017   4.116  19.426  0.00  0.00    +0.000 C 
ATOM      3  C   UNL     1       4.118   5.352  18.591  0.00  0.00    +0.000 A 
ATOM      4  C   UNL     1       5.024   5.615  17.576  0.00  0.00    +0.000 A 
ATOM      5  C   UNL     1       4.906   6.818  16.890  0.00  0.00    +0.000 A 
ATOM      6  C   UNL     1       3.874   7.726  17.210  0.00  0.00    +0.000 A 
ATOM      7  C   UNL     1       2.942   7.467  18.241  0.00  0.00    +0.000 A 
ATOM      8  C   UNL     1       3.120   6.280  18.942  0.00  0.00    +0.000 A 
ATOM      9  C   UNL     1       2.402   5.693  20.086  0.00  0.00    +0.000 C 
ATOM     10  O   UNL     1       1.571   6.253  20.774  0.00  0.00    +0.000 OA
ENDROOT
BRANCH   7  11
ATOM     11  C   UNL     1       1.817   8.447  18.384  0.00  0.00    +0.000 C 
ATOM     12  O   UNL     1       1.098   8.679  17.415  0.00  0.00    +0.000 OA
ATOM     13  N   UNL     1       1.592   9.016  19.608  0.00  0.00    +0.000 N 
ATOM     14  H   UNL     1       2.276   8.919  20.352  0.00  0.00    +0.000 HD
BRANCH  13  15
ATOM     15  C   UNL     1       0.493   9.923  19.898  0.00  0.00    +0.000 C 
ATOM     16  C   UNL     1      -0.001   9.679  21.326  0.00  0.00    +0.000 C 
BRANCH  15  17
ATOM     17  C   UNL     1       0.961  11.349  19.736  0.00  0.00    +0.000 A 
ATOM     18  C   UNL     1       1.841  11.893  18.815  0.00  0.00    +0.000 A 
ATOM     19  C   UNL     1       2.030  13.292  19.000  0.00  0.00    +0.000 A 
ATOM     20  C   UNL     1       1.307  13.773  20.066  0.00  0.00    +0.000 A 
ATOM     21  S   UNL     1       0.391  12.548  20.827  0.00  0.00    +0.000 S 
ENDBRANCH  15  17
ENDBRANCH  13  15
ENDBRANCH   7  11
BRANCH   1  22
ATOM     22  C   UNL     1       2.390   3.512  21.295  0.00  0.00    +0.000 C 
BRANCH  22  24
ATOM     23  C   UNL     1       0.841   2.702  19.450  0.00  0.00    +0.000 C 
ATOM     24  C   UNL     1       1.054   2.861  20.948  0.00  0.00    +0.000 C 
ENDBRANCH  22  24
ENDBRANCH   1  22
TORSDOF 5
ENDMDL
MODEL 9
REMARK VINA RESULT:      -6.3      5.390      8.044
REMARK  Name = 
REMARK  7 active torsions:
REMARK  status: ('A' for Active; 'I' for Inactive)
REMARK    1  A    between atoms: C_1  and  C_2
REMARK    2  A    between atoms: C_2  and  C_3
REMARK    3  A    between atoms: C_3  and  N_4
REMARK    4  A    between atoms: C_10  and  C_11
REMARK    5  A    between atoms: N_13  and  C_14
REMARK    6  A    between atoms: C_14  and  C_15
REMARK    7  A    between atoms: C_14  and  C_16
REMARK                            x       y       z     vdW  Elec       q    Type
REMARK                         _______ _______ _______ _____ _____    ______ ____
ROOT
ATOM      1  N   UNL     1       3.851   3.085  18.278  0.00  0.00    +0.000 N 
ATOM      2  C   UNL     1       4.681   3.418  19.414  0.00  0.00    +0.000 C 
ATOM      3  C   UNL     1       5.610   4.436  18.834  0.00  0.00    +0.000 A 
ATOM      4  C   UNL     1       6.656   5.085  19.469  0.00  0.00    +0.000 A 
ATOM      5  C   UNL     1       7.430   5.965  18.721  0.00  0.00    +0.000 A 
ATOM      6  C   UNL     1       7.166   6.161  17.349  0.00  0.00    +0.000 A 
ATOM      7  C   UNL     1       6.104   5.502  16.689  0.00  0.00    +0.000 A 
ATOM      8  C   UNL     1       5.317   4.671  17.478  0.00  0.00    +0.000 A 
ATOM      9  C   UNL     1       4.121   3.867  17.174  0.00  0.00    +0.000 C 
ATOM     10  O   UNL     1       3.466   3.914  16.151  0.00  0.00    +0.000 OA
ENDROOT
BRANCH   7  11
ATOM     11  C   UNL     1       6.021   5.693  15.205  0.00  0.00    +0.000 C 
ATOM     12  O   UNL     1       5.240   6.527  14.752  0.00  0.00    +0.000 OA
ATOM     13  N   UNL     1       6.857   4.968  14.400  0.00  0.00    +0.000 N 
ATOM     14  H   UNL     1       7.390   4.193  14.782  0.00  0.00    +0.000 HD
BRANCH  13  15
ATOM     15  C   UNL     1       6.927   5.111  12.955  0.00  0.00    +0.000 C 
ATOM     16  C   UNL     1       8.311   5.637  12.566  0.00  0.00    +0.000 C 
BRANCH  15  17
ATOM     17  C   UNL     1       6.666   3.775  12.304  0.00  0.00    +0.000 A 
ATOM     18  C   UNL     1       7.556   2.876  11.740  0.00  0.00    +0.000 A 
ATOM     19  C   UNL     1       6.907   1.721  11.216  0.00  0.00    +0.000 A 
ATOM     20  C   UNL     1       5.543   1.779  11.377  0.00  0.00    +0.000 A 
ATOM     21  S   UNL     1       5.048   3.209  12.170  0.00  0.00    +0.000 S 
ENDBRANCH  15  17
ENDBRANCH  13  15
ENDBRANCH   7  11
BRANCH   1  22
ATOM     22  C   UNL     1       2.748   2.144  18.343  0.00  0.00    +0.000 C 
BRANCH  22  24
ATOM     23  C   UNL     1       1.107   3.120  20.021  0.00  0.00    +0.000 C 
ATOM     24  C   UNL     1       1.393   2.813  18.558  0.00  0.00    +0.000 C 
ENDBRANCH  22  24
ENDBRANCH   1  22
TORSDOF 5
ENDMDL
