MODEL 1
REMARK VINA RESULT:      -8.3      0.000      0.000
REMARK  Name = 
REMARK  5 active torsions:
REMARK  status: ('A' for Active; 'I' for Inactive)
REMARK    1  A    between atoms: C_2  and  O_3
REMARK    2  A    between atoms: C_2  and  C_11
REMARK    3  A    between atoms: O_3  and  C_4
REMARK    4  A    between atoms: C_4  and  C_5
REMARK    5  A    between atoms: N_13  and  C_14
REMARK                            x       y       z     vdW  Elec       q    Type
REMARK                         _______ _______ _______ _____ _____    ______ ____
ROOT
ATOM      1  C   UNL     1       5.400   4.893  18.392  0.00  0.00    +0.000 A 
ATOM      2  C   UNL     1       4.905   3.925  19.185  0.00  0.00    +0.000 A 
ATOM      3  N   UNL     1       3.581   3.817  19.616  0.00  0.00    +0.000 N 
ATOM      4  C   UNL     1       2.916   5.074  19.758  0.00  0.00    +0.000 A 
ATOM      5  C   UNL     1       1.922   5.249  20.726  0.00  0.00    +0.000 A 
ATOM      6  C   UNL     1       1.327   6.503  20.897  0.00  0.00    +0.000 A 
ATOM      7  C   UNL     1       1.705   7.571  20.077  0.00  0.00    +0.000 A 
ATOM      8  I   UNL     1       0.847   9.441  20.377  0.00  0.00    +0.000 I 
ATOM      9  C   UNL     1       2.681   7.407  19.092  0.00  0.00    +0.000 A 
ATOM     10  C   UNL     1       3.305   6.164  18.963  0.00  0.00    +0.000 A 
ATOM     11  C   UNL     1       4.439   5.967  18.021  0.00  0.00    +0.000 A 
ATOM     12  O   UNL     1       4.552   6.675  17.031  0.00  0.00    +0.000 OA
ENDROOT
BRANCH   3  13
ATOM     13  C   UNL     1       2.859   2.882  18.692  0.00  0.00    +0.000 C 
ATOM     14  C   UNL     1       1.773   1.988  19.222  0.00  0.00    +0.000 C 
ATOM     15  C   UNL     1       1.446   3.069  18.232  0.00  0.00    +0.000 C 
ENDBRANCH   3  13
BRANCH   1  17
ATOM     16  O   UNL     1       7.732   5.088  18.700  0.00  0.00    +0.000 OA
ATOM     17  C   UNL     1       6.802   4.762  17.968  0.00  0.00    +0.000 C 
BRANCH  17  18
ATOM     18  O   UNL     1       6.939   4.268  16.720  0.00  0.00    +0.000 OA
BRANCH  18  19
ATOM     19  C   UNL     1       7.147   5.247  15.693  0.00  0.00    +0.000 C 
BRANCH  19  20
ATOM     20  C   UNL     1       6.757   4.730  14.330  0.00  0.00    +0.000 A 
ATOM     21  C   UNL     1       7.622   4.891  13.241  0.00  0.00    +0.000 A 
ATOM     22  C   UNL     1       7.303   4.329  11.999  0.00  0.00    +0.000 A 
ATOM     23  C   UNL     1       6.119   3.611  11.836  0.00  0.00    +0.000 A 
ATOM     24  C   UNL     1       5.244   3.463  12.908  0.00  0.00    +0.000 A 
ATOM     25  C   UNL     1       5.560   4.019  14.148  0.00  0.00    +0.000 A 
ENDBRANCH  19  20
ENDBRANCH  18  19
ENDBRANCH  17  18
ENDBRANCH   1  17
TORSDOF 5
ENDMDL
MODEL 2
REMARK VINA RESULT:      -8.2      0.633      1.174
REMARK  Name = 
REMARK  5 active torsions:
REMARK  status: ('A' for Active; 'I' for Inactive)
REMARK    1  A    between atoms: C_2  and  O_3
REMARK    2  A    between atoms: C_2  and  C_11
REMARK    3  A    between atoms: O_3  and  C_4
REMARK    4  A    between atoms: C_4  and  C_5
REMARK    5  A    between atoms: N_13  and  C_14
REMARK                            x       y       z     vdW  Elec       q    Type
REMARK                         _______ _______ _______ _____ _____    ______ ____
ROOT
ATOM      1  C   UNL     1       5.726   5.224  18.316  0.00  0.00    +0.000 A 
ATOM      2  C   UNL     1       5.358   4.076  18.915  0.00  0.00    +0.000 A 
ATOM      3  N   UNL     1       4.060   3.730  19.293  0.00  0.00    +0.000 N 
ATOM      4  C   UNL     1       3.242   4.848  19.641  0.00  0.00    +0.000 A 
ATOM      5  C   UNL     1       2.236   4.724  20.605  0.00  0.00    +0.000 A 
ATOM      6  C   UNL     1       1.489   5.844  20.983  0.00  0.00    +0.000 A 
ATOM      7  C   UNL     1       1.728   7.079  20.372  0.00  0.00    +0.000 A 
ATOM      8  I   UNL     1       0.643   8.745  20.981  0.00  0.00    +0.000 I 
ATOM      9  C   UNL     1       2.714   7.216  19.394  0.00  0.00    +0.000 A 
ATOM     10  C   UNL     1       3.489   6.102  19.059  0.00  0.00    +0.000 A 
ATOM     11  C   UNL     1       4.638   6.219  18.121  0.00  0.00    +0.000 A 
ATOM     12  O   UNL     1       4.658   7.100  17.274  0.00  0.00    +0.000 OA
ENDROOT
BRANCH   3  13
ATOM     13  C   UNL     1       3.459   2.892  18.203  0.00  0.00    +0.000 C 
ATOM     14  C   UNL     1       3.401   1.397  18.348  0.00  0.00    +0.000 C 
ATOM     15  C   UNL     1       2.134   2.201  18.299  0.00  0.00    +0.000 C 
ENDBRANCH   3  13
BRANCH   1  17
ATOM     16  O   UNL     1       7.957   5.946  18.586  0.00  0.00    +0.000 OA
ATOM     17  C   UNL     1       7.133   5.344  17.904  0.00  0.00    +0.000 C 
BRANCH  17  18
ATOM     18  O   UNL     1       7.397   4.746  16.724  0.00  0.00    +0.000 OA
BRANCH  18  19
ATOM     19  C   UNL     1       7.262   5.584  15.568  0.00  0.00    +0.000 C 
BRANCH  19  20
ATOM     20  C   UNL     1       6.829   4.805  14.350  0.00  0.00    +0.000 A 
ATOM     21  C   UNL     1       5.609   4.117  14.351  0.00  0.00    +0.000 A 
ATOM     22  C   UNL     1       5.162   3.474  13.190  0.00  0.00    +0.000 A 
ATOM     23  C   UNL     1       5.932   3.507  12.028  0.00  0.00    +0.000 A 
ATOM     24  C   UNL     1       7.155   4.171  12.025  0.00  0.00    +0.000 A 
ATOM     25  C   UNL     1       7.602   4.816  13.178  0.00  0.00    +0.000 A 
ENDBRANCH  19  20
ENDBRANCH  18  19
ENDBRANCH  17  18
ENDBRANCH   1  17
TORSDOF 5
ENDMDL
MODEL 3
REMARK VINA RESULT:      -8.0      1.188      1.386
REMARK  Name = 
REMARK  5 active torsions:
REMARK  status: ('A' for Active; 'I' for Inactive)
REMARK    1  A    between atoms: C_2  and  O_3
REMARK    2  A    between atoms: C_2  and  C_11
REMARK    3  A    between atoms: O_3  and  C_4
REMARK    4  A    between atoms: C_4  and  C_5
REMARK    5  A    between atoms: N_13  and  C_14
REMARK                            x       y       z     vdW  Elec       q    Type
REMARK                         _______ _______ _______ _____ _____    ______ ____
ROOT
ATOM      1  C   UNL     1       5.704   6.031  17.643  0.00  0.00    +0.000 A 
ATOM      2  C   UNL     1       5.452   5.300  18.745  0.00  0.00    +0.000 A 
ATOM      3  N   UNL     1       4.207   5.145  19.357  0.00  0.00    +0.000 N 
ATOM      4  C   UNL     1       3.344   6.274  19.206  0.00  0.00    +0.000 A 
ATOM      5  C   UNL     1       2.416   6.600  20.200  0.00  0.00    +0.000 A 
ATOM      6  C   UNL     1       1.626   7.746  20.067  0.00  0.00    +0.000 A 
ATOM      7  C   UNL     1       1.742   8.545  18.926  0.00  0.00    +0.000 A 
ATOM      8  I   UNL     1       0.596  10.272  18.767  0.00  0.00    +0.000 I 
ATOM      9  C   UNL     1       2.650   8.222  17.915  0.00  0.00    +0.000 A 
ATOM     10  C   UNL     1       3.470   7.103  18.080  0.00  0.00    +0.000 A 
ATOM     11  C   UNL     1       4.543   6.785  17.099  0.00  0.00    +0.000 A 
ATOM     12  O   UNL     1       4.449   7.155  15.938  0.00  0.00    +0.000 OA
ENDROOT
BRANCH   3  13
ATOM     13  C   UNL     1       3.589   3.874  18.855  0.00  0.00    +0.000 C 
ATOM     14  C   UNL     1       2.864   2.962  19.804  0.00  0.00    +0.000 C 
ATOM     15  C   UNL     1       2.117   3.652  18.699  0.00  0.00    +0.000 C 
ENDBRANCH   3  13
BRANCH   1  17
ATOM     16  O   UNL     1       7.795   6.964  17.069  0.00  0.00    +0.000 OA
ATOM     17  C   UNL     1       7.069   5.974  17.099  0.00  0.00    +0.000 C 
BRANCH  17  18
ATOM     18  O   UNL     1       7.411   4.753  16.641  0.00  0.00    +0.000 OA
BRANCH  18  19
ATOM     19  C   UNL     1       6.405   4.081  15.872  0.00  0.00    +0.000 C 
BRANCH  19  20
ATOM     20  C   UNL     1       6.627   4.239  14.387  0.00  0.00    +0.000 A 
ATOM     21  C   UNL     1       7.557   5.170  13.909  0.00  0.00    +0.000 A 
ATOM     22  C   UNL     1       7.834   5.250  12.538  0.00  0.00    +0.000 A 
ATOM     23  C   UNL     1       7.180   4.408  11.640  0.00  0.00    +0.000 A 
ATOM     24  C   UNL     1       6.239   3.494  12.105  0.00  0.00    +0.000 A 
ATOM     25  C   UNL     1       5.964   3.409  13.469  0.00  0.00    +0.000 A 
ENDBRANCH  19  20
ENDBRANCH  18  19
ENDBRANCH  17  18
ENDBRANCH   1  17
TORSDOF 5
ENDMDL
MODEL 4
REMARK VINA RESULT:      -8.0      0.607      1.157
REMARK  Name = 
REMARK  5 active torsions:
REMARK  status: ('A' for Active; 'I' for Inactive)
REMARK    1  A    between atoms: C_2  and  O_3
REMARK    2  A    between atoms: C_2  and  C_11
REMARK    3  A    between atoms: O_3  and  C_4
REMARK    4  A    between atoms: C_4  and  C_5
REMARK    5  A    between atoms: N_13  and  C_14
REMARK                            x       y       z     vdW  Elec       q    Type
REMARK                         _______ _______ _______ _____ _____    ______ ____
ROOT
ATOM      1  C   UNL     1       5.319   5.098  18.375  0.00  0.00    +0.000 A 
ATOM      2  C   UNL     1       4.801   4.397  19.400  0.00  0.00    +0.000 A 
ATOM      3  N   UNL     1       3.479   4.455  19.847  0.00  0.00    +0.000 N 
ATOM      4  C   UNL     1       2.858   5.726  19.648  0.00  0.00    +0.000 A 
ATOM      5  C   UNL     1       1.882   6.190  20.536  0.00  0.00    +0.000 A 
ATOM      6  C   UNL     1       1.332   7.464  20.364  0.00  0.00    +0.000 A 
ATOM      7  C   UNL     1       1.735   8.259  19.287  0.00  0.00    +0.000 A 
ATOM      8  I   UNL     1       0.944  10.170  19.075  0.00  0.00    +0.000 I 
ATOM      9  C   UNL     1       2.694   7.802  18.380  0.00  0.00    +0.000 A 
ATOM     10  C   UNL     1       3.274   6.549  18.588  0.00  0.00    +0.000 A 
ATOM     11  C   UNL     1       4.391   6.066  17.731  0.00  0.00    +0.000 A 
ATOM     12  O   UNL     1       4.515   6.478  16.587  0.00  0.00    +0.000 OA
ENDROOT
BRANCH   3  13
ATOM     13  C   UNL     1       2.716   3.332  19.210  0.00  0.00    +0.000 C 
ATOM     14  C   UNL     1       1.694   2.570  20.005  0.00  0.00    +0.000 C 
ATOM     15  C   UNL     1       1.269   3.401  18.829  0.00  0.00    +0.000 C 
ENDBRANCH   3  13
BRANCH   1  17
ATOM     16  O   UNL     1       7.648   5.050  18.754  0.00  0.00    +0.000 OA
ATOM     17  C   UNL     1       6.710   4.808  17.999  0.00  0.00    +0.000 C 
BRANCH  17  18
ATOM     18  O   UNL     1       6.831   4.275  16.766  0.00  0.00    +0.000 OA
BRANCH  18  19
ATOM     19  C   UNL     1       7.244   5.189  15.741  0.00  0.00    +0.000 C 
BRANCH  19  20
ATOM     20  C   UNL     1       6.969   4.650  14.357  0.00  0.00    +0.000 A 
ATOM     21  C   UNL     1       5.882   3.796  14.137  0.00  0.00    +0.000 A 
ATOM     22  C   UNL     1       5.570   3.373  12.839  0.00  0.00    +0.000 A 
ATOM     23  C   UNL     1       6.343   3.794  11.758  0.00  0.00    +0.000 A 
ATOM     24  C   UNL     1       7.438   4.627  11.971  0.00  0.00    +0.000 A 
ATOM     25  C   UNL     1       7.749   5.053  13.262  0.00  0.00    +0.000 A 
ENDBRANCH  19  20
ENDBRANCH  18  19
ENDBRANCH  17  18
ENDBRANCH   1  17
TORSDOF 5
ENDMDL
MODEL 5
REMARK VINA RESULT:      -7.9      1.108      1.297
REMARK  Name = 
REMARK  5 active torsions:
REMARK  status: ('A' for Active; 'I' for Inactive)
REMARK    1  A    between atoms: C_2  and  O_3
REMARK    2  A    between atoms: C_2  and  C_11
REMARK    3  A    between atoms: O_3  and  C_4
REMARK    4  A    between atoms: C_4  and  C_5
REMARK    5  A    between atoms: N_13  and  C_14
REMARK                            x       y       z     vdW  Elec       q    Type
REMARK                         _______ _______ _______ _____ _____    ______ ____
ROOT
ATOM      1  C   UNL     1       4.854   5.526  18.448  0.00  0.00    +0.000 A 
ATOM      2  C   UNL     1       4.333   4.918  19.529  0.00  0.00    +0.000 A 
ATOM      3  N   UNL     1       3.036   5.087  20.018  0.00  0.00    +0.000 N 
ATOM      4  C   UNL     1       2.489   6.383  19.767  0.00  0.00    +0.000 A 
ATOM      5  C   UNL     1       1.580   6.959  20.660  0.00  0.00    +0.000 A 
ATOM      6  C   UNL     1       1.104   8.254  20.434  0.00  0.00    +0.000 A 
ATOM      7  C   UNL     1       1.515   8.959  19.298  0.00  0.00    +0.000 A 
ATOM      8  I   UNL     1       0.839  10.903  19.003  0.00  0.00    +0.000 I 
ATOM      9  C   UNL     1       2.407   8.391  18.386  0.00  0.00    +0.000 A 
ATOM     10  C   UNL     1       2.915   7.116  18.647  0.00  0.00    +0.000 A 
ATOM     11  C   UNL     1       3.964   6.515  17.781  0.00  0.00    +0.000 A 
ATOM     12  O   UNL     1       4.070   6.853  16.612  0.00  0.00    +0.000 OA
ENDROOT
BRANCH   3  13
ATOM     13  C   UNL     1       2.179   3.983  19.475  0.00  0.00    +0.000 C 
ATOM     14  C   UNL     1       2.060   2.684  20.222  0.00  0.00    +0.000 C 
ATOM     15  C   UNL     1       0.860   3.572  20.052  0.00  0.00    +0.000 C 
ENDBRANCH   3  13
BRANCH   1  17
ATOM     16  O   UNL     1       7.048   4.760  18.859  0.00  0.00    +0.000 OA
ATOM     17  C   UNL     1       6.209   5.125  18.041  0.00  0.00    +0.000 C 
BRANCH  17  18
ATOM     18  O   UNL     1       6.417   5.215  16.711  0.00  0.00    +0.000 OA
BRANCH  18  19
ATOM     19  C   UNL     1       6.013   4.070  15.949  0.00  0.00    +0.000 C 
BRANCH  19  20
ATOM     20  C   UNL     1       6.369   4.207  14.488  0.00  0.00    +0.000 A 
ATOM     21  C   UNL     1       7.374   5.097  14.089  0.00  0.00    +0.000 A 
ATOM     22  C   UNL     1       7.770   5.156  12.747  0.00  0.00    +0.000 A 
ATOM     23  C   UNL     1       7.163   4.334  11.798  0.00  0.00    +0.000 A 
ATOM     24  C   UNL     1       6.149   3.461  12.184  0.00  0.00    +0.000 A 
ATOM     25  C   UNL     1       5.755   3.398  13.520  0.00  0.00    +0.000 A 
ENDBRANCH  19  20
ENDBRANCH  18  19
ENDBRANCH  17  18
ENDBRANCH   1  17
TORSDOF 5
ENDMDL
MODEL 6
REMARK VINA RESULT:      -7.7      0.982      1.160
REMARK  Name = 
REMARK  5 active torsions:
REMARK  status: ('A' for Active; 'I' for Inactive)
REMARK    1  A    between atoms: C_2  and  O_3
REMARK    2  A    between atoms: C_2  and  C_11
REMARK    3  A    between atoms: O_3  and  C_4
REMARK    4  A    between atoms: C_4  and  C_5
REMARK    5  A    between atoms: N_13  and  C_14
REMARK                            x       y       z     vdW  Elec       q    Type
REMARK                         _______ _______ _______ _____ _____    ______ ____
ROOT
ATOM      1  C   UNL     1       5.633   5.035  17.466  0.00  0.00    +0.000 A 
ATOM      2  C   UNL     1       5.174   4.273  18.475  0.00  0.00    +0.000 A 
ATOM      3  N   UNL     1       3.883   4.310  19.007  0.00  0.00    +0.000 N 
ATOM      4  C   UNL     1       3.262   5.594  18.927  0.00  0.00    +0.000 A 
ATOM      5  C   UNL     1       2.348   6.006  19.901  0.00  0.00    +0.000 A 
ATOM      6  C   UNL     1       1.800   7.291  19.845  0.00  0.00    +0.000 A 
ATOM      7  C   UNL     1       2.143   8.150  18.796  0.00  0.00    +0.000 A 
ATOM      8  I   UNL     1       1.357  10.075  18.754  0.00  0.00    +0.000 I 
ATOM      9  C   UNL     1       3.038   7.747  17.804  0.00  0.00    +0.000 A 
ATOM     10  C   UNL     1       3.619   6.479  17.897  0.00  0.00    +0.000 A 
ATOM     11  C   UNL     1       4.676   6.046  16.943  0.00  0.00    +0.000 A 
ATOM     12  O   UNL     1       4.733   6.529  15.821  0.00  0.00    +0.000 OA
ENDROOT
BRANCH   3  13
ATOM     13  C   UNL     1       3.071   3.233  18.350  0.00  0.00    +0.000 C 
ATOM     14  C   UNL     1       2.103   2.419  19.161  0.00  0.00    +0.000 C 
ATOM     15  C   UNL     1       1.603   3.328  18.076  0.00  0.00    +0.000 C 
ENDBRANCH   3  13
BRANCH   1  17
ATOM     16  O   UNL     1       7.987   5.174  17.583  0.00  0.00    +0.000 OA
ATOM     17  C   UNL     1       6.996   4.762  16.987  0.00  0.00    +0.000 C 
BRANCH  17  18
ATOM     18  O   UNL     1       7.028   4.041  15.847  0.00  0.00    +0.000 OA
BRANCH  18  19
ATOM     19  C   UNL     1       7.147   4.806  14.640  0.00  0.00    +0.000 C 
BRANCH  19  20
ATOM     20  C   UNL     1       6.498   4.115  13.464  0.00  0.00    +0.000 A 
ATOM     21  C   UNL     1       7.288   3.525  12.471  0.00  0.00    +0.000 A 
ATOM     22  C   UNL     1       6.689   2.802  11.431  0.00  0.00    +0.000 A 
ATOM     23  C   UNL     1       5.302   2.672  11.375  0.00  0.00    +0.000 A 
ATOM     24  C   UNL     1       4.509   3.273  12.348  0.00  0.00    +0.000 A 
ATOM     25  C   UNL     1       5.102   3.990  13.386  0.00  0.00    +0.000 A 
ENDBRANCH  19  20
ENDBRANCH  18  19
ENDBRANCH  17  18
ENDBRANCH   1  17
TORSDOF 5
ENDMDL
MODEL 7
REMARK VINA RESULT:      -7.6      3.402      4.761
REMARK  Name = 
REMARK  5 active torsions:
REMARK  status: ('A' for Active; 'I' for Inactive)
REMARK    1  A    between atoms: C_2  and  O_3
REMARK    2  A    between atoms: C_2  and  C_11
REMARK    3  A    between atoms: O_3  and  C_4
REMARK    4  A    between atoms: C_4  and  C_5
REMARK    5  A    between atoms: N_13  and  C_14
REMARK                            x       y       z     vdW  Elec       q    Type
REMARK                         _______ _______ _______ _____ _____    ______ ____
ROOT
ATOM      1  C   UNL     1       5.569   6.124  17.424  0.00  0.00    +0.000 A 
ATOM      2  C   UNL     1       5.566   4.913  18.011  0.00  0.00    +0.000 A 
ATOM      3  N   UNL     1       4.463   4.292  18.601  0.00  0.00    +0.000 N 
ATOM      4  C   UNL     1       3.518   5.206  19.161  0.00  0.00    +0.000 A 
ATOM      5  C   UNL     1       2.765   4.853  20.285  0.00  0.00    +0.000 A 
ATOM      6  C   UNL     1       1.893   5.782  20.861  0.00  0.00    +0.000 A 
ATOM      7  C   UNL     1       1.753   7.052  20.293  0.00  0.00    +0.000 A 
ATOM      8  I   UNL     1       0.490   8.438  21.191  0.00  0.00    +0.000 I 
ATOM      9  C   UNL     1       2.482   7.413  19.159  0.00  0.00    +0.000 A 
ATOM     10  C   UNL     1       3.388   6.496  18.620  0.00  0.00    +0.000 A 
ATOM     11  C   UNL     1       4.285   6.871  17.494  0.00  0.00    +0.000 A 
ATOM     12  O   UNL     1       3.961   7.754  16.713  0.00  0.00    +0.000 OA
ENDROOT
BRANCH   3  13
ATOM     13  C   UNL     1       3.846   3.369  17.593  0.00  0.00    +0.000 C 
ATOM     14  C   UNL     1       3.424   1.985  17.999  0.00  0.00    +0.000 C 
ATOM     15  C   UNL     1       2.397   2.991  17.565  0.00  0.00    +0.000 C 
ENDBRANCH   3  13
BRANCH   1  17
ATOM     16  O   UNL     1       7.451   5.792  16.038  0.00  0.00    +0.000 OA
ATOM     17  C   UNL     1       6.815   6.547  16.768  0.00  0.00    +0.000 C 
BRANCH  17  18
ATOM     18  O   UNL     1       7.171   7.815  17.062  0.00  0.00    +0.000 OA
BRANCH  18  19
ATOM     19  C   UNL     1       8.140   7.952  18.109  0.00  0.00    +0.000 C 
BRANCH  19  20
ATOM     20  C   UNL     1       8.493   9.397  18.369  0.00  0.00    +0.000 A 
ATOM     21  C   UNL     1       9.324   9.738  19.443  0.00  0.00    +0.000 A 
ATOM     22  C   UNL     1       9.728  11.066  19.627  0.00  0.00    +0.000 A 
ATOM     23  C   UNL     1       9.300  12.059  18.747  0.00  0.00    +0.000 A 
ATOM     24  C   UNL     1       8.458  11.732  17.688  0.00  0.00    +0.000 A 
ATOM     25  C   UNL     1       8.056  10.410  17.500  0.00  0.00    +0.000 A 
ENDBRANCH  19  20
ENDBRANCH  18  19
ENDBRANCH  17  18
ENDBRANCH   1  17
TORSDOF 5
ENDMDL
MODEL 8
REMARK VINA RESULT:      -7.5      1.228      1.692
REMARK  Name = 
REMARK  5 active torsions:
REMARK  status: ('A' for Active; 'I' for Inactive)
REMARK    1  A    between atoms: C_2  and  O_3
REMARK    2  A    between atoms: C_2  and  C_11
REMARK    3  A    between atoms: O_3  and  C_4
REMARK    4  A    between atoms: C_4  and  C_5
REMARK    5  A    between atoms: N_13  and  C_14
REMARK                            x       y       z     vdW  Elec       q    Type
REMARK                         _______ _______ _______ _____ _____    ______ ____
ROOT
ATOM      1  C   UNL     1       4.874   6.286  17.842  0.00  0.00    +0.000 A 
ATOM      2  C   UNL     1       4.659   5.451  18.875  0.00  0.00    +0.000 A 
ATOM      3  N   UNL     1       3.458   5.303  19.572  0.00  0.00    +0.000 N 
ATOM      4  C   UNL     1       2.668   6.493  19.620  0.00  0.00    +0.000 A 
ATOM      5  C   UNL     1       1.847   6.760  20.720  0.00  0.00    +0.000 A 
ATOM      6  C   UNL     1       1.132   7.960  20.782  0.00  0.00    +0.000 A 
ATOM      7  C   UNL     1       1.214   8.875  19.728  0.00  0.00    +0.000 A 
ATOM      8  I   UNL     1       0.183  10.677  19.858  0.00  0.00    +0.000 I 
ATOM      9  C   UNL     1       2.013   8.615  18.614  0.00  0.00    +0.000 A 
ATOM     10  C   UNL     1       2.764   7.437  18.584  0.00  0.00    +0.000 A 
ATOM     11  C   UNL     1       3.730   7.168  17.486  0.00  0.00    +0.000 A 
ATOM     12  O   UNL     1       3.571   7.673  16.385  0.00  0.00    +0.000 OA
ENDROOT
BRANCH   3  13
ATOM     13  C   UNL     1       2.715   4.139  18.989  0.00  0.00    +0.000 C 
ATOM     14  C   UNL     1       1.410   3.699  19.593  0.00  0.00    +0.000 C 
ATOM     15  C   UNL     1       1.449   4.253  18.198  0.00  0.00    +0.000 C 
ENDBRANCH   3  13
BRANCH   1  17
ATOM     16  O   UNL     1       6.922   7.185  17.088  0.00  0.00    +0.000 OA
ATOM     17  C   UNL     1       6.184   6.209  17.179  0.00  0.00    +0.000 C 
BRANCH  17  18
ATOM     18  O   UNL     1       6.464   4.983  16.690  0.00  0.00    +0.000 OA
BRANCH  18  19
ATOM     19  C   UNL     1       5.541   4.488  15.710  0.00  0.00    +0.000 C 
BRANCH  19  20
ATOM     20  C   UNL     1       6.181   4.349  14.350  0.00  0.00    +0.000 A 
ATOM     21  C   UNL     1       5.625   3.489  13.395  0.00  0.00    +0.000 A 
ATOM     22  C   UNL     1       6.161   3.430  12.102  0.00  0.00    +0.000 A 
ATOM     23  C   UNL     1       7.255   4.223  11.759  0.00  0.00    +0.000 A 
ATOM     24  C   UNL     1       7.826   5.066  12.709  0.00  0.00    +0.000 A 
ATOM     25  C   UNL     1       7.293   5.129  13.996  0.00  0.00    +0.000 A 
ENDBRANCH  19  20
ENDBRANCH  18  19
ENDBRANCH  17  18
ENDBRANCH   1  17
TORSDOF 5
ENDMDL
MODEL 9
REMARK VINA RESULT:      -7.5      1.008      1.226
REMARK  Name = 
REMARK  5 active torsions:
REMARK  status: ('A' for Active; 'I' for Inactive)
REMARK    1  A    between atoms: C_2  and  O_3
REMARK    2  A    between atoms: C_2  and  C_11
REMARK    3  A    between atoms: O_3  and  C_4
REMARK    4  A    between atoms: C_4  and  C_5
REMARK    5  A    between atoms: N_13  and  C_14
REMARK                            x       y       z     vdW  Elec       q    Type
REMARK                         _______ _______ _______ _____ _____    ______ ____
ROOT
ATOM      1  C   UNL     1       4.831   5.927  17.651  0.00  0.00    +0.000 A 
ATOM      2  C   UNL     1       4.539   4.820  18.359  0.00  0.00    +0.000 A 
ATOM      3  N   UNL     1       3.322   4.547  18.987  0.00  0.00    +0.000 N 
ATOM      4  C   UNL     1       2.627   5.714  19.430  0.00  0.00    +0.000 A 
ATOM      5  C   UNL     1       1.815   5.672  20.568  0.00  0.00    +0.000 A 
ATOM      6  C   UNL     1       1.194   6.838  21.026  0.00  0.00    +0.000 A 
ATOM      7  C   UNL     1       1.360   8.037  20.326  0.00  0.00    +0.000 A 
ATOM      8  I   UNL     1       0.472   9.772  21.049  0.00  0.00    +0.000 I 
ATOM      9  C   UNL     1       2.151   8.092  19.177  0.00  0.00    +0.000 A 
ATOM     10  C   UNL     1       2.807   6.933  18.756  0.00  0.00    +0.000 A 
ATOM     11  C   UNL     1       3.763   6.962  17.616  0.00  0.00    +0.000 A 
ATOM     12  O   UNL     1       3.658   7.809  16.741  0.00  0.00    +0.000 OA
ENDROOT
BRANCH   3  13
ATOM     13  C   UNL     1       2.497   3.697  18.067  0.00  0.00    +0.000 C 
ATOM     14  C   UNL     1       2.630   2.200  18.103  0.00  0.00    +0.000 C 
ATOM     15  C   UNL     1       1.339   2.855  18.503  0.00  0.00    +0.000 C 
ENDBRANCH   3  13
BRANCH   1  17
ATOM     16  O   UNL     1       6.728   7.025  16.775  0.00  0.00    +0.000 OA
ATOM     17  C   UNL     1       6.139   5.968  16.981  0.00  0.00    +0.000 C 
BRANCH  17  18
ATOM     18  O   UNL     1       6.593   4.750  16.620  0.00  0.00    +0.000 OA
BRANCH  18  19
ATOM     19  C   UNL     1       5.758   4.030  15.703  0.00  0.00    +0.000 C 
BRANCH  19  20
ATOM     20  C   UNL     1       6.228   4.175  14.275  0.00  0.00    +0.000 A 
ATOM     21  C   UNL     1       7.313   5.006  13.972  0.00  0.00    +0.000 A 
ATOM     22  C   UNL     1       7.810   5.067  12.664  0.00  0.00    +0.000 A 
ATOM     23  C   UNL     1       7.222   4.306  11.653  0.00  0.00    +0.000 A 
ATOM     24  C   UNL     1       6.130   3.494  11.943  0.00  0.00    +0.000 A 
ATOM     25  C   UNL     1       5.636   3.428  13.245  0.00  0.00    +0.000 A 
ENDBRANCH  19  20
ENDBRANCH  18  19
ENDBRANCH  17  18
ENDBRANCH   1  17
TORSDOF 5
ENDMDL
