MODEL 1
REMARK VINA RESULT:      -8.4      0.000      0.000
REMARK  Name = 
REMARK  9 active torsions:
REMARK  status: ('A' for Active; 'I' for Inactive)
REMARK    1  A    between atoms: C_1  and  C_2
REMARK    2  A    between atoms: C_4  and  N_5
REMARK    3  A    between atoms: N_8  and  N_9
REMARK    4  A    between atoms: N_9  and  C_10
REMARK    5  A    between atoms: C_13  and  N_14
REMARK    6  A    between atoms: N_14  and  C_15
REMARK    7  A    between atoms: N_14  and  C_18
REMARK    8  A    between atoms: C_15  and  C_16
REMARK    9  A    between atoms: C_18  and  C_19
REMARK                            x       y       z     vdW  Elec       q    Type
REMARK                         _______ _______ _______ _____ _____    ______ ____
ROOT
ATOM      1  N   UNL     1       9.219   9.456  19.237  0.00  0.00    +0.000 N 
ATOM      2  C   UNL     1       8.488   8.772  18.280  0.00  0.00    +0.000 C 
ATOM      3  O   UNL     1       8.019   9.222  17.238  0.00  0.00    +0.000 OA
ATOM      4  N   UNL     1       8.302   7.432  18.623  0.00  0.00    +0.000 N 
ATOM      5  H   UNL     1       9.370   8.958  20.101  0.00  0.00    +0.000 HD
ATOM      6  H   UNL     1       9.100   6.967  19.044  0.00  0.00    +0.000 HD
ENDROOT
BRANCH   1  10
ATOM      7  C   UNL     1      11.220  13.258  16.767  0.00  0.00    +0.000 C 
ATOM      8  C   UNL     1      10.590  12.683  17.997  0.00  0.00    +0.000 A 
ATOM      9  C   UNL     1      10.221  11.348  18.041  0.00  0.00    +0.000 A 
ATOM     10  C   UNL     1       9.622  10.825  19.191  0.00  0.00    +0.000 A 
ATOM     11  C   UNL     1       9.432  11.688  20.310  0.00  0.00    +0.000 A 
ATOM     12  C   UNL     1       8.867  11.313  21.561  0.00  0.00    +0.000 A 
ATOM     13  C   UNL     1       8.718  12.232  22.602  0.00  0.00    +0.000 A 
ATOM     14  C   UNL     1       9.125  13.547  22.424  0.00  0.00    +0.000 A 
ATOM     15  C   UNL     1       9.682  13.929  21.207  0.00  0.00    +0.000 A 
ATOM     16  C   UNL     1       9.846  13.035  20.158  0.00  0.00    +0.000 A 
ATOM     17  N   UNL     1      10.402  13.515  19.041  0.00  0.00    +0.000 NA
ENDBRANCH   1  10
BRANCH   4  18
ATOM     18  N   UNL     1       7.725   6.645  17.588  0.00  0.00    +0.000 N 
ATOM     19  H   UNL     1       7.762   7.149  16.689  0.00  0.00    +0.000 HD
BRANCH  18  20
ATOM     20  C   UNL     1       6.412   6.180  17.839  0.00  0.00    +0.000 A 
ATOM     21  C   UNL     1       5.286   6.619  17.146  0.00  0.00    +0.000 A 
ATOM     22  C   UNL     1       3.995   6.192  17.508  0.00  0.00    +0.000 A 
ATOM     23  C   UNL     1       3.760   5.331  18.591  0.00  0.00    +0.000 A 
ATOM     24  C   UNL     1       4.907   4.924  19.292  0.00  0.00    +0.000 A 
ATOM     25  C   UNL     1       6.199   5.347  18.939  0.00  0.00    +0.000 A 
BRANCH  23  26
ATOM     26  N   UNL     1       2.476   4.950  18.967  0.00  0.00    +0.000 N 
BRANCH  26  27
ATOM     27  C   UNL     1       1.670   4.034  18.129  0.00  0.00    +0.000 C 
BRANCH  27  28
ATOM     28  C   UNL     1       2.488   3.090  17.239  0.00  0.00    +0.000 C 
ATOM     29 CL   UNL     1       3.165   1.708  18.135  0.00  0.00    +0.000 Cl
ENDBRANCH  27  28
ENDBRANCH  26  27
BRANCH  26  30
ATOM     30  C   UNL     1       1.981   5.180  20.344  0.00  0.00    +0.000 C 
BRANCH  30  31
ATOM     31  C   UNL     1       1.344   3.923  20.948  0.00  0.00    +0.000 C 
ATOM     32 CL   UNL     1       2.599   2.821  21.573  0.00  0.00    +0.000 Cl
ENDBRANCH  30  31
ENDBRANCH  26  30
ENDBRANCH  23  26
ENDBRANCH  18  20
ENDBRANCH   4  18
TORSDOF 8
ENDMDL
MODEL 2
REMARK VINA RESULT:      -8.3      0.434      1.819
REMARK  Name = 
REMARK  9 active torsions:
REMARK  status: ('A' for Active; 'I' for Inactive)
REMARK    1  A    between atoms: C_1  and  C_2
REMARK    2  A    between atoms: C_4  and  N_5
REMARK    3  A    between atoms: N_8  and  N_9
REMARK    4  A    between atoms: N_9  and  C_10
REMARK    5  A    between atoms: C_13  and  N_14
REMARK    6  A    between atoms: N_14  and  C_15
REMARK    7  A    between atoms: N_14  and  C_18
REMARK    8  A    between atoms: C_15  and  C_16
REMARK    9  A    between atoms: C_18  and  C_19
REMARK                            x       y       z     vdW  Elec       q    Type
REMARK                         _______ _______ _______ _____ _____    ______ ____
ROOT
ATOM      1  N   UNL     1       9.350   9.713  19.325  0.00  0.00    +0.000 N 
ATOM      2  C   UNL     1       8.516   9.080  18.418  0.00  0.00    +0.000 C 
ATOM      3  O   UNL     1       7.899   9.593  17.489  0.00  0.00    +0.000 OA
ATOM      4  N   UNL     1       8.413   7.711  18.670  0.00  0.00    +0.000 N 
ATOM      5  H   UNL     1       9.629   9.154  20.117  0.00  0.00    +0.000 HD
ATOM      6  H   UNL     1       9.271   7.245  18.943  0.00  0.00    +0.000 HD
ENDROOT
BRANCH   1  10
ATOM      7  C   UNL     1      11.294  13.667  17.055  0.00  0.00    +0.000 C 
ATOM      8  C   UNL     1      10.647  13.026  18.243  0.00  0.00    +0.000 A 
ATOM      9  C   UNL     1      10.322  11.679  18.228  0.00  0.00    +0.000 A 
ATOM     10  C   UNL     1       9.708  11.095  19.340  0.00  0.00    +0.000 A 
ATOM     11  C   UNL     1       9.455  11.910  20.482  0.00  0.00    +0.000 A 
ATOM     12  C   UNL     1       8.866  11.471  21.701  0.00  0.00    +0.000 A 
ATOM     13  C   UNL     1       8.655  12.346  22.769  0.00  0.00    +0.000 A 
ATOM     14  C   UNL     1       9.022  13.680  22.651  0.00  0.00    +0.000 A 
ATOM     15  C   UNL     1       9.602  14.124  21.465  0.00  0.00    +0.000 A 
ATOM     16  C   UNL     1       9.827  13.275  20.391  0.00  0.00    +0.000 A 
ATOM     17  N   UNL     1      10.400  13.813  19.310  0.00  0.00    +0.000 NA
ENDBRANCH   1  10
BRANCH   4  18
ATOM     18  N   UNL     1       7.722   6.987  17.659  0.00  0.00    +0.000 N 
ATOM     19  H   UNL     1       7.599   7.573  16.818  0.00  0.00    +0.000 HD
BRANCH  18  20
ATOM     20  C   UNL     1       6.487   6.422  18.053  0.00  0.00    +0.000 A 
ATOM     21  C   UNL     1       6.356   5.455  19.046  0.00  0.00    +0.000 A 
ATOM     22  C   UNL     1       5.112   4.860  19.326  0.00  0.00    +0.000 A 
ATOM     23  C   UNL     1       3.945   5.178  18.614  0.00  0.00    +0.000 A 
ATOM     24  C   UNL     1       4.106   6.135  17.598  0.00  0.00    +0.000 A 
ATOM     25  C   UNL     1       5.345   6.733  17.311  0.00  0.00    +0.000 A 
BRANCH  23  26
ATOM     26  N   UNL     1       2.729   4.553  18.869  0.00  0.00    +0.000 N 
BRANCH  26  27
ATOM     27  C   UNL     1       1.995   4.787  20.132  0.00  0.00    +0.000 C 
BRANCH  27  28
ATOM     28  C   UNL     1       0.912   3.748  20.449  0.00  0.00    +0.000 C 
ATOM     29 CL   UNL     1       1.384   2.634  21.757  0.00  0.00    +0.000 Cl
ENDBRANCH  27  28
ENDBRANCH  26  27
BRANCH  26  30
ATOM     30  C   UNL     1       1.970   3.886  17.787  0.00  0.00    +0.000 C 
BRANCH  30  31
ATOM     31  C   UNL     1       2.682   2.632  17.267  0.00  0.00    +0.000 C 
ATOM     32 CL   UNL     1       3.213   1.603  18.622  0.00  0.00    +0.000 Cl
ENDBRANCH  30  31
ENDBRANCH  26  30
ENDBRANCH  23  26
ENDBRANCH  18  20
ENDBRANCH   4  18
TORSDOF 8
ENDMDL
MODEL 3
REMARK VINA RESULT:      -8.2      0.896      2.487
REMARK  Name = 
REMARK  9 active torsions:
REMARK  status: ('A' for Active; 'I' for Inactive)
REMARK    1  A    between atoms: C_1  and  C_2
REMARK    2  A    between atoms: C_4  and  N_5
REMARK    3  A    between atoms: N_8  and  N_9
REMARK    4  A    between atoms: N_9  and  C_10
REMARK    5  A    between atoms: C_13  and  N_14
REMARK    6  A    between atoms: N_14  and  C_15
REMARK    7  A    between atoms: N_14  and  C_18
REMARK    8  A    between atoms: C_15  and  C_16
REMARK    9  A    between atoms: C_18  and  C_19
REMARK                            x       y       z     vdW  Elec       q    Type
REMARK                         _______ _______ _______ _____ _____    ______ ____
ROOT
ATOM      1  N   UNL     1       9.352   9.712  19.532  0.00  0.00    +0.000 N 
ATOM      2  C   UNL     1       8.454   9.319  18.554  0.00  0.00    +0.000 C 
ATOM      3  O   UNL     1       7.717  10.039  17.885  0.00  0.00    +0.000 OA
ATOM      4  N   UNL     1       8.441   7.934  18.382  0.00  0.00    +0.000 N 
ATOM      5  H   UNL     1       9.740   8.964  20.086  0.00  0.00    +0.000 HD
ATOM      6  H   UNL     1       9.344   7.474  18.420  0.00  0.00    +0.000 HD
ENDROOT
BRANCH   1  10
ATOM      7  C   UNL     1       8.939  13.377  22.842  0.00  0.00    +0.000 C 
ATOM      8  C   UNL     1       9.455  12.837  21.545  0.00  0.00    +0.000 A 
ATOM      9  C   UNL     1       9.148  11.546  21.147  0.00  0.00    +0.000 A 
ATOM     10  C   UNL     1       9.646  11.049  19.939  0.00  0.00    +0.000 A 
ATOM     11  C   UNL     1      10.445  11.908  19.129  0.00  0.00    +0.000 A 
ATOM     12  C   UNL     1      11.006  11.572  17.865  0.00  0.00    +0.000 A 
ATOM     13  C   UNL     1      11.780  12.482  17.142  0.00  0.00    +0.000 A 
ATOM     14  C   UNL     1      12.019  13.747  17.661  0.00  0.00    +0.000 A 
ATOM     15  C   UNL     1      11.476  14.092  18.895  0.00  0.00    +0.000 A 
ATOM     16  C   UNL     1      10.699  13.208  19.631  0.00  0.00    +0.000 A 
ATOM     17  N   UNL     1      10.223  13.655  20.798  0.00  0.00    +0.000 NA
ENDBRANCH   1  10
BRANCH   4  18
ATOM     18  N   UNL     1       7.679   7.497  17.263  0.00  0.00    +0.000 N 
ATOM     19  H   UNL     1       7.473   8.290  16.636  0.00  0.00    +0.000 HD
BRANCH  18  20
ATOM     20  C   UNL     1       6.491   6.794  17.575  0.00  0.00    +0.000 A 
ATOM     21  C   UNL     1       5.258   7.046  16.976  0.00  0.00    +0.000 A 
ATOM     22  C   UNL     1       4.093   6.381  17.398  0.00  0.00    +0.000 A 
ATOM     23  C   UNL     1       4.092   5.454  18.452  0.00  0.00    +0.000 A 
ATOM     24  C   UNL     1       5.340   5.236  19.059  0.00  0.00    +0.000 A 
ATOM     25  C   UNL     1       6.508   5.898  18.645  0.00  0.00    +0.000 A 
BRANCH  23  26
ATOM     26  N   UNL     1       2.926   4.833  18.890  0.00  0.00    +0.000 N 
BRANCH  26  27
ATOM     27  C   UNL     1       2.095   4.024  17.972  0.00  0.00    +0.000 C 
BRANCH  27  28
ATOM     28  C   UNL     1       2.789   2.781  17.401  0.00  0.00    +0.000 C 
ATOM     29 CL   UNL     1       3.625   1.822  18.648  0.00  0.00    +0.000 Cl
ENDBRANCH  27  28
ENDBRANCH  26  27
BRANCH  26  30
ATOM     30  C   UNL     1       2.632   4.690  20.334  0.00  0.00    +0.000 C 
BRANCH  30  31
ATOM     31  C   UNL     1       1.251   4.075  20.586  0.00  0.00    +0.000 C 
ATOM     32 CL   UNL     1       1.385   2.636  21.630  0.00  0.00    +0.000 Cl
ENDBRANCH  30  31
ENDBRANCH  26  30
ENDBRANCH  23  26
ENDBRANCH  18  20
ENDBRANCH   4  18
TORSDOF 8
ENDMDL
MODEL 4
REMARK VINA RESULT:      -7.8      1.279      1.721
REMARK  Name = 
REMARK  9 active torsions:
REMARK  status: ('A' for Active; 'I' for Inactive)
REMARK    1  A    between atoms: C_1  and  C_2
REMARK    2  A    between atoms: C_4  and  N_5
REMARK    3  A    between atoms: N_8  and  N_9
REMARK    4  A    between atoms: N_9  and  C_10
REMARK    5  A    between atoms: C_13  and  N_14
REMARK    6  A    between atoms: N_14  and  C_15
REMARK    7  A    between atoms: N_14  and  C_18
REMARK    8  A    between atoms: C_15  and  C_16
REMARK    9  A    between atoms: C_18  and  C_19
REMARK                            x       y       z     vdW  Elec       q    Type
REMARK                         _______ _______ _______ _____ _____    ______ ____
ROOT
ATOM      1  N   UNL     1       9.490   9.947  19.587  0.00  0.00    +0.000 N 
ATOM      2  C   UNL     1       8.720   9.557  18.504  0.00  0.00    +0.000 C 
ATOM      3  O   UNL     1       8.259  10.274  17.620  0.00  0.00    +0.000 OA
ATOM      4  N   UNL     1       8.479   8.182  18.502  0.00  0.00    +0.000 N 
ATOM      5  H   UNL     1       9.629   9.240  20.293  0.00  0.00    +0.000 HD
ATOM      6  H   UNL     1       9.260   7.595  18.774  0.00  0.00    +0.000 HD
ENDROOT
BRANCH   1  10
ATOM      7  C   UNL     1      12.333  13.844  18.454  0.00  0.00    +0.000 C 
ATOM      8  C   UNL     1      11.329  13.169  19.334  0.00  0.00    +0.000 A 
ATOM      9  C   UNL     1      10.901  11.881  19.055  0.00  0.00    +0.000 A 
ATOM     10  C   UNL     1       9.953  11.265  19.879  0.00  0.00    +0.000 A 
ATOM     11  C   UNL     1       9.471  11.983  21.013  0.00  0.00    +0.000 A 
ATOM     12  C   UNL     1       8.531  11.495  21.965  0.00  0.00    +0.000 A 
ATOM     13  C   UNL     1       8.114  12.274  23.046  0.00  0.00    +0.000 A 
ATOM     14  C   UNL     1       8.619  13.557  23.206  0.00  0.00    +0.000 A 
ATOM     15  C   UNL     1       9.540  14.047  22.285  0.00  0.00    +0.000 A 
ATOM     16  C   UNL     1       9.975  13.293  21.204  0.00  0.00    +0.000 A 
ATOM     17  N   UNL     1      10.870  13.866  20.393  0.00  0.00    +0.000 NA
ENDBRANCH   1  10
BRANCH   4  18
ATOM     18  N   UNL     1       7.856   7.706  17.314  0.00  0.00    +0.000 N 
ATOM     19  H   UNL     1       7.567   8.497  16.718  0.00  0.00    +0.000 HD
BRANCH  18  20
ATOM     20  C   UNL     1       6.774   6.816  17.512  0.00  0.00    +0.000 A 
ATOM     21  C   UNL     1       6.869   5.624  18.227  0.00  0.00    +0.000 A 
ATOM     22  C   UNL     1       5.783   4.733  18.306  0.00  0.00    +0.000 A 
ATOM     23  C   UNL     1       4.563   4.969  17.656  0.00  0.00    +0.000 A 
ATOM     24  C   UNL     1       4.499   6.162  16.917  0.00  0.00    +0.000 A 
ATOM     25  C   UNL     1       5.579   7.057  16.832  0.00  0.00    +0.000 A 
BRANCH  23  26
ATOM     26  N   UNL     1       3.510   4.060  17.705  0.00  0.00    +0.000 N 
BRANCH  26  27
ATOM     27  C   UNL     1       3.751   2.602  17.645  0.00  0.00    +0.000 C 
BRANCH  27  28
ATOM     28  C   UNL     1       3.308   1.825  18.891  0.00  0.00    +0.000 C 
ATOM     29 CL   UNL     1       4.341   2.141  20.308  0.00  0.00    +0.000 Cl
ENDBRANCH  27  28
ENDBRANCH  26  27
BRANCH  26  30
ATOM     30  C   UNL     1       2.155   4.481  18.127  0.00  0.00    +0.000 C 
BRANCH  30  31
ATOM     31  C   UNL     1       2.169   5.212  19.475  0.00  0.00    +0.000 C 
ATOM     32 CL   UNL     1       1.062   4.423  20.628  0.00  0.00    +0.000 Cl
ENDBRANCH  30  31
ENDBRANCH  26  30
ENDBRANCH  23  26
ENDBRANCH  18  20
ENDBRANCH   4  18
TORSDOF 8
ENDMDL
MODEL 5
REMARK VINA RESULT:      -7.8      1.629      2.872
REMARK  Name = 
REMARK  9 active torsions:
REMARK  status: ('A' for Active; 'I' for Inactive)
REMARK    1  A    between atoms: C_1  and  C_2
REMARK    2  A    between atoms: C_4  and  N_5
REMARK    3  A    between atoms: N_8  and  N_9
REMARK    4  A    between atoms: N_9  and  C_10
REMARK    5  A    between atoms: C_13  and  N_14
REMARK    6  A    between atoms: N_14  and  C_15
REMARK    7  A    between atoms: N_14  and  C_18
REMARK    8  A    between atoms: C_15  and  C_16
REMARK    9  A    between atoms: C_18  and  C_19
REMARK                            x       y       z     vdW  Elec       q    Type
REMARK                         _______ _______ _______ _____ _____    ______ ____
ROOT
ATOM      1  N   UNL     1       9.338   9.827  19.651  0.00  0.00    +0.000 N 
ATOM      2  C   UNL     1       8.531   9.503  18.573  0.00  0.00    +0.000 C 
ATOM      3  O   UNL     1       7.908  10.274  17.849  0.00  0.00    +0.000 OA
ATOM      4  N   UNL     1       8.467   8.124  18.364  0.00  0.00    +0.000 N 
ATOM      5  H   UNL     1       9.626   9.048  20.223  0.00  0.00    +0.000 HD
ATOM      6  H   UNL     1       9.337   7.616  18.485  0.00  0.00    +0.000 HD
ENDROOT
BRANCH   1  10
ATOM      7  C   UNL     1       8.799  13.419  23.022  0.00  0.00    +0.000 C 
ATOM      8  C   UNL     1       9.403  12.890  21.759  0.00  0.00    +0.000 A 
ATOM      9  C   UNL     1       9.075  11.625  21.297  0.00  0.00    +0.000 A 
ATOM     10  C   UNL     1       9.654  11.137  20.121  0.00  0.00    +0.000 A 
ATOM     11  C   UNL     1      10.558  11.980  19.410  0.00  0.00    +0.000 A 
ATOM     12  C   UNL     1      11.211  11.651  18.189  0.00  0.00    +0.000 A 
ATOM     13  C   UNL     1      12.085  12.543  17.563  0.00  0.00    +0.000 A 
ATOM     14  C   UNL     1      12.333  13.782  18.138  0.00  0.00    +0.000 A 
ATOM     15  C   UNL     1      11.700  14.119  19.331  0.00  0.00    +0.000 A 
ATOM     16  C   UNL     1      10.824  13.253  19.971  0.00  0.00    +0.000 A 
ATOM     17  N   UNL     1      10.268  13.691  21.105  0.00  0.00    +0.000 NA
ENDBRANCH   1  10
BRANCH   4  18
ATOM     18  N   UNL     1       7.808   7.752  17.159  0.00  0.00    +0.000 N 
ATOM     19  H   UNL     1       7.503   8.591  16.642  0.00  0.00    +0.000 HD
BRANCH  18  20
ATOM     20  C   UNL     1       6.731   6.847  17.311  0.00  0.00    +0.000 A 
ATOM     21  C   UNL     1       5.569   6.885  16.543  0.00  0.00    +0.000 A 
ATOM     22  C   UNL     1       4.492   6.020  16.807  0.00  0.00    +0.000 A 
ATOM     23  C   UNL     1       4.507   5.095  17.862  0.00  0.00    +0.000 A 
ATOM     24  C   UNL     1       5.676   5.093  18.640  0.00  0.00    +0.000 A 
ATOM     25  C   UNL     1       6.756   5.955  18.385  0.00  0.00    +0.000 A 
BRANCH  23  26
ATOM     26  N   UNL     1       3.419   4.274  18.141  0.00  0.00    +0.000 N 
BRANCH  26  27
ATOM     27  C   UNL     1       3.579   2.810  18.291  0.00  0.00    +0.000 C 
BRANCH  27  28
ATOM     28  C   UNL     1       3.354   2.281  19.713  0.00  0.00    +0.000 C 
ATOM     29 CL   UNL     1       4.869   1.806  20.522  0.00  0.00    +0.000 Cl
ENDBRANCH  27  28
ENDBRANCH  26  27
BRANCH  26  30
ATOM     30  C   UNL     1       2.132   4.840  18.605  0.00  0.00    +0.000 C 
BRANCH  30  31
ATOM     31  C   UNL     1       2.303   5.735  19.838  0.00  0.00    +0.000 C 
ATOM     32 CL   UNL     1       2.267   7.456  19.375  0.00  0.00    +0.000 Cl
ENDBRANCH  30  31
ENDBRANCH  26  30
ENDBRANCH  23  26
ENDBRANCH  18  20
ENDBRANCH   4  18
TORSDOF 8
ENDMDL
MODEL 6
REMARK VINA RESULT:      -7.6      1.289      1.972
REMARK  Name = 
REMARK  9 active torsions:
REMARK  status: ('A' for Active; 'I' for Inactive)
REMARK    1  A    between atoms: C_1  and  C_2
REMARK    2  A    between atoms: C_4  and  N_5
REMARK    3  A    between atoms: N_8  and  N_9
REMARK    4  A    between atoms: N_9  and  C_10
REMARK    5  A    between atoms: C_13  and  N_14
REMARK    6  A    between atoms: N_14  and  C_15
REMARK    7  A    between atoms: N_14  and  C_18
REMARK    8  A    between atoms: C_15  and  C_16
REMARK    9  A    between atoms: C_18  and  C_19
REMARK                            x       y       z     vdW  Elec       q    Type
REMARK                         _______ _______ _______ _____ _____    ______ ____
ROOT
ATOM      1  N   UNL     1       9.520  10.061  19.193  0.00  0.00    +0.000 N 
ATOM      2  C   UNL     1       8.582   9.599  18.285  0.00  0.00    +0.000 C 
ATOM      3  O   UNL     1       7.902  10.266  17.511  0.00  0.00    +0.000 OA
ATOM      4  N   UNL     1       8.451   8.210  18.331  0.00  0.00    +0.000 N 
ATOM      5  H   UNL     1       9.850   9.378  19.858  0.00  0.00    +0.000 HD
ATOM      6  H   UNL     1       9.313   7.687  18.442  0.00  0.00    +0.000 HD
ENDROOT
BRANCH   1  10
ATOM      7  C   UNL     1      11.921  14.089  17.589  0.00  0.00    +0.000 C 
ATOM      8  C   UNL     1      11.092  13.382  18.614  0.00  0.00    +0.000 A 
ATOM      9  C   UNL     1      10.715  12.061  18.427  0.00  0.00    +0.000 A 
ATOM     10  C   UNL     1       9.930  11.415  19.388  0.00  0.00    +0.000 A 
ATOM     11  C   UNL     1       9.558  12.138  20.558  0.00  0.00    +0.000 A 
ATOM     12  C   UNL     1       8.789  11.625  21.641  0.00  0.00    +0.000 A 
ATOM     13  C   UNL     1       8.471  12.412  22.750  0.00  0.00    +0.000 A 
ATOM     14  C   UNL     1       8.906  13.729  22.809  0.00  0.00    +0.000 A 
ATOM     15  C   UNL     1       9.661  14.244  21.759  0.00  0.00    +0.000 A 
ATOM     16  C   UNL     1       9.996  13.483  20.648  0.00  0.00    +0.000 A 
ATOM     17  N   UNL     1      10.734  14.083  19.708  0.00  0.00    +0.000 NA
ENDBRANCH   1  10
BRANCH   4  18
ATOM     18  N   UNL     1       7.643   7.671  17.291  0.00  0.00    +0.000 N 
ATOM     19  H   UNL     1       7.266   8.428  16.700  0.00  0.00    +0.000 HD
BRANCH  18  20
ATOM     20  C   UNL     1       6.602   6.811  17.715  0.00  0.00    +0.000 A 
ATOM     21  C   UNL     1       5.281   6.918  17.286  0.00  0.00    +0.000 A 
ATOM     22  C   UNL     1       4.272   6.095  17.818  0.00  0.00    +0.000 A 
ATOM     23  C   UNL     1       4.522   5.146  18.821  0.00  0.00    +0.000 A 
ATOM     24  C   UNL     1       5.855   5.074  19.258  0.00  0.00    +0.000 A 
ATOM     25  C   UNL     1       6.869   5.894  18.734  0.00  0.00    +0.000 A 
BRANCH  23  26
ATOM     26  N   UNL     1       3.509   4.367  19.371  0.00  0.00    +0.000 N 
BRANCH  26  27
ATOM     27  C   UNL     1       2.110   4.845  19.414  0.00  0.00    +0.000 C 
BRANCH  27  28
ATOM     28  C   UNL     1       1.682   5.465  20.750  0.00  0.00    +0.000 C 
ATOM     29 CL   UNL     1       1.648   7.246  20.707  0.00  0.00    +0.000 Cl
ENDBRANCH  27  28
ENDBRANCH  26  27
BRANCH  26  30
ATOM     30  C   UNL     1       3.716   2.927  19.648  0.00  0.00    +0.000 C 
BRANCH  30  31
ATOM     31  C   UNL     1       2.609   2.056  19.044  0.00  0.00    +0.000 C 
ATOM     32 CL   UNL     1       2.633   2.154  17.264  0.00  0.00    +0.000 Cl
ENDBRANCH  30  31
ENDBRANCH  26  30
ENDBRANCH  23  26
ENDBRANCH  18  20
ENDBRANCH   4  18
TORSDOF 8
ENDMDL
MODEL 7
REMARK VINA RESULT:      -7.6      7.106     10.348
REMARK  Name = 
REMARK  9 active torsions:
REMARK  status: ('A' for Active; 'I' for Inactive)
REMARK    1  A    between atoms: C_1  and  C_2
REMARK    2  A    between atoms: C_4  and  N_5
REMARK    3  A    between atoms: N_8  and  N_9
REMARK    4  A    between atoms: N_9  and  C_10
REMARK    5  A    between atoms: C_13  and  N_14
REMARK    6  A    between atoms: N_14  and  C_15
REMARK    7  A    between atoms: N_14  and  C_18
REMARK    8  A    between atoms: C_15  and  C_16
REMARK    9  A    between atoms: C_18  and  C_19
REMARK                            x       y       z     vdW  Elec       q    Type
REMARK                         _______ _______ _______ _____ _____    ______ ____
ROOT
ATOM      1  N   UNL     1       2.256   7.336  18.795  0.00  0.00    +0.000 N 
ATOM      2  C   UNL     1       1.976   8.539  18.170  0.00  0.00    +0.000 C 
ATOM      3  O   UNL     1       2.392   8.929  17.083  0.00  0.00    +0.000 OA
ATOM      4  N   UNL     1       1.129   9.342  18.936  0.00  0.00    +0.000 N 
ATOM      5  H   UNL     1       1.959   7.271  19.757  0.00  0.00    +0.000 HD
ATOM      6  H   UNL     1       0.375   8.861  19.415  0.00  0.00    +0.000 HD
ENDROOT
BRANCH   1  10
ATOM      7  C   UNL     1       6.339   5.770  16.464  0.00  0.00    +0.000 C 
ATOM      8  C   UNL     1       5.039   5.495  17.154  0.00  0.00    +0.000 A 
ATOM      9  C   UNL     1       4.261   6.538  17.630  0.00  0.00    +0.000 A 
ATOM     10  C   UNL     1       3.054   6.268  18.283  0.00  0.00    +0.000 A 
ATOM     11  C   UNL     1       2.644   4.910  18.417  0.00  0.00    +0.000 A 
ATOM     12  C   UNL     1       1.437   4.464  19.027  0.00  0.00    +0.000 A 
ATOM     13  C   UNL     1       1.120   3.106  19.115  0.00  0.00    +0.000 A 
ATOM     14  C   UNL     1       1.995   2.159  18.602  0.00  0.00    +0.000 A 
ATOM     15  C   UNL     1       3.178   2.580  18.000  0.00  0.00    +0.000 A 
ATOM     16  C   UNL     1       3.516   3.922  17.895  0.00  0.00    +0.000 A 
ATOM     17  N   UNL     1       4.672   4.205  17.288  0.00  0.00    +0.000 NA
ENDBRANCH   1  10
BRANCH   4  18
ATOM     18  N   UNL     1       0.661  10.502  18.258  0.00  0.00    +0.000 N 
ATOM     19  H   UNL     1       1.126  11.346  18.627  0.00  0.00    +0.000 HD
BRANCH  18  20
ATOM     20  C   UNL     1      -0.743  10.675  18.249  0.00  0.00    +0.000 A 
ATOM     21  C   UNL     1      -1.590  10.109  17.299  0.00  0.00    +0.000 A 
ATOM     22  C   UNL     1      -2.967  10.398  17.286  0.00  0.00    +0.000 A 
ATOM     23  C   UNL     1      -3.562  11.282  18.198  0.00  0.00    +0.000 A 
ATOM     24  C   UNL     1      -2.685  11.863  19.129  0.00  0.00    +0.000 A 
ATOM     25  C   UNL     1      -1.308  11.581  19.148  0.00  0.00    +0.000 A 
BRANCH  23  26
ATOM     26  N   UNL     1      -4.918  11.594  18.150  0.00  0.00    +0.000 N 
BRANCH  26  27
ATOM     27  C   UNL     1      -5.734  11.667  19.381  0.00  0.00    +0.000 C 
BRANCH  27  28
ATOM     28  C   UNL     1      -6.653  10.462  19.617  0.00  0.00    +0.000 C 
ATOM     29 CL   UNL     1      -7.916  10.782  20.831  0.00  0.00    +0.000 Cl
ENDBRANCH  27  28
ENDBRANCH  26  27
BRANCH  26  30
ATOM     30  C   UNL     1      -5.528  12.165  16.927  0.00  0.00    +0.000 C 
BRANCH  30  31
ATOM     31  C   UNL     1      -6.834  12.910  17.225  0.00  0.00    +0.000 C 
ATOM     32 CL   UNL     1      -6.737  14.599  16.661  0.00  0.00    +0.000 Cl
ENDBRANCH  30  31
ENDBRANCH  26  30
ENDBRANCH  23  26
ENDBRANCH  18  20
ENDBRANCH   4  18
TORSDOF 8
ENDMDL
MODEL 8
REMARK VINA RESULT:      -7.6      1.373      1.492
REMARK  Name = 
REMARK  9 active torsions:
REMARK  status: ('A' for Active; 'I' for Inactive)
REMARK    1  A    between atoms: C_1  and  C_2
REMARK    2  A    between atoms: C_4  and  N_5
REMARK    3  A    between atoms: N_8  and  N_9
REMARK    4  A    between atoms: N_9  and  C_10
REMARK    5  A    between atoms: C_13  and  N_14
REMARK    6  A    between atoms: N_14  and  C_15
REMARK    7  A    between atoms: N_14  and  C_18
REMARK    8  A    between atoms: C_15  and  C_16
REMARK    9  A    between atoms: C_18  and  C_19
REMARK                            x       y       z     vdW  Elec       q    Type
REMARK                         _______ _______ _______ _____ _____    ______ ____
ROOT
ATOM      1  N   UNL     1       9.497   9.959  19.524  0.00  0.00    +0.000 N 
ATOM      2  C   UNL     1       8.668   9.543  18.495  0.00  0.00    +0.000 C 
ATOM      3  O   UNL     1       8.169  10.238  17.614  0.00  0.00    +0.000 OA
ATOM      4  N   UNL     1       8.416   8.172  18.548  0.00  0.00    +0.000 N 
ATOM      5  H   UNL     1       9.666   9.272  20.244  0.00  0.00    +0.000 HD
ATOM      6  H   UNL     1       9.204   7.585  18.798  0.00  0.00    +0.000 HD
ENDROOT
BRANCH   1  10
ATOM      7  C   UNL     1      12.333  13.780  18.139  0.00  0.00    +0.000 C 
ATOM      8  C   UNL     1      11.359  13.147  19.083  0.00  0.00    +0.000 A 
ATOM      9  C   UNL     1      10.905  11.856  18.867  0.00  0.00    +0.000 A 
ATOM     10  C   UNL     1       9.986  11.280  19.751  0.00  0.00    +0.000 A 
ATOM     11  C   UNL     1       9.559  12.043  20.877  0.00  0.00    +0.000 A 
ATOM     12  C   UNL     1       8.654  11.600  21.883  0.00  0.00    +0.000 A 
ATOM     13  C   UNL     1       8.291  12.421  22.953  0.00  0.00    +0.000 A 
ATOM     14  C   UNL     1       8.815  13.703  23.047  0.00  0.00    +0.000 A 
ATOM     15  C   UNL     1       9.703  14.149  22.072  0.00  0.00    +0.000 A 
ATOM     16  C   UNL     1      10.085  13.352  21.002  0.00  0.00    +0.000 A 
ATOM     17  N   UNL     1      10.951  13.886  20.135  0.00  0.00    +0.000 NA
ENDBRANCH   1  10
BRANCH   4  18
ATOM     18  N   UNL     1       7.728   7.666  17.410  0.00  0.00    +0.000 N 
ATOM     19  H   UNL     1       7.193   8.418  16.949  0.00  0.00    +0.000 HD
BRANCH  18  20
ATOM     20  C   UNL     1       6.897   6.546  17.650  0.00  0.00    +0.000 A 
ATOM     21  C   UNL     1       5.860   6.152  16.808  0.00  0.00    +0.000 A 
ATOM     22  C   UNL     1       5.006   5.088  17.151  0.00  0.00    +0.000 A 
ATOM     23  C   UNL     1       5.127   4.382  18.358  0.00  0.00    +0.000 A 
ATOM     24  C   UNL     1       6.162   4.814  19.204  0.00  0.00    +0.000 A 
ATOM     25  C   UNL     1       7.017   5.877  18.870  0.00  0.00    +0.000 A 
BRANCH  23  26
ATOM     26  N   UNL     1       4.250   3.359  18.707  0.00  0.00    +0.000 N 
BRANCH  26  27
ATOM     27  C   UNL     1       3.534   2.576  17.676  0.00  0.00    +0.000 C 
BRANCH  27  28
ATOM     28  C   UNL     1       2.235   3.215  17.169  0.00  0.00    +0.000 C 
ATOM     29 CL   UNL     1       1.815   4.711  18.041  0.00  0.00    +0.000 Cl
ENDBRANCH  27  28
ENDBRANCH  26  27
BRANCH  26  30
ATOM     30  C   UNL     1       4.230   2.803  20.079  0.00  0.00    +0.000 C 
BRANCH  30  31
ATOM     31  C   UNL     1       2.824   2.817  20.690  0.00  0.00    +0.000 C 
ATOM     32 CL   UNL     1       2.401   4.455  21.253  0.00  0.00    +0.000 Cl
ENDBRANCH  30  31
ENDBRANCH  26  30
ENDBRANCH  23  26
ENDBRANCH  18  20
ENDBRANCH   4  18
TORSDOF 8
ENDMDL
MODEL 9
REMARK VINA RESULT:      -7.5      1.075      1.665
REMARK  Name = 
REMARK  9 active torsions:
REMARK  status: ('A' for Active; 'I' for Inactive)
REMARK    1  A    between atoms: C_1  and  C_2
REMARK    2  A    between atoms: C_4  and  N_5
REMARK    3  A    between atoms: N_8  and  N_9
REMARK    4  A    between atoms: N_9  and  C_10
REMARK    5  A    between atoms: C_13  and  N_14
REMARK    6  A    between atoms: N_14  and  C_15
REMARK    7  A    between atoms: N_14  and  C_18
REMARK    8  A    between atoms: C_15  and  C_16
REMARK    9  A    between atoms: C_18  and  C_19
REMARK                            x       y       z     vdW  Elec       q    Type
REMARK                         _______ _______ _______ _____ _____    ______ ____
ROOT
ATOM      1  N   UNL     1       9.281   9.613  19.444  0.00  0.00    +0.000 N 
ATOM      2  C   UNL     1       8.584   8.954  18.445  0.00  0.00    +0.000 C 
ATOM      3  O   UNL     1       8.101   9.443  17.428  0.00  0.00    +0.000 OA
ATOM      4  N   UNL     1       8.454   7.590  18.710  0.00  0.00    +0.000 N 
ATOM      5  H   UNL     1       9.450   9.073  20.280  0.00  0.00    +0.000 HD
ATOM      6  H   UNL     1       9.268   7.136  19.109  0.00  0.00    +0.000 HD
ENDROOT
BRANCH   1  10
ATOM      7  C   UNL     1      11.242  13.601  17.250  0.00  0.00    +0.000 C 
ATOM      8  C   UNL     1      10.575  12.945  18.419  0.00  0.00    +0.000 A 
ATOM      9  C   UNL     1      10.261  11.596  18.385  0.00  0.00    +0.000 A 
ATOM     10  C   UNL     1       9.628  10.997  19.479  0.00  0.00    +0.000 A 
ATOM     11  C   UNL     1       9.344  11.801  20.622  0.00  0.00    +0.000 A 
ATOM     12  C   UNL     1       8.731  11.347  21.824  0.00  0.00    +0.000 A 
ATOM     13  C   UNL     1       8.490  12.211  22.894  0.00  0.00    +0.000 A 
ATOM     14  C   UNL     1       8.849  13.548  22.795  0.00  0.00    +0.000 A 
ATOM     15  C   UNL     1       9.450  14.007  21.626  0.00  0.00    +0.000 A 
ATOM     16  C   UNL     1       9.706  13.169  20.550  0.00  0.00    +0.000 A 
ATOM     17  N   UNL     1      10.298  13.721  19.486  0.00  0.00    +0.000 NA
ENDBRANCH   1  10
BRANCH   4  18
ATOM     18  N   UNL     1       7.914   6.840  17.628  0.00  0.00    +0.000 N 
ATOM     19  H   UNL     1       7.809   7.437  16.794  0.00  0.00    +0.000 HD
BRANCH  18  20
ATOM     20  C   UNL     1       6.704   6.161  17.905  0.00  0.00    +0.000 A 
ATOM     21  C   UNL     1       6.429   5.522  19.112  0.00  0.00    +0.000 A 
ATOM     22  C   UNL     1       5.247   4.781  19.291  0.00  0.00    +0.000 A 
ATOM     23  C   UNL     1       4.296   4.616  18.273  0.00  0.00    +0.000 A 
ATOM     24  C   UNL     1       4.607   5.246  17.056  0.00  0.00    +0.000 A 
ATOM     25  C   UNL     1       5.786   5.987  16.868  0.00  0.00    +0.000 A 
BRANCH  23  26
ATOM     26  N   UNL     1       3.151   3.845  18.447  0.00  0.00    +0.000 N 
BRANCH  26  27
ATOM     27  C   UNL     1       3.206   2.531  19.124  0.00  0.00    +0.000 C 
BRANCH  27  28
ATOM     28  C   UNL     1       1.921   2.132  19.861  0.00  0.00    +0.000 C 
ATOM     29 CL   UNL     1       1.953   2.564  21.590  0.00  0.00    +0.000 Cl
ENDBRANCH  27  28
ENDBRANCH  26  27
BRANCH  26  30
ATOM     30  C   UNL     1       1.802   4.424  18.254  0.00  0.00    +0.000 C 
BRANCH  30  31
ATOM     31  C   UNL     1       1.694   5.845  18.820  0.00  0.00    +0.000 C 
ATOM     32 CL   UNL     1       1.730   5.815  20.602  0.00  0.00    +0.000 Cl
ENDBRANCH  30  31
ENDBRANCH  26  30
ENDBRANCH  23  26
ENDBRANCH  18  20
ENDBRANCH   4  18
TORSDOF 8
ENDMDL
