MODEL 1
REMARK VINA RESULT:      -7.6      0.000      0.000
REMARK  Name = 
REMARK  3 active torsions:
REMARK  status: ('A' for Active; 'I' for Inactive)
REMARK    1  A    between atoms: C_1  and  N_2
REMARK    2  A    between atoms: C_3  and  C_5
REMARK    3  A    between atoms: N_11  and  C_12
REMARK                            x       y       z     vdW  Elec       q    Type
REMARK                         _______ _______ _______ _____ _____    ______ ____
ROOT
ATOM      1  C   UNL     1       6.512   4.103  15.780  0.00  0.00    +0.000 C 
ATOM      2  C   UNL     1       6.604   5.243  16.801  0.00  0.00    +0.000 C 
ATOM      3  C   UNL     1       5.573   4.867  17.848  0.00  0.00    +0.000 C 
ATOM      4  N   UNL     1       4.510   4.241  17.076  0.00  0.00    +0.000 N 
ATOM      5  C   UNL     1       3.207   3.998  17.443  0.00  0.00    +0.000 C 
ATOM      6  O   UNL     1       2.449   3.312  16.757  0.00  0.00    +0.000 OA
ATOM      7  N   UNL     1       2.824   4.556  18.635  0.00  0.00    +0.000 N 
ATOM      8  C   UNL     1       5.027   3.733  15.810  0.00  0.00    +0.000 C 
ATOM      9  H   UNL     1       3.321   5.393  18.892  0.00  0.00    +0.000 HD
ENDROOT
BRANCH   7  10
ATOM     10  C   UNL     1       1.483   4.396  19.195  0.00  0.00    +0.000 C 
ATOM     11  C   UNL     1       1.071   2.921  19.187  0.00  0.00    +0.000 C 
ATOM     12  C   UNL     1       1.952   2.079  20.101  0.00  0.00    +0.000 C 
ATOM     13  C   UNL     1       2.016   2.615  21.530  0.00  0.00    +0.000 C 
ATOM     14  C   UNL     1       2.150   4.134  21.654  0.00  0.00    +0.000 C 
ATOM     15  C   UNL     1       1.358   4.940  20.623  0.00  0.00    +0.000 C 
ENDBRANCH   7  10
BRANCH   1  18
ATOM     16  C   UNL     1       6.948   3.990  12.009  0.00  0.00    +0.000 C 
ATOM     17  N   UNL     1       6.547   3.716  13.369  0.00  0.00    +0.000 N 
ATOM     18  C   UNL     1       6.983   4.521  14.399  0.00  0.00    +0.000 C 
ATOM     19  O   UNL     1       7.723   5.485  14.211  0.00  0.00    +0.000 OA
ATOM     20  H   UNL     1       6.031   2.868  13.565  0.00  0.00    +0.000 HD
ENDBRANCH   1  18
TORSDOF 2
ENDMDL
MODEL 2
REMARK VINA RESULT:      -7.6      0.990      1.254
REMARK  Name = 
REMARK  3 active torsions:
REMARK  status: ('A' for Active; 'I' for Inactive)
REMARK    1  A    between atoms: C_1  and  N_2
REMARK    2  A    between atoms: C_3  and  C_5
REMARK    3  A    between atoms: N_11  and  C_12
REMARK                            x       y       z     vdW  Elec       q    Type
REMARK                         _______ _______ _______ _____ _____    ______ ____
ROOT
ATOM      1  C   UNL     1       6.415   4.877  15.610  0.00  0.00    +0.000 C 
ATOM      2  C   UNL     1       5.339   5.959  15.758  0.00  0.00    +0.000 C 
ATOM      3  C   UNL     1       4.524   5.491  16.948  0.00  0.00    +0.000 C 
ATOM      4  N   UNL     1       4.536   4.041  16.825  0.00  0.00    +0.000 N 
ATOM      5  C   UNL     1       3.711   3.118  17.426  0.00  0.00    +0.000 C 
ATOM      6  O   UNL     1       3.929   1.908  17.368  0.00  0.00    +0.000 OA
ATOM      7  N   UNL     1       2.648   3.647  18.109  0.00  0.00    +0.000 N 
ATOM      8  C   UNL     1       5.683   3.603  16.037  0.00  0.00    +0.000 C 
ATOM      9  H   UNL     1       2.321   4.536  17.767  0.00  0.00    +0.000 HD
ENDROOT
BRANCH   7  10
ATOM     10  C   UNL     1       1.671   2.824  18.822  0.00  0.00    +0.000 C 
ATOM     11  C   UNL     1       2.375   1.902  19.821  0.00  0.00    +0.000 C 
ATOM     12  C   UNL     1       3.071   2.684  20.927  0.00  0.00    +0.000 C 
ATOM     13  C   UNL     1       2.140   3.653  21.651  0.00  0.00    +0.000 C 
ATOM     14  C   UNL     1       1.183   4.438  20.751  0.00  0.00    +0.000 C 
ATOM     15  C   UNL     1       0.617   3.652  19.567  0.00  0.00    +0.000 C 
ENDBRANCH   7  10
BRANCH   1  18
ATOM     16  C   UNL     1       6.857   3.598  12.061  0.00  0.00    +0.000 C 
ATOM     17  N   UNL     1       6.403   3.802  13.417  0.00  0.00    +0.000 N 
ATOM     18  C   UNL     1       6.962   4.792  14.197  0.00  0.00    +0.000 C 
ATOM     19  O   UNL     1       7.858   5.525  13.783  0.00  0.00    +0.000 OA
ATOM     20  H   UNL     1       5.748   3.143  13.817  0.00  0.00    +0.000 HD
ENDBRANCH   1  18
TORSDOF 2
ENDMDL
MODEL 3
REMARK VINA RESULT:      -7.5      1.475      2.135
REMARK  Name = 
REMARK  3 active torsions:
REMARK  status: ('A' for Active; 'I' for Inactive)
REMARK    1  A    between atoms: C_1  and  N_2
REMARK    2  A    between atoms: C_3  and  C_5
REMARK    3  A    between atoms: N_11  and  C_12
REMARK                            x       y       z     vdW  Elec       q    Type
REMARK                         _______ _______ _______ _____ _____    ______ ____
ROOT
ATOM      1  C   UNL     1       6.510   5.709  15.848  0.00  0.00    +0.000 C 
ATOM      2  C   UNL     1       5.099   6.307  15.795  0.00  0.00    +0.000 C 
ATOM      3  C   UNL     1       4.629   6.237  17.236  0.00  0.00    +0.000 C 
ATOM      4  N   UNL     1       5.222   5.005  17.732  0.00  0.00    +0.000 N 
ATOM      5  C   UNL     1       4.887   4.278  18.852  0.00  0.00    +0.000 C 
ATOM      6  O   UNL     1       5.574   3.338  19.253  0.00  0.00    +0.000 OA
ATOM      7  N   UNL     1       3.750   4.690  19.494  0.00  0.00    +0.000 N 
ATOM      8  C   UNL     1       6.391   4.642  16.939  0.00  0.00    +0.000 C 
ATOM      9  H   UNL     1       3.067   5.139  18.906  0.00  0.00    +0.000 HD
ENDROOT
BRANCH   7  10
ATOM     10  C   UNL     1       3.243   4.048  20.707  0.00  0.00    +0.000 C 
ATOM     11  C   UNL     1       1.890   4.646  21.103  0.00  0.00    +0.000 C 
ATOM     12  C   UNL     1       0.814   4.362  20.063  0.00  0.00    +0.000 C 
ATOM     13  C   UNL     1       0.674   2.877  19.738  0.00  0.00    +0.000 C 
ATOM     14  C   UNL     1       1.991   2.111  19.593  0.00  0.00    +0.000 C 
ATOM     15  C   UNL     1       3.094   2.529  20.567  0.00  0.00    +0.000 C 
ENDBRANCH   7  10
BRANCH   1  18
ATOM     16  C   UNL     1       6.374   3.600  12.692  0.00  0.00    +0.000 C 
ATOM     17  N   UNL     1       6.062   4.240  13.949  0.00  0.00    +0.000 N 
ATOM     18  C   UNL     1       6.947   5.134  14.513  0.00  0.00    +0.000 C 
ATOM     19  O   UNL     1       8.021   5.415  13.986  0.00  0.00    +0.000 OA
ATOM     20  H   UNL     1       5.239   3.944  14.457  0.00  0.00    +0.000 HD
ENDBRANCH   1  18
TORSDOF 2
ENDMDL
MODEL 4
REMARK VINA RESULT:      -7.3      2.980      3.966
REMARK  Name = 
REMARK  3 active torsions:
REMARK  status: ('A' for Active; 'I' for Inactive)
REMARK    1  A    between atoms: C_1  and  N_2
REMARK    2  A    between atoms: C_3  and  C_5
REMARK    3  A    between atoms: N_11  and  C_12
REMARK                            x       y       z     vdW  Elec       q    Type
REMARK                         _______ _______ _______ _____ _____    ______ ____
ROOT
ATOM      1  C   UNL     1       7.645   7.103  17.723  0.00  0.00    +0.000 C 
ATOM      2  C   UNL     1       7.817   6.262  18.993  0.00  0.00    +0.000 C 
ATOM      3  C   UNL     1       6.823   5.130  18.807  0.00  0.00    +0.000 C 
ATOM      4  N   UNL     1       5.709   5.761  18.116  0.00  0.00    +0.000 N 
ATOM      5  C   UNL     1       4.416   5.310  17.975  0.00  0.00    +0.000 C 
ATOM      6  O   UNL     1       3.608   5.859  17.226  0.00  0.00    +0.000 OA
ATOM      7  N   UNL     1       4.105   4.197  18.710  0.00  0.00    +0.000 N 
ATOM      8  C   UNL     1       6.153   6.960  17.415  0.00  0.00    +0.000 C 
ATOM      9  H   UNL     1       4.638   4.083  19.558  0.00  0.00    +0.000 HD
ENDROOT
BRANCH   7  10
ATOM     10  C   UNL     1       2.787   3.565  18.681  0.00  0.00    +0.000 C 
ATOM     11  C   UNL     1       2.798   2.263  19.487  0.00  0.00    +0.000 C 
ATOM     12  C   UNL     1       3.051   2.512  20.968  0.00  0.00    +0.000 C 
ATOM     13  C   UNL     1       2.079   3.517  21.580  0.00  0.00    +0.000 C 
ATOM     14  C   UNL     1       1.777   4.745  20.718  0.00  0.00    +0.000 C 
ATOM     15  C   UNL     1       1.672   4.472  19.217  0.00  0.00    +0.000 C 
ENDBRANCH   7  10
BRANCH   1  18
ATOM     16  C   UNL     1       9.316  10.109  19.336  0.00  0.00    +0.000 C 
ATOM     17  N   UNL     1       8.871   8.772  19.018  0.00  0.00    +0.000 N 
ATOM     18  C   UNL     1       8.065   8.548  17.923  0.00  0.00    +0.000 C 
ATOM     19  O   UNL     1       7.689   9.459  17.188  0.00  0.00    +0.000 OA
ATOM     20  H   UNL     1       9.073   8.023  19.667  0.00  0.00    +0.000 HD
ENDBRANCH   1  18
TORSDOF 2
ENDMDL
MODEL 5
REMARK VINA RESULT:      -7.1      2.679      3.427
REMARK  Name = 
REMARK  3 active torsions:
REMARK  status: ('A' for Active; 'I' for Inactive)
REMARK    1  A    between atoms: C_1  and  N_2
REMARK    2  A    between atoms: C_3  and  C_5
REMARK    3  A    between atoms: N_11  and  C_12
REMARK                            x       y       z     vdW  Elec       q    Type
REMARK                         _______ _______ _______ _____ _____    ______ ____
ROOT
ATOM      1  C   UNL     1       6.835   6.628  17.312  0.00  0.00    +0.000 C 
ATOM      2  C   UNL     1       7.027   5.202  17.841  0.00  0.00    +0.000 C 
ATOM      3  C   UNL     1       5.674   4.553  17.611  0.00  0.00    +0.000 C 
ATOM      4  N   UNL     1       4.729   5.634  17.845  0.00  0.00    +0.000 N 
ATOM      5  C   UNL     1       3.377   5.558  18.089  0.00  0.00    +0.000 C 
ATOM      6  O   UNL     1       2.657   6.557  18.107  0.00  0.00    +0.000 OA
ATOM      7  N   UNL     1       2.892   4.293  18.288  0.00  0.00    +0.000 N 
ATOM      8  C   UNL     1       5.374   6.929  17.654  0.00  0.00    +0.000 C 
ATOM      9  H   UNL     1       3.556   3.636  18.663  0.00  0.00    +0.000 HD
ENDROOT
BRANCH   7  10
ATOM     10  C   UNL     1       1.480   4.013  18.548  0.00  0.00    +0.000 C 
ATOM     11  C   UNL     1       1.221   2.504  18.526  0.00  0.00    +0.000 C 
ATOM     12  C   UNL     1       1.950   1.783  19.652  0.00  0.00    +0.000 C 
ATOM     13  C   UNL     1       1.643   2.364  21.031  0.00  0.00    +0.000 C 
ATOM     14  C   UNL     1       1.603   3.892  21.104  0.00  0.00    +0.000 C 
ATOM     15  C   UNL     1       0.990   4.582  19.885  0.00  0.00    +0.000 C 
ENDBRANCH   7  10
BRANCH   1  18
ATOM     16  C   UNL     1       8.627   9.920  17.928  0.00  0.00    +0.000 C 
ATOM     17  N   UNL     1       7.741   8.893  17.431  0.00  0.00    +0.000 N 
ATOM     18  C   UNL     1       7.798   7.616  17.945  0.00  0.00    +0.000 C 
ATOM     19  O   UNL     1       8.594   7.298  18.827  0.00  0.00    +0.000 OA
ATOM     20  H   UNL     1       7.156   9.098  16.632  0.00  0.00    +0.000 HD
ENDBRANCH   1  18
TORSDOF 2
ENDMDL
MODEL 6
REMARK VINA RESULT:      -6.8      4.717      7.212
REMARK  Name = 
REMARK  3 active torsions:
REMARK  status: ('A' for Active; 'I' for Inactive)
REMARK    1  A    between atoms: C_1  and  N_2
REMARK    2  A    between atoms: C_3  and  C_5
REMARK    3  A    between atoms: N_11  and  C_12
REMARK                            x       y       z     vdW  Elec       q    Type
REMARK                         _______ _______ _______ _____ _____    ______ ____
ROOT
ATOM      1  C   UNL     1       0.672  10.450  19.818  0.00  0.00    +0.000 C 
ATOM      2  C   UNL     1      -0.062   9.571  20.837  0.00  0.00    +0.000 C 
ATOM      3  C   UNL     1       0.927   8.456  21.121  0.00  0.00    +0.000 C 
ATOM      4  N   UNL     1       1.584   8.243  19.841  0.00  0.00    +0.000 N 
ATOM      5  C   UNL     1       2.328   7.163  19.424  0.00  0.00    +0.000 C 
ATOM      6  O   UNL     1       2.969   7.175  18.373  0.00  0.00    +0.000 OA
ATOM      7  N   UNL     1       2.319   6.087  20.272  0.00  0.00    +0.000 N 
ATOM      8  C   UNL     1       1.482   9.435  19.007  0.00  0.00    +0.000 C 
ATOM      9  H   UNL     1       1.492   5.999  20.839  0.00  0.00    +0.000 HD
ENDROOT
BRANCH   7  10
ATOM     10  C   UNL     1       3.061   4.856  20.005  0.00  0.00    +0.000 C 
ATOM     11  C   UNL     1       2.712   3.785  21.042  0.00  0.00    +0.000 C 
ATOM     12  C   UNL     1       1.252   3.359  20.954  0.00  0.00    +0.000 C 
ATOM     13  C   UNL     1       0.845   2.907  19.553  0.00  0.00    +0.000 C 
ATOM     14  C   UNL     1       1.382   3.766  18.406  0.00  0.00    +0.000 C 
ATOM     15  C   UNL     1       2.805   4.291  18.602  0.00  0.00    +0.000 C 
ENDBRANCH   7  10
BRANCH   1  18
ATOM     16  C   UNL     1      -2.439  11.268  17.797  0.00  0.00    +0.000 C 
ATOM     17  N   UNL     1      -1.459  10.618  18.636  0.00  0.00    +0.000 N 
ATOM     18  C   UNL     1      -0.282  11.258  18.956  0.00  0.00    +0.000 C 
ATOM     19  O   UNL     1      -0.014  12.385  18.543  0.00  0.00    +0.000 OA
ATOM     20  H   UNL     1      -1.604   9.651  18.897  0.00  0.00    +0.000 HD
ENDBRANCH   1  18
TORSDOF 2
ENDMDL
MODEL 7
REMARK VINA RESULT:      -6.7      4.585      7.562
REMARK  Name = 
REMARK  3 active torsions:
REMARK  status: ('A' for Active; 'I' for Inactive)
REMARK    1  A    between atoms: C_1  and  N_2
REMARK    2  A    between atoms: C_3  and  C_5
REMARK    3  A    between atoms: N_11  and  C_12
REMARK                            x       y       z     vdW  Elec       q    Type
REMARK                         _______ _______ _______ _____ _____    ______ ____
ROOT
ATOM      1  C   UNL     1       0.904   9.656  19.470  0.00  0.00    +0.000 C 
ATOM      2  C   UNL     1       1.820   9.969  18.281  0.00  0.00    +0.000 C 
ATOM      3  C   UNL     1       2.195   8.598  17.751  0.00  0.00    +0.000 C 
ATOM      4  N   UNL     1       2.284   7.778  18.950  0.00  0.00    +0.000 N 
ATOM      5  C   UNL     1       2.889   6.552  19.112  0.00  0.00    +0.000 C 
ATOM      6  O   UNL     1       2.753   5.885  20.137  0.00  0.00    +0.000 OA
ATOM      7  N   UNL     1       3.633   6.125  18.043  0.00  0.00    +0.000 N 
ATOM      8  C   UNL     1       1.496   8.360  20.030  0.00  0.00    +0.000 C 
ATOM      9  H   UNL     1       4.021   6.858  17.473  0.00  0.00    +0.000 HD
ENDROOT
BRANCH   7  10
ATOM     10  C   UNL     1       4.338   4.844  18.026  0.00  0.00    +0.000 C 
ATOM     11  C   UNL     1       4.515   4.350  16.587  0.00  0.00    +0.000 C 
ATOM     12  C   UNL     1       5.412   5.273  15.773  0.00  0.00    +0.000 C 
ATOM     13  C   UNL     1       6.769   5.520  16.430  0.00  0.00    +0.000 C 
ATOM     14  C   UNL     1       6.731   5.753  17.942  0.00  0.00    +0.000 C 
ATOM     15  C   UNL     1       5.713   4.904  18.703  0.00  0.00    +0.000 C 
ENDBRANCH   7  10
BRANCH   1  18
ATOM     16  C   UNL     1       0.719  13.196  20.833  0.00  0.00    +0.000 C 
ATOM     17  N   UNL     1       0.730  12.041  19.966  0.00  0.00    +0.000 N 
ATOM     18  C   UNL     1       0.878  10.777  20.494  0.00  0.00    +0.000 C 
ATOM     19  O   UNL     1       1.012  10.580  21.700  0.00  0.00    +0.000 OA
ATOM     20  H   UNL     1       0.733  12.182  18.964  0.00  0.00    +0.000 HD
ENDBRANCH   1  18
TORSDOF 2
ENDMDL
MODEL 8
REMARK VINA RESULT:      -6.6      4.691      7.333
REMARK  Name = 
REMARK  3 active torsions:
REMARK  status: ('A' for Active; 'I' for Inactive)
REMARK    1  A    between atoms: C_1  and  N_2
REMARK    2  A    between atoms: C_3  and  C_5
REMARK    3  A    between atoms: N_11  and  C_12
REMARK                            x       y       z     vdW  Elec       q    Type
REMARK                         _______ _______ _______ _____ _____    ______ ____
ROOT
ATOM      1  C   UNL     1       0.706  10.149  20.432  0.00  0.00    +0.000 C 
ATOM      2  C   UNL     1       0.207   8.972  21.278  0.00  0.00    +0.000 C 
ATOM      3  C   UNL     1       1.273   7.912  21.077  0.00  0.00    +0.000 C 
ATOM      4  N   UNL     1       1.691   8.101  19.696  0.00  0.00    +0.000 N 
ATOM      5  C   UNL     1       2.387   7.238  18.881  0.00  0.00    +0.000 C 
ATOM      6  O   UNL     1       2.822   7.583  17.782  0.00  0.00    +0.000 OA
ATOM      7  N   UNL     1       2.575   5.981  19.390  0.00  0.00    +0.000 N 
ATOM      8  C   UNL     1       1.392   9.458  19.251  0.00  0.00    +0.000 C 
ATOM      9  H   UNL     1       1.870   5.674  20.041  0.00  0.00    +0.000 HD
ENDROOT
BRANCH   7  10
ATOM     10  C   UNL     1       3.302   4.932  18.675  0.00  0.00    +0.000 C 
ATOM     11  C   UNL     1       3.908   3.931  19.663  0.00  0.00    +0.000 C 
ATOM     12  C   UNL     1       2.836   3.173  20.436  0.00  0.00    +0.000 C 
ATOM     13  C   UNL     1       1.818   2.486  19.528  0.00  0.00    +0.000 C 
ATOM     14  C   UNL     1       1.347   3.313  18.330  0.00  0.00    +0.000 C 
ATOM     15  C   UNL     1       2.427   4.172  17.671  0.00  0.00    +0.000 C 
ENDBRANCH   7  10
BRANCH   1  18
ATOM     16  C   UNL     1      -1.663  11.976  18.091  0.00  0.00    +0.000 C 
ATOM     17  N   UNL     1      -0.638  11.116  18.637  0.00  0.00    +0.000 N 
ATOM     18  C   UNL     1      -0.420  11.069  19.997  0.00  0.00    +0.000 C 
ATOM     19  O   UNL     1      -1.069  11.749  20.789  0.00  0.00    +0.000 OA
ATOM     20  H   UNL     1      -0.018  10.632  18.001  0.00  0.00    +0.000 HD
ENDBRANCH   1  18
TORSDOF 2
ENDMDL
MODEL 9
REMARK VINA RESULT:      -6.5      5.150      7.181
REMARK  Name = 
REMARK  3 active torsions:
REMARK  status: ('A' for Active; 'I' for Inactive)
REMARK    1  A    between atoms: C_1  and  N_2
REMARK    2  A    between atoms: C_3  and  C_5
REMARK    3  A    between atoms: N_11  and  C_12
REMARK                            x       y       z     vdW  Elec       q    Type
REMARK                         _______ _______ _______ _____ _____    ______ ____
ROOT
ATOM      1  C   UNL     1       0.907  10.531  18.860  0.00  0.00    +0.000 C 
ATOM      2  C   UNL     1       2.045  10.211  17.884  0.00  0.00    +0.000 C 
ATOM      3  C   UNL     1       2.094   8.695  17.880  0.00  0.00    +0.000 C 
ATOM      4  N   UNL     1       1.762   8.335  19.250  0.00  0.00    +0.000 N 
ATOM      5  C   UNL     1       1.962   7.139  19.900  0.00  0.00    +0.000 C 
ATOM      6  O   UNL     1       1.487   6.909  21.012  0.00  0.00    +0.000 OA
ATOM      7  N   UNL     1       2.709   6.220  19.210  0.00  0.00    +0.000 N 
ATOM      8  C   UNL     1       1.015   9.409  19.895  0.00  0.00    +0.000 C 
ATOM      9  H   UNL     1       3.372   6.611  18.560  0.00  0.00    +0.000 HD
ENDROOT
BRANCH   7  10
ATOM     10  C   UNL     1       3.017   4.890  19.732  0.00  0.00    +0.000 C 
ATOM     11  C   UNL     1       1.818   3.954  19.553  0.00  0.00    +0.000 C 
ATOM     12  C   UNL     1       1.504   3.706  18.083  0.00  0.00    +0.000 C 
ATOM     13  C   UNL     1       2.708   3.200  17.291  0.00  0.00    +0.000 C 
ATOM     14  C   UNL     1       4.035   3.894  17.603  0.00  0.00    +0.000 C 
ATOM     15  C   UNL     1       4.247   4.254  19.074  0.00  0.00    +0.000 C 
ENDBRANCH   7  10
BRANCH   1  18
ATOM     16  C   UNL     1       2.361  13.974  19.537  0.00  0.00    +0.000 C 
ATOM     17  N   UNL     1       2.105  12.655  19.009  0.00  0.00    +0.000 N 
ATOM     18  C   UNL     1       1.043  11.911  19.478  0.00  0.00    +0.000 C 
ATOM     19  O   UNL     1       0.287  12.327  20.354  0.00  0.00    +0.000 OA
ATOM     20  H   UNL     1       2.774  12.246  18.370  0.00  0.00    +0.000 HD
ENDBRANCH   1  18
TORSDOF 2
ENDMDL
