MODEL 1
REMARK VINA RESULT:      -7.8      0.000      0.000
REMARK  Name = 
REMARK  4 active torsions:
REMARK  status: ('A' for Active; 'I' for Inactive)
REMARK    1  A    between atoms: C_1  and  C_2
REMARK    2  A    between atoms: C_11  and  C_13
REMARK    3  A    between atoms: C_13  and  C_14
REMARK    4  A    between atoms: C_14  and  C_15
REMARK                            x       y       z     vdW  Elec       q    Type
REMARK                         _______ _______ _______ _____ _____    ______ ____
ROOT
ATOM      1  C   UNL     1      -1.932  12.334  20.823  0.00  0.00    +0.000 C 
ATOM      2  C   UNL     1      -1.048  11.359  20.150  0.00  0.00    +0.000 A 
ATOM      3  N   UNL     1      -0.957  11.136  18.851  0.00  0.00    +0.000 NA
ATOM      4  N   UNL     1      -0.048  10.117  18.649  0.00  0.00    +0.000 NA
ATOM      5  C   UNL     1       0.400   9.758  19.830  0.00  0.00    +0.000 A 
ATOM      6  C   UNL     1       1.331   8.704  20.194  0.00  0.00    +0.000 A 
ATOM      7  N   UNL     1       1.973   7.873  19.282  0.00  0.00    +0.000 N 
ATOM      8  C   UNL     1       2.299   8.276  17.907  0.00  0.00    +0.000 C 
ATOM      9  C   UNL     1       3.776   7.947  17.603  0.00  0.00    +0.000 C 
ATOM     10  N   UNL     1       4.101   6.549  17.923  0.00  0.00    +0.000 N 
ATOM     11  C   UNL     1       4.711   5.747  16.971  0.00  0.00    +0.000 C 
ATOM     12  O   UNL     1       4.992   6.165  15.848  0.00  0.00    +0.000 OA
ATOM     13  C   UNL     1       3.748   6.155  19.296  0.00  0.00    +0.000 C 
ATOM     14  C   UNL     1       2.276   6.473  19.600  0.00  0.00    +0.000 C 
ATOM     15  N   UNL     1       1.579   8.507  21.479  0.00  0.00    +0.000 NA
ATOM     16  C   UNL     1       0.983   9.319  22.425  0.00  0.00    +0.000 A 
ATOM     17  C   UNL     1       0.111  10.296  22.136  0.00  0.00    +0.000 A 
ATOM     18  N   UNL     1      -0.196  10.507  20.808  0.00  0.00    +0.000 N 
ENDROOT
BRANCH  11  19
ATOM     19  C   UNL     1       5.008   4.312  17.373  0.00  0.00    +0.000 C 
BRANCH  19  20
ATOM     20  C   UNL     1       3.936   3.334  16.888  0.00  0.00    +0.000 C 
BRANCH  20  21
ATOM     21  C   UNL     1       2.894   3.107  17.959  0.00  0.00    +0.000 A 
ATOM     22  C   UNL     1       1.533   3.295  17.682  0.00  0.00    +0.000 A 
ATOM     23  C   UNL     1       0.578   3.170  18.694  0.00  0.00    +0.000 A 
ATOM     24  C   UNL     1       0.976   2.863  19.995  0.00  0.00    +0.000 A 
ATOM     25  C   UNL     1       2.325   2.659  20.273  0.00  0.00    +0.000 A 
ATOM     26 CL   UNL     1       2.818   2.289  21.881  0.00  0.00    +0.000 Cl
ATOM     27  C   UNL     1       3.282   2.771  19.264  0.00  0.00    +0.000 A 
ENDBRANCH  20  21
ENDBRANCH  19  20
ENDBRANCH  11  19
TORSDOF 3
ENDMDL
MODEL 2
REMARK VINA RESULT:      -7.7      3.278      4.812
REMARK  Name = 
REMARK  4 active torsions:
REMARK  status: ('A' for Active; 'I' for Inactive)
REMARK    1  A    between atoms: C_1  and  C_2
REMARK    2  A    between atoms: C_11  and  C_13
REMARK    3  A    between atoms: C_13  and  C_14
REMARK    4  A    between atoms: C_14  and  C_15
REMARK                            x       y       z     vdW  Elec       q    Type
REMARK                         _______ _______ _______ _____ _____    ______ ____
ROOT
ATOM      1  C   UNL     1      -1.480  11.658  23.105  0.00  0.00    +0.000 C 
ATOM      2  C   UNL     1      -0.576  10.694  22.445  0.00  0.00    +0.000 A 
ATOM      3  N   UNL     1       0.241   9.840  23.036  0.00  0.00    +0.000 NA
ATOM      4  N   UNL     1       0.936   9.158  22.056  0.00  0.00    +0.000 NA
ATOM      5  C   UNL     1       0.511   9.605  20.897  0.00  0.00    +0.000 A 
ATOM      6  C   UNL     1       0.942   9.266  19.552  0.00  0.00    +0.000 A 
ATOM      7  N   UNL     1       1.914   8.318  19.254  0.00  0.00    +0.000 N 
ATOM      8  C   UNL     1       2.194   7.149  20.099  0.00  0.00    +0.000 C 
ATOM      9  C   UNL     1       2.224   5.872  19.233  0.00  0.00    +0.000 C 
ATOM     10  N   UNL     1       3.121   6.018  18.077  0.00  0.00    +0.000 N 
ATOM     11  C   UNL     1       4.098   5.065  17.837  0.00  0.00    +0.000 C 
ATOM     12  O   UNL     1       4.251   4.087  18.569  0.00  0.00    +0.000 OA
ATOM     13  C   UNL     1       2.842   7.204  17.253  0.00  0.00    +0.000 C 
ATOM     14  C   UNL     1       2.820   8.478  18.110  0.00  0.00    +0.000 C 
ATOM     15  N   UNL     1       0.386   9.910  18.538  0.00  0.00    +0.000 NA
ATOM     16  C   UNL     1      -0.600  10.847  18.778  0.00  0.00    +0.000 A 
ATOM     17  C   UNL     1      -1.022  11.199  20.003  0.00  0.00    +0.000 A 
ATOM     18  N   UNL     1      -0.439  10.571  21.083  0.00  0.00    +0.000 N 
ENDROOT
BRANCH  11  19
ATOM     19  C   UNL     1       4.991   5.288  16.629  0.00  0.00    +0.000 C 
BRANCH  19  20
ATOM     20  C   UNL     1       5.591   3.986  16.094  0.00  0.00    +0.000 C 
BRANCH  20  21
ATOM     21  C   UNL     1       6.062   4.160  14.668  0.00  0.00    +0.000 A 
ATOM     22  C   UNL     1       5.444   3.462  13.622  0.00  0.00    +0.000 A 
ATOM     23  C   UNL     1       5.935   3.557  12.317  0.00  0.00    +0.000 A 
ATOM     24  C   UNL     1       7.053   4.346  12.047  0.00  0.00    +0.000 A 
ATOM     25  C   UNL     1       7.661   5.055  13.080  0.00  0.00    +0.000 A 
ATOM     26 CL   UNL     1       9.047   6.021  12.749  0.00  0.00    +0.000 Cl
ATOM     27  C   UNL     1       7.169   4.973  14.383  0.00  0.00    +0.000 A 
ENDBRANCH  20  21
ENDBRANCH  19  20
ENDBRANCH  11  19
TORSDOF 3
ENDMDL
MODEL 3
REMARK VINA RESULT:      -7.5      2.634      4.247
REMARK  Name = 
REMARK  4 active torsions:
REMARK  status: ('A' for Active; 'I' for Inactive)
REMARK    1  A    between atoms: C_1  and  C_2
REMARK    2  A    between atoms: C_11  and  C_13
REMARK    3  A    between atoms: C_13  and  C_14
REMARK    4  A    between atoms: C_14  and  C_15
REMARK                            x       y       z     vdW  Elec       q    Type
REMARK                         _______ _______ _______ _____ _____    ______ ____
ROOT
ATOM      1  C   UNL     1      -0.728  12.482  22.498  0.00  0.00    +0.000 C 
ATOM      2  C   UNL     1      -0.169  11.145  22.208  0.00  0.00    +0.000 A 
ATOM      3  N   UNL     1       0.103  10.193  23.082  0.00  0.00    +0.000 NA
ATOM      4  N   UNL     1       0.652   9.124  22.400  0.00  0.00    +0.000 NA
ATOM      5  C   UNL     1       0.684   9.451  21.129  0.00  0.00    +0.000 A 
ATOM      6  C   UNL     1       1.207   8.715  19.991  0.00  0.00    +0.000 A 
ATOM      7  N   UNL     1       1.760   7.442  20.064  0.00  0.00    +0.000 N 
ATOM      8  C   UNL     1       1.375   6.447  21.074  0.00  0.00    +0.000 C 
ATOM      9  C   UNL     1       1.068   5.098  20.390  0.00  0.00    +0.000 C 
ATOM     10  N   UNL     1       2.163   4.676  19.503  0.00  0.00    +0.000 N 
ATOM     11  C   UNL     1       2.707   3.408  19.634  0.00  0.00    +0.000 C 
ATOM     12  O   UNL     1       2.306   2.609  20.481  0.00  0.00    +0.000 OA
ATOM     13  C   UNL     1       2.552   5.691  18.512  0.00  0.00    +0.000 C 
ATOM     14  C   UNL     1       2.866   7.033  19.190  0.00  0.00    +0.000 C 
ATOM     15  N   UNL     1       1.170   9.298  18.803  0.00  0.00    +0.000 NA
ATOM     16  C   UNL     1       0.612  10.555  18.671  0.00  0.00    +0.000 A 
ATOM     17  C   UNL     1       0.127  11.274  19.695  0.00  0.00    +0.000 A 
ATOM     18  N   UNL     1       0.180  10.710  20.953  0.00  0.00    +0.000 N 
ENDROOT
BRANCH  11  19
ATOM     19  C   UNL     1       3.839   3.046  18.688  0.00  0.00    +0.000 C 
BRANCH  19  20
ATOM     20  C   UNL     1       5.190   3.591  19.155  0.00  0.00    +0.000 C 
BRANCH  20  21
ATOM     21  C   UNL     1       5.877   4.345  18.039  0.00  0.00    +0.000 A 
ATOM     22  C   UNL     1       6.682   5.458  18.320  0.00  0.00    +0.000 A 
ATOM     23  C   UNL     1       7.246   6.206  17.283  0.00  0.00    +0.000 A 
ATOM     24  C   UNL     1       7.006   5.853  15.956  0.00  0.00    +0.000 A 
ATOM     25  C   UNL     1       6.220   4.738  15.671  0.00  0.00    +0.000 A 
ATOM     26 CL   UNL     1       5.915   4.307  14.033  0.00  0.00    +0.000 Cl
ATOM     27  C   UNL     1       5.664   3.981  16.702  0.00  0.00    +0.000 A 
ENDBRANCH  20  21
ENDBRANCH  19  20
ENDBRANCH  11  19
TORSDOF 3
ENDMDL
MODEL 4
REMARK VINA RESULT:      -7.5      3.181      4.808
REMARK  Name = 
REMARK  4 active torsions:
REMARK  status: ('A' for Active; 'I' for Inactive)
REMARK    1  A    between atoms: C_1  and  C_2
REMARK    2  A    between atoms: C_11  and  C_13
REMARK    3  A    between atoms: C_13  and  C_14
REMARK    4  A    between atoms: C_14  and  C_15
REMARK                            x       y       z     vdW  Elec       q    Type
REMARK                         _______ _______ _______ _____ _____    ______ ____
ROOT
ATOM      1  C   UNL     1      -1.496  11.530  23.009  0.00  0.00    +0.000 C 
ATOM      2  C   UNL     1      -0.539  10.604  22.369  0.00  0.00    +0.000 A 
ATOM      3  N   UNL     1       0.388   9.880  22.971  0.00  0.00    +0.000 NA
ATOM      4  N   UNL     1       1.093   9.189  22.004  0.00  0.00    +0.000 NA
ATOM      5  C   UNL     1       0.565   9.500  20.843  0.00  0.00    +0.000 A 
ATOM      6  C   UNL     1       0.954   9.095  19.503  0.00  0.00    +0.000 A 
ATOM      7  N   UNL     1       1.996   8.221  19.218  0.00  0.00    +0.000 N 
ATOM      8  C   UNL     1       2.434   7.155  20.130  0.00  0.00    +0.000 C 
ATOM      9  C   UNL     1       2.541   5.821  19.362  0.00  0.00    +0.000 C 
ATOM     10  N   UNL     1       3.357   5.956  18.146  0.00  0.00    +0.000 N 
ATOM     11  C   UNL     1       4.408   5.081  17.919  0.00  0.00    +0.000 C 
ATOM     12  O   UNL     1       4.694   4.184  18.711  0.00  0.00    +0.000 OA
ATOM     13  C   UNL     1       2.920   7.041  17.254  0.00  0.00    +0.000 C 
ATOM     14  C   UNL     1       2.819   8.372  18.012  0.00  0.00    +0.000 C 
ATOM     15  N   UNL     1       0.285   9.601  18.480  0.00  0.00    +0.000 NA
ATOM     16  C   UNL     1      -0.774  10.459  18.709  0.00  0.00    +0.000 A 
ATOM     17  C   UNL     1      -1.162  10.867  19.927  0.00  0.00    +0.000 A 
ATOM     18  N   UNL     1      -0.464  10.385  21.014  0.00  0.00    +0.000 N 
ENDROOT
BRANCH  11  19
ATOM     19  C   UNL     1       5.209   5.289  16.645  0.00  0.00    +0.000 C 
BRANCH  19  20
ATOM     20  C   UNL     1       5.981   4.036  16.227  0.00  0.00    +0.000 C 
BRANCH  20  21
ATOM     21  C   UNL     1       6.401   4.125  14.778  0.00  0.00    +0.000 A 
ATOM     22  C   UNL     1       7.349   5.072  14.367  0.00  0.00    +0.000 A 
ATOM     23  C   UNL     1       7.673   5.213  13.015  0.00  0.00    +0.000 A 
ATOM     24  C   UNL     1       7.047   4.412  12.059  0.00  0.00    +0.000 A 
ATOM     25  C   UNL     1       6.116   3.458  12.464  0.00  0.00    +0.000 A 
ATOM     26 CL   UNL     1       5.335   2.476  11.285  0.00  0.00    +0.000 Cl
ATOM     27  C   UNL     1       5.797   3.305  13.813  0.00  0.00    +0.000 A 
ENDBRANCH  20  21
ENDBRANCH  19  20
ENDBRANCH  11  19
TORSDOF 3
ENDMDL
MODEL 5
REMARK VINA RESULT:      -7.4      3.816      8.323
REMARK  Name = 
REMARK  4 active torsions:
REMARK  status: ('A' for Active; 'I' for Inactive)
REMARK    1  A    between atoms: C_1  and  C_2
REMARK    2  A    between atoms: C_11  and  C_13
REMARK    3  A    between atoms: C_13  and  C_14
REMARK    4  A    between atoms: C_14  and  C_15
REMARK                            x       y       z     vdW  Elec       q    Type
REMARK                         _______ _______ _______ _____ _____    ______ ____
ROOT
ATOM      1  C   UNL     1       4.840   1.328  20.053  0.00  0.00    +0.000 C 
ATOM      2  C   UNL     1       4.025   2.559  20.088  0.00  0.00    +0.000 A 
ATOM      3  N   UNL     1       2.868   2.729  20.705  0.00  0.00    +0.000 NA
ATOM      4  N   UNL     1       2.425   4.011  20.448  0.00  0.00    +0.000 NA
ATOM      5  C   UNL     1       3.330   4.591  19.695  0.00  0.00    +0.000 A 
ATOM      6  C   UNL     1       3.338   5.916  19.099  0.00  0.00    +0.000 A 
ATOM      7  N   UNL     1       2.336   6.863  19.277  0.00  0.00    +0.000 N 
ATOM      8  C   UNL     1       1.497   6.941  20.481  0.00  0.00    +0.000 C 
ATOM      9  C   UNL     1       1.468   8.393  21.005  0.00  0.00    +0.000 C 
ATOM     10  N   UNL     1       1.107   9.347  19.946  0.00  0.00    +0.000 N 
ATOM     11  C   UNL     1       0.078  10.253  20.155  0.00  0.00    +0.000 C 
ATOM     12  O   UNL     1      -0.558  10.287  21.208  0.00  0.00    +0.000 OA
ATOM     13  C   UNL     1       1.941   9.242  18.739  0.00  0.00    +0.000 C 
ATOM     14  C   UNL     1       1.967   7.801  18.210  0.00  0.00    +0.000 C 
ATOM     15  N   UNL     1       4.358   6.244  18.322  0.00  0.00    +0.000 NA
ATOM     16  C   UNL     1       5.390   5.346  18.129  0.00  0.00    +0.000 A 
ATOM     17  C   UNL     1       5.420   4.110  18.650  0.00  0.00    +0.000 A 
ATOM     18  N   UNL     1       4.356   3.724  19.438  0.00  0.00    +0.000 N 
ENDROOT
BRANCH  11  19
ATOM     19  C   UNL     1      -0.242  11.202  19.013  0.00  0.00    +0.000 C 
BRANCH  19  20
ATOM     20  C   UNL     1      -1.422  12.123  19.329  0.00  0.00    +0.000 C 
BRANCH  20  21
ATOM     21  C   UNL     1      -2.585  11.837  18.407  0.00  0.00    +0.000 A 
ATOM     22  C   UNL     1      -3.905  11.970  18.862  0.00  0.00    +0.000 A 
ATOM     23  C   UNL     1      -4.978  11.622  18.037  0.00  0.00    +0.000 A 
ATOM     24  C   UNL     1      -4.743  11.132  16.753  0.00  0.00    +0.000 A 
ATOM     25  C   UNL     1      -3.434  11.013  16.290  0.00  0.00    +0.000 A 
ATOM     26 CL   UNL     1      -3.142  10.399  14.709  0.00  0.00    +0.000 Cl
ATOM     27  C   UNL     1      -2.359  11.370  17.105  0.00  0.00    +0.000 A 
ENDBRANCH  20  21
ENDBRANCH  19  20
ENDBRANCH  11  19
TORSDOF 3
ENDMDL
MODEL 6
REMARK VINA RESULT:      -7.3      3.818      8.178
REMARK  Name = 
REMARK  4 active torsions:
REMARK  status: ('A' for Active; 'I' for Inactive)
REMARK    1  A    between atoms: C_1  and  C_2
REMARK    2  A    between atoms: C_11  and  C_13
REMARK    3  A    between atoms: C_13  and  C_14
REMARK    4  A    between atoms: C_14  and  C_15
REMARK                            x       y       z     vdW  Elec       q    Type
REMARK                         _______ _______ _______ _____ _____    ______ ____
ROOT
ATOM      1  C   UNL     1       3.447   2.278  19.890  0.00  0.00    +0.000 C 
ATOM      2  C   UNL     1       2.833   3.601  20.127  0.00  0.00    +0.000 A 
ATOM      3  N   UNL     1       1.884   3.890  21.000  0.00  0.00    +0.000 NA
ATOM      4  N   UNL     1       1.568   5.228  20.868  0.00  0.00    +0.000 NA
ATOM      5  C   UNL     1       2.344   5.718  19.929  0.00  0.00    +0.000 A 
ATOM      6  C   UNL     1       2.390   7.055  19.363  0.00  0.00    +0.000 A 
ATOM      7  N   UNL     1       1.592   8.114  19.780  0.00  0.00    +0.000 N 
ATOM      8  C   UNL     1       1.072   8.248  21.148  0.00  0.00    +0.000 C 
ATOM      9  C   UNL     1       1.358   9.669  21.679  0.00  0.00    +0.000 C 
ATOM     10  N   UNL     1       0.893  10.704  20.745  0.00  0.00    +0.000 N 
ATOM     11  C   UNL     1       0.071  11.724  21.198  0.00  0.00    +0.000 C 
ATOM     12  O   UNL     1      -0.296  11.795  22.371  0.00  0.00    +0.000 OA
ATOM     13  C   UNL     1       1.404  10.544  19.374  0.00  0.00    +0.000 C 
ATOM     14  C   UNL     1       1.114   9.134  18.839  0.00  0.00    +0.000 C 
ATOM     15  N   UNL     1       3.238   7.282  18.372  0.00  0.00    +0.000 NA
ATOM     16  C   UNL     1       4.069   6.270  17.932  0.00  0.00    +0.000 A 
ATOM     17  C   UNL     1       4.053   5.019  18.419  0.00  0.00    +0.000 A 
ATOM     18  N   UNL     1       3.158   4.739  19.430  0.00  0.00    +0.000 N 
ENDROOT
BRANCH  11  19
ATOM     19  C   UNL     1      -0.376  12.752  20.172  0.00  0.00    +0.000 C 
BRANCH  19  20
ATOM     20  C   UNL     1      -1.892  12.954  20.166  0.00  0.00    +0.000 C 
BRANCH  20  21
ATOM     21  C   UNL     1      -2.538  12.121  19.083  0.00  0.00    +0.000 A 
ATOM     22  C   UNL     1      -1.769  11.585  18.041  0.00  0.00    +0.000 A 
ATOM     23  C   UNL     1      -2.379  10.889  16.994  0.00  0.00    +0.000 A 
ATOM     24  C   UNL     1      -3.764  10.726  16.976  0.00  0.00    +0.000 A 
ATOM     25  C   UNL     1      -4.531  11.242  18.018  0.00  0.00    +0.000 A 
ATOM     26 CL   UNL     1      -6.242  11.050  17.992  0.00  0.00    +0.000 Cl
ATOM     27  C   UNL     1      -3.927  11.928  19.071  0.00  0.00    +0.000 A 
ENDBRANCH  20  21
ENDBRANCH  19  20
ENDBRANCH  11  19
TORSDOF 3
ENDMDL
MODEL 7
REMARK VINA RESULT:      -7.3      3.855      8.857
REMARK  Name = 
REMARK  4 active torsions:
REMARK  status: ('A' for Active; 'I' for Inactive)
REMARK    1  A    between atoms: C_1  and  C_2
REMARK    2  A    between atoms: C_11  and  C_13
REMARK    3  A    between atoms: C_13  and  C_14
REMARK    4  A    between atoms: C_14  and  C_15
REMARK                            x       y       z     vdW  Elec       q    Type
REMARK                         _______ _______ _______ _____ _____    ______ ____
ROOT
ATOM      1  C   UNL     1       5.821   3.949  15.552  0.00  0.00    +0.000 C 
ATOM      2  C   UNL     1       5.112   5.083  16.180  0.00  0.00    +0.000 A 
ATOM      3  N   UNL     1       5.332   6.369  15.973  0.00  0.00    +0.000 NA
ATOM      4  N   UNL     1       4.484   7.090  16.791  0.00  0.00    +0.000 NA
ATOM      5  C   UNL     1       3.762   6.223  17.461  0.00  0.00    +0.000 A 
ATOM      6  C   UNL     1       2.757   6.441  18.488  0.00  0.00    +0.000 A 
ATOM      7  N   UNL     1       2.343   7.693  18.927  0.00  0.00    +0.000 N 
ATOM      8  C   UNL     1       2.360   8.896  18.084  0.00  0.00    +0.000 C 
ATOM      9  C   UNL     1       0.995   9.612  18.165  0.00  0.00    +0.000 C 
ATOM     10  N   UNL     1       0.585   9.848  19.558  0.00  0.00    +0.000 N 
ATOM     11  C   UNL     1       0.211  11.120  19.961  0.00  0.00    +0.000 C 
ATOM     12  O   UNL     1       0.212  12.077  19.187  0.00  0.00    +0.000 OA
ATOM     13  C   UNL     1       0.594   8.638  20.395  0.00  0.00    +0.000 C 
ATOM     14  C   UNL     1       1.954   7.927  20.323  0.00  0.00    +0.000 C 
ATOM     15  N   UNL     1       2.207   5.381  19.057  0.00  0.00    +0.000 NA
ATOM     16  C   UNL     1       2.569   4.113  18.642  0.00  0.00    +0.000 A 
ATOM     17  C   UNL     1       3.498   3.865  17.706  0.00  0.00    +0.000 A 
ATOM     18  N   UNL     1       4.116   4.947  17.116  0.00  0.00    +0.000 N 
ENDROOT
BRANCH  11  19
ATOM     19  C   UNL     1      -0.192  11.288  21.416  0.00  0.00    +0.000 C 
BRANCH  19  20
ATOM     20  C   UNL     1      -0.171  12.750  21.866  0.00  0.00    +0.000 C 
BRANCH  20  21
ATOM     21  C   UNL     1      -1.321  13.037  22.804  0.00  0.00    +0.000 A 
ATOM     22  C   UNL     1      -2.459  12.219  22.809  0.00  0.00    +0.000 A 
ATOM     23  C   UNL     1      -3.557  12.535  23.613  0.00  0.00    +0.000 A 
ATOM     24  C   UNL     1      -3.530  13.675  24.416  0.00  0.00    +0.000 A 
ATOM     25  C   UNL     1      -2.395  14.482  24.428  0.00  0.00    +0.000 A 
ATOM     26 CL   UNL     1      -2.365  15.895  25.411  0.00  0.00    +0.000 Cl
ATOM     27  C   UNL     1      -1.291  14.166  23.635  0.00  0.00    +0.000 A 
ENDBRANCH  20  21
ENDBRANCH  19  20
ENDBRANCH  11  19
TORSDOF 3
ENDMDL
MODEL 8
REMARK VINA RESULT:      -7.2      4.119      9.069
REMARK  Name = 
REMARK  4 active torsions:
REMARK  status: ('A' for Active; 'I' for Inactive)
REMARK    1  A    between atoms: C_1  and  C_2
REMARK    2  A    between atoms: C_11  and  C_13
REMARK    3  A    between atoms: C_13  and  C_14
REMARK    4  A    between atoms: C_14  and  C_15
REMARK                            x       y       z     vdW  Elec       q    Type
REMARK                         _______ _______ _______ _____ _____    ______ ____
ROOT
ATOM      1  C   UNL     1       5.003   4.817  16.878  0.00  0.00    +0.000 C 
ATOM      2  C   UNL     1       4.207   5.898  17.495  0.00  0.00    +0.000 A 
ATOM      3  N   UNL     1       4.166   7.165  17.121  0.00  0.00    +0.000 NA
ATOM      4  N   UNL     1       3.335   7.845  17.990  0.00  0.00    +0.000 NA
ATOM      5  C   UNL     1       2.882   6.970  18.858  0.00  0.00    +0.000 A 
ATOM      6  C   UNL     1       2.017   7.161  20.010  0.00  0.00    +0.000 A 
ATOM      7  N   UNL     1       1.459   8.379  20.380  0.00  0.00    +0.000 N 
ATOM      8  C   UNL     1       1.141   9.450  19.425  0.00  0.00    +0.000 C 
ATOM      9  C   UNL     1      -0.301   9.948  19.659  0.00  0.00    +0.000 C 
ATOM     10  N   UNL     1      -0.535  10.297  21.068  0.00  0.00    +0.000 N 
ATOM     11  C   UNL     1      -1.063  11.537  21.393  0.00  0.00    +0.000 C 
ATOM     12  O   UNL     1      -1.343  12.373  20.535  0.00  0.00    +0.000 OA
ATOM     13  C   UNL     1      -0.192   9.223  22.013  0.00  0.00    +0.000 C 
ATOM     14  C   UNL     1       1.246   8.730  21.789  0.00  0.00    +0.000 C 
ATOM     15  N   UNL     1       1.751   6.111  20.770  0.00  0.00    +0.000 NA
ATOM     16  C   UNL     1       2.264   4.872  20.434  0.00  0.00    +0.000 A 
ATOM     17  C   UNL     1       3.073   4.652  19.387  0.00  0.00    +0.000 A 
ATOM     18  N   UNL     1       3.399   5.731  18.593  0.00  0.00    +0.000 N 
ENDROOT
BRANCH  11  19
ATOM     19  C   UNL     1      -1.270  11.828  22.870  0.00  0.00    +0.000 C 
BRANCH  19  20
ATOM     20  C   UNL     1      -1.848  13.222  23.118  0.00  0.00    +0.000 C 
BRANCH  20  21
ATOM     21  C   UNL     1      -3.354  13.163  23.232  0.00  0.00    +0.000 A 
ATOM     22  C   UNL     1      -3.963  12.666  24.393  0.00  0.00    +0.000 A 
ATOM     23  C   UNL     1      -5.351  12.531  24.465  0.00  0.00    +0.000 A 
ATOM     24  C   UNL     1      -6.145  12.887  23.375  0.00  0.00    +0.000 A 
ATOM     25  C   UNL     1      -5.547  13.397  22.225  0.00  0.00    +0.000 A 
ATOM     26 CL   UNL     1      -6.525  13.827  20.875  0.00  0.00    +0.000 Cl
ATOM     27  C   UNL     1      -4.162  13.545  22.152  0.00  0.00    +0.000 A 
ENDBRANCH  20  21
ENDBRANCH  19  20
ENDBRANCH  11  19
TORSDOF 3
ENDMDL
MODEL 9
REMARK VINA RESULT:      -7.2      3.152      4.592
REMARK  Name = 
REMARK  4 active torsions:
REMARK  status: ('A' for Active; 'I' for Inactive)
REMARK    1  A    between atoms: C_1  and  C_2
REMARK    2  A    between atoms: C_11  and  C_13
REMARK    3  A    between atoms: C_13  and  C_14
REMARK    4  A    between atoms: C_14  and  C_15
REMARK                            x       y       z     vdW  Elec       q    Type
REMARK                         _______ _______ _______ _____ _____    ______ ____
ROOT
ATOM      1  C   UNL     1      -2.785  12.860  22.907  0.00  0.00    +0.000 C 
ATOM      2  C   UNL     1      -1.735  11.952  22.402  0.00  0.00    +0.000 A 
ATOM      3  N   UNL     1      -0.782  11.370  23.109  0.00  0.00    +0.000 NA
ATOM      4  N   UNL     1       0.012  10.640  22.246  0.00  0.00    +0.000 NA
ATOM      5  C   UNL     1      -0.488  10.786  21.042  0.00  0.00    +0.000 A 
ATOM      6  C   UNL     1      -0.014  10.275  19.767  0.00  0.00    +0.000 A 
ATOM      7  N   UNL     1       1.102   9.461  19.612  0.00  0.00    +0.000 N 
ATOM      8  C   UNL     1       1.580   8.535  20.648  0.00  0.00    +0.000 C 
ATOM      9  C   UNL     1       1.820   7.140  20.031  0.00  0.00    +0.000 C 
ATOM     10  N   UNL     1       2.672   7.212  18.836  0.00  0.00    +0.000 N 
ATOM     11  C   UNL     1       3.795   6.405  18.739  0.00  0.00    +0.000 C 
ATOM     12  O   UNL     1       4.114   5.620  19.632  0.00  0.00    +0.000 OA
ATOM     13  C   UNL     1       2.193   8.160  17.818  0.00  0.00    +0.000 C 
ATOM     14  C   UNL     1       1.961   9.551  18.425  0.00  0.00    +0.000 C 
ATOM     15  N   UNL     1      -0.677  10.617  18.673  0.00  0.00    +0.000 NA
ATOM     16  C   UNL     1      -1.806  11.408  18.773  0.00  0.00    +0.000 A 
ATOM     17  C   UNL     1      -2.273  11.909  19.927  0.00  0.00    +0.000 A 
ATOM     18  N   UNL     1      -1.587  11.600  21.082  0.00  0.00    +0.000 N 
ENDROOT
BRANCH  11  19
ATOM     19  C   UNL     1       4.631   6.541  17.477  0.00  0.00    +0.000 C 
BRANCH  19  20
ATOM     20  C   UNL     1       5.758   5.508  17.406  0.00  0.00    +0.000 C 
BRANCH  20  21
ATOM     21  C   UNL     1       5.937   5.009  15.990  0.00  0.00    +0.000 A 
ATOM     22  C   UNL     1       5.130   3.978  15.490  0.00  0.00    +0.000 A 
ATOM     23  C   UNL     1       5.352   3.458  14.213  0.00  0.00    +0.000 A 
ATOM     24  C   UNL     1       6.388   3.960  13.425  0.00  0.00    +0.000 A 
ATOM     25  C   UNL     1       7.182   4.997  13.910  0.00  0.00    +0.000 A 
ATOM     26 CL   UNL     1       8.467   5.610  12.943  0.00  0.00    +0.000 Cl
ATOM     27  C   UNL     1       6.958   5.527  15.181  0.00  0.00    +0.000 A 
ENDBRANCH  20  21
ENDBRANCH  19  20
ENDBRANCH  11  19
TORSDOF 3
ENDMDL
