MODEL 1
REMARK VINA RESULT:      -9.0      0.000      0.000
REMARK  Name = 
REMARK  2 active torsions:
REMARK  status: ('A' for Active; 'I' for Inactive)
REMARK    1  A    between atoms: C_9  and  C_10
REMARK    2  A    between atoms: C_15  and  C_16
REMARK                            x       y       z     vdW  Elec       q    Type
REMARK                         _______ _______ _______ _____ _____    ______ ____
ROOT
ATOM      1  C   UNL     1       4.454   5.886  18.621  0.00  0.00    +0.000 A 
ATOM      2  N   UNL     1       5.066   5.681  19.786  0.00  0.00    +0.000 NA
ATOM      3  N   UNL     1       6.333   5.157  19.541  0.00  0.00    +0.000 NA
ATOM      4  C   UNL     1       6.436   5.087  18.246  0.00  0.00    +0.000 A 
ATOM      5  S   UNL     1       7.583   4.558  17.097  0.00  0.00    +0.000 S 
ATOM      6  C   UNL     1       6.398   5.047  15.853  0.00  0.00    +0.000 A 
ATOM      7  N   UNL     1       5.282   5.585  16.269  0.00  0.00    +0.000 NA
ATOM      8  N   UNL     1       5.333   5.561  17.625  0.00  0.00    +0.000 N 
ENDROOT
BRANCH   1  17
ATOM      9  C   UNL     1       0.806   2.429  20.265  0.00  0.00    +0.000 A 
ATOM     10  C   UNL     1       0.825   2.253  18.881  0.00  0.00    +0.000 A 
ATOM     11  C   UNL     1       1.284   3.278  18.054  0.00  0.00    +0.000 A 
ATOM     12  C   UNL     1       1.740   4.472  18.615  0.00  0.00    +0.000 A 
ATOM     13  C   UNL     1       1.699   4.658  19.996  0.00  0.00    +0.000 A 
ATOM     14  C   UNL     1       1.237   3.635  20.822  0.00  0.00    +0.000 A 
ATOM     15  O   UNL     1       2.125   5.801  20.616  0.00  0.00    +0.000 OA
ATOM     16  C   UNL     1       2.384   6.866  19.692  0.00  0.00    +0.000 C 
ATOM     17  C   UNL     1       3.063   6.391  18.407  0.00  0.00    +0.000 C 
ATOM     18  O   UNL     1       2.251   5.402  17.747  0.00  0.00    +0.000 OA
ENDBRANCH   1  17
BRANCH   6  19
ATOM     19  C   UNL     1       6.685   4.809  14.426  0.00  0.00    +0.000 A 
ATOM     20  C   UNL     1       5.975   3.824  13.750  0.00  0.00    +0.000 A 
ATOM     21  N   UNL     1       6.238   3.488  12.462  0.00  0.00    +0.000 NA
ATOM     22  C   UNL     1       7.245   4.177  11.881  0.00  0.00    +0.000 A 
ATOM     23  C   UNL     1       7.948   5.166  12.550  0.00  0.00    +0.000 A 
ATOM     24  N   UNL     1       7.687   5.508  13.833  0.00  0.00    +0.000 NA
ENDBRANCH   6  19
TORSDOF 2
ENDMDL
MODEL 2
REMARK VINA RESULT:      -7.5      3.845      7.382
REMARK  Name = 
REMARK  2 active torsions:
REMARK  status: ('A' for Active; 'I' for Inactive)
REMARK    1  A    between atoms: C_9  and  C_10
REMARK    2  A    between atoms: C_15  and  C_16
REMARK                            x       y       z     vdW  Elec       q    Type
REMARK                         _______ _______ _______ _____ _____    ______ ____
ROOT
ATOM      1  C   UNL     1       3.514   6.599  18.681  0.00  0.00    +0.000 A 
ATOM      2  N   UNL     1       3.672   6.718  17.364  0.00  0.00    +0.000 NA
ATOM      3  N   UNL     1       2.897   7.784  16.914  0.00  0.00    +0.000 NA
ATOM      4  C   UNL     1       2.323   8.269  17.975  0.00  0.00    +0.000 A 
ATOM      5  S   UNL     1       1.218   9.514  18.355  0.00  0.00    +0.000 S 
ATOM      6  C   UNL     1       1.380   8.988  20.054  0.00  0.00    +0.000 A 
ATOM      7  N   UNL     1       2.209   8.008  20.300  0.00  0.00    +0.000 NA
ATOM      8  N   UNL     1       2.696   7.613  19.097  0.00  0.00    +0.000 N 
ENDROOT
BRANCH   1  17
ATOM      9  C   UNL     1       0.727   2.106  18.681  0.00  0.00    +0.000 A 
ATOM     10  C   UNL     1       0.342   2.730  19.868  0.00  0.00    +0.000 A 
ATOM     11  C   UNL     1       1.180   3.675  20.463  0.00  0.00    +0.000 A 
ATOM     12  C   UNL     1       2.393   4.005  19.858  0.00  0.00    +0.000 A 
ATOM     13  C   UNL     1       2.789   3.364  18.684  0.00  0.00    +0.000 A 
ATOM     14  C   UNL     1       1.954   2.418  18.093  0.00  0.00    +0.000 A 
ATOM     15  O   UNL     1       3.965   3.633  18.037  0.00  0.00    +0.000 OA
ATOM     16  C   UNL     1       4.846   4.454  18.815  0.00  0.00    +0.000 C 
ATOM     17  C   UNL     1       4.116   5.563  19.575  0.00  0.00    +0.000 C 
ATOM     18  O   UNL     1       3.126   4.999  20.453  0.00  0.00    +0.000 OA
ENDBRANCH   1  17
BRANCH   6  19
ATOM     19  C   UNL     1       0.573   9.633  21.108  0.00  0.00    +0.000 A 
ATOM     20  C   UNL     1       0.805   9.295  22.436  0.00  0.00    +0.000 A 
ATOM     21  N   UNL     1       0.052   9.779  23.455  0.00  0.00    +0.000 NA
ATOM     22  C   UNL     1      -0.948  10.611  23.087  0.00  0.00    +0.000 A 
ATOM     23  C   UNL     1      -1.175  10.956  21.764  0.00  0.00    +0.000 A 
ATOM     24  N   UNL     1      -0.423  10.480  20.745  0.00  0.00    +0.000 NA
ENDBRANCH   6  19
TORSDOF 2
ENDMDL
MODEL 3
REMARK VINA RESULT:      -7.1      4.214      8.057
REMARK  Name = 
REMARK  2 active torsions:
REMARK  status: ('A' for Active; 'I' for Inactive)
REMARK    1  A    between atoms: C_9  and  C_10
REMARK    2  A    between atoms: C_15  and  C_16
REMARK                            x       y       z     vdW  Elec       q    Type
REMARK                         _______ _______ _______ _____ _____    ______ ____
ROOT
ATOM      1  C   UNL     1       2.650   7.017  18.249  0.00  0.00    +0.000 A 
ATOM      2  N   UNL     1       3.205   7.495  17.137  0.00  0.00    +0.000 NA
ATOM      3  N   UNL     1       2.915   8.854  17.040  0.00  0.00    +0.000 NA
ATOM      4  C   UNL     1       2.217   9.137  18.100  0.00  0.00    +0.000 A 
ATOM      5  S   UNL     1       1.436  10.499  18.771  0.00  0.00    +0.000 S 
ATOM      6  C   UNL     1       0.954   9.423  20.113  0.00  0.00    +0.000 A 
ATOM      7  N   UNL     1       1.376   8.187  20.069  0.00  0.00    +0.000 NA
ATOM      8  N   UNL     1       2.058   8.061  18.904  0.00  0.00    +0.000 N 
ENDROOT
BRANCH   1  17
ATOM      9  C   UNL     1       7.132   4.521  16.968  0.00  0.00    +0.000 A 
ATOM     10  C   UNL     1       6.218   4.061  16.019  0.00  0.00    +0.000 A 
ATOM     11  C   UNL     1       4.850   4.101  16.291  0.00  0.00    +0.000 A 
ATOM     12  C   UNL     1       4.399   4.617  17.507  0.00  0.00    +0.000 A 
ATOM     13  C   UNL     1       5.313   5.054  18.466  0.00  0.00    +0.000 A 
ATOM     14  C   UNL     1       6.679   5.011  18.194  0.00  0.00    +0.000 A 
ATOM     15  O   UNL     1       4.945   5.567  19.679  0.00  0.00    +0.000 OA
ATOM     16  C   UNL     1       3.550   5.383  19.956  0.00  0.00    +0.000 C 
ATOM     17  C   UNL     1       2.663   5.600  18.730  0.00  0.00    +0.000 C 
ATOM     18  O   UNL     1       3.041   4.700  17.673  0.00  0.00    +0.000 OA
ENDBRANCH   1  17
BRANCH   6  19
ATOM     19  C   UNL     1       0.089   9.933  21.194  0.00  0.00    +0.000 A 
ATOM     20  C   UNL     1      -0.639  11.098  20.983  0.00  0.00    +0.000 A 
ATOM     21  N   UNL     1      -1.390  11.676  21.954  0.00  0.00    +0.000 NA
ATOM     22  C   UNL     1      -1.376  11.041  23.147  0.00  0.00    +0.000 A 
ATOM     23  C   UNL     1      -0.660   9.874  23.357  0.00  0.00    +0.000 A 
ATOM     24  N   UNL     1       0.087   9.291  22.390  0.00  0.00    +0.000 NA
ENDBRANCH   6  19
TORSDOF 2
ENDMDL
MODEL 4
REMARK VINA RESULT:      -7.1      4.125      7.068
REMARK  Name = 
REMARK  2 active torsions:
REMARK  status: ('A' for Active; 'I' for Inactive)
REMARK    1  A    between atoms: C_9  and  C_10
REMARK    2  A    between atoms: C_15  and  C_16
REMARK                            x       y       z     vdW  Elec       q    Type
REMARK                         _______ _______ _______ _____ _____    ______ ____
ROOT
ATOM      1  C   UNL     1       3.046   5.263  18.719  0.00  0.00    +0.000 A 
ATOM      2  N   UNL     1       2.940   4.468  19.782  0.00  0.00    +0.000 NA
ATOM      3  N   UNL     1       2.324   5.176  20.811  0.00  0.00    +0.000 NA
ATOM      4  C   UNL     1       2.071   6.353  20.321  0.00  0.00    +0.000 A 
ATOM      5  S   UNL     1       1.388   7.824  20.856  0.00  0.00    +0.000 S 
ATOM      6  C   UNL     1       1.709   8.443  19.212  0.00  0.00    +0.000 A 
ATOM      7  N   UNL     1       2.235   7.611  18.351  0.00  0.00    +0.000 NA
ATOM      8  N   UNL     1       2.450   6.455  19.027  0.00  0.00    +0.000 N 
ENDROOT
BRANCH   1  17
ATOM      9  C   UNL     1       8.142   6.668  18.584  0.00  0.00    +0.000 A 
ATOM     10  C   UNL     1       7.501   7.689  17.880  0.00  0.00    +0.000 A 
ATOM     11  C   UNL     1       6.258   7.456  17.290  0.00  0.00    +0.000 A 
ATOM     12  C   UNL     1       5.652   6.206  17.420  0.00  0.00    +0.000 A 
ATOM     13  C   UNL     1       6.303   5.178  18.102  0.00  0.00    +0.000 A 
ATOM     14  C   UNL     1       7.545   5.411  18.688  0.00  0.00    +0.000 A 
ATOM     15  O   UNL     1       5.772   3.928  18.266  0.00  0.00    +0.000 OA
ATOM     16  C   UNL     1       4.603   3.715  17.464  0.00  0.00    +0.000 C 
ATOM     17  C   UNL     1       3.686   4.938  17.407  0.00  0.00    +0.000 C 
ATOM     18  O   UNL     1       4.397   6.074  16.884  0.00  0.00    +0.000 OA
ENDBRANCH   1  17
BRANCH   6  19
ATOM     19  C   UNL     1       1.409   9.849  18.880  0.00  0.00    +0.000 A 
ATOM     20  C   UNL     1       2.368  10.603  18.213  0.00  0.00    +0.000 A 
ATOM     21  N   UNL     1       2.203  11.923  17.947  0.00  0.00    +0.000 NA
ATOM     22  C   UNL     1       1.041  12.457  18.382  0.00  0.00    +0.000 A 
ATOM     23  C   UNL     1       0.080  11.705  19.038  0.00  0.00    +0.000 A 
ATOM     24  N   UNL     1       0.237  10.387  19.302  0.00  0.00    +0.000 NA
ENDBRANCH   6  19
TORSDOF 2
ENDMDL
MODEL 5
REMARK VINA RESULT:      -7.1      1.798      2.487
REMARK  Name = 
REMARK  2 active torsions:
REMARK  status: ('A' for Active; 'I' for Inactive)
REMARK    1  A    between atoms: C_9  and  C_10
REMARK    2  A    between atoms: C_15  and  C_16
REMARK                            x       y       z     vdW  Elec       q    Type
REMARK                         _______ _______ _______ _____ _____    ______ ____
ROOT
ATOM      1  C   UNL     1       5.425   3.616  18.890  0.00  0.00    +0.000 A 
ATOM      2  N   UNL     1       5.601   4.484  19.884  0.00  0.00    +0.000 NA
ATOM      3  N   UNL     1       6.184   5.640  19.372  0.00  0.00    +0.000 NA
ATOM      4  C   UNL     1       6.315   5.428  18.096  0.00  0.00    +0.000 A 
ATOM      5  S   UNL     1       6.937   6.252  16.736  0.00  0.00    +0.000 S 
ATOM      6  C   UNL     1       6.459   4.817  15.786  0.00  0.00    +0.000 A 
ATOM      7  N   UNL     1       5.860   3.848  16.427  0.00  0.00    +0.000 NA
ATOM      8  N   UNL     1       5.827   4.221  17.731  0.00  0.00    +0.000 N 
ENDROOT
BRANCH   1  17
ATOM      9  C   UNL     1       0.394   3.570  20.515  0.00  0.00    +0.000 A 
ATOM     10  C   UNL     1       1.113   3.235  21.663  0.00  0.00    +0.000 A 
ATOM     11  C   UNL     1       2.389   2.683  21.551  0.00  0.00    +0.000 A 
ATOM     12  C   UNL     1       2.950   2.483  20.290  0.00  0.00    +0.000 A 
ATOM     13  C   UNL     1       2.223   2.794  19.141  0.00  0.00    +0.000 A 
ATOM     14  C   UNL     1       0.947   3.343  19.254  0.00  0.00    +0.000 A 
ATOM     15  O   UNL     1       2.706   2.622  17.872  0.00  0.00    +0.000 OA
ATOM     16  C   UNL     1       3.926   1.869  17.844  0.00  0.00    +0.000 C 
ATOM     17  C   UNL     1       4.877   2.228  18.987  0.00  0.00    +0.000 C 
ATOM     18  O   UNL     1       4.237   2.013  20.257  0.00  0.00    +0.000 OA
ENDBRANCH   1  17
BRANCH   6  19
ATOM     19  C   UNL     1       6.770   4.747  14.346  0.00  0.00    +0.000 A 
ATOM     20  C   UNL     1       6.082   3.837  13.551  0.00  0.00    +0.000 A 
ATOM     21  N   UNL     1       6.367   3.653  12.238  0.00  0.00    +0.000 NA
ATOM     22  C   UNL     1       7.374   4.414  11.755  0.00  0.00    +0.000 A 
ATOM     23  C   UNL     1       8.055   5.329  12.543  0.00  0.00    +0.000 A 
ATOM     24  N   UNL     1       7.770   5.520  13.852  0.00  0.00    +0.000 NA
ENDBRANCH   6  19
TORSDOF 2
ENDMDL
MODEL 6
REMARK VINA RESULT:      -6.8      4.834      6.409
REMARK  Name = 
REMARK  2 active torsions:
REMARK  status: ('A' for Active; 'I' for Inactive)
REMARK    1  A    between atoms: C_9  and  C_10
REMARK    2  A    between atoms: C_15  and  C_16
REMARK                            x       y       z     vdW  Elec       q    Type
REMARK                         _______ _______ _______ _____ _____    ______ ____
ROOT
ATOM      1  C   UNL     1       1.009   9.604  19.889  0.00  0.00    +0.000 A 
ATOM      2  N   UNL     1       0.427   9.580  21.087  0.00  0.00    +0.000 NA
ATOM      3  N   UNL     1       0.608   8.318  21.648  0.00  0.00    +0.000 NA
ATOM      4  C   UNL     1       1.302   7.646  20.777  0.00  0.00    +0.000 A 
ATOM      5  S   UNL     1       1.934   6.068  20.611  0.00  0.00    +0.000 S 
ATOM      6  C   UNL     1       2.574   6.610  19.034  0.00  0.00    +0.000 A 
ATOM      7  N   UNL     1       2.363   7.855  18.699  0.00  0.00    +0.000 NA
ATOM      8  N   UNL     1       1.618   8.394  19.696  0.00  0.00    +0.000 N 
ENDROOT
BRANCH   1  17
ATOM      9  C   UNL     1      -3.825  10.716  18.059  0.00  0.00    +0.000 A 
ATOM     10  C   UNL     1      -3.245   9.979  17.026  0.00  0.00    +0.000 A 
ATOM     11  C   UNL     1      -1.856   9.913  16.911  0.00  0.00    +0.000 A 
ATOM     12  C   UNL     1      -1.050  10.570  17.842  0.00  0.00    +0.000 A 
ATOM     13  C   UNL     1      -1.629  11.327  18.860  0.00  0.00    +0.000 A 
ATOM     14  C   UNL     1      -3.017  11.396  18.972  0.00  0.00    +0.000 A 
ATOM     15  O   UNL     1      -0.904  12.001  19.805  0.00  0.00    +0.000 OA
ATOM     16  C   UNL     1       0.495  12.048  19.496  0.00  0.00    +0.000 C 
ATOM     17  C   UNL     1       1.023  10.737  18.913  0.00  0.00    +0.000 C 
ATOM     18  O   UNL     1       0.303  10.395  17.715  0.00  0.00    +0.000 OA
ENDBRANCH   1  17
BRANCH   6  19
ATOM     19  C   UNL     1       3.279   5.656  18.156  0.00  0.00    +0.000 A 
ATOM     20  C   UNL     1       3.013   4.298  18.286  0.00  0.00    +0.000 A 
ATOM     21  N   UNL     1       3.680   3.353  17.576  0.00  0.00    +0.000 NA
ATOM     22  C   UNL     1       4.628   3.826  16.737  0.00  0.00    +0.000 A 
ATOM     23  C   UNL     1       4.888   5.180  16.599  0.00  0.00    +0.000 A 
ATOM     24  N   UNL     1       4.222   6.127  17.301  0.00  0.00    +0.000 NA
ENDBRANCH   6  19
TORSDOF 2
ENDMDL
MODEL 7
REMARK VINA RESULT:      -6.8      9.347     12.520
REMARK  Name = 
REMARK  2 active torsions:
REMARK  status: ('A' for Active; 'I' for Inactive)
REMARK    1  A    between atoms: C_9  and  C_10
REMARK    2  A    between atoms: C_15  and  C_16
REMARK                            x       y       z     vdW  Elec       q    Type
REMARK                         _______ _______ _______ _____ _____    ______ ____
ROOT
ATOM      1  C   UNL     1      -2.026  11.839  18.434  0.00  0.00    +0.000 A 
ATOM      2  N   UNL     1      -1.971  11.034  17.375  0.00  0.00    +0.000 NA
ATOM      3  N   UNL     1      -3.243  10.517  17.138  0.00  0.00    +0.000 NA
ATOM      4  C   UNL     1      -4.007  11.045  18.047  0.00  0.00    +0.000 A 
ATOM      5  S   UNL     1      -5.645  10.962  18.524  0.00  0.00    +0.000 S 
ATOM      6  C   UNL     1      -5.217  12.131  19.805  0.00  0.00    +0.000 A 
ATOM      7  N   UNL     1      -3.982  12.561  19.834  0.00  0.00    +0.000 NA
ATOM      8  N   UNL     1      -3.329  11.900  18.845  0.00  0.00    +0.000 N 
ENDROOT
BRANCH   1  17
ATOM      9  C   UNL     1      -0.091   9.245  22.614  0.00  0.00    +0.000 A 
ATOM     10  C   UNL     1      -0.890  10.236  23.185  0.00  0.00    +0.000 A 
ATOM     11  C   UNL     1      -1.183  11.396  22.466  0.00  0.00    +0.000 A 
ATOM     12  C   UNL     1      -0.688  11.553  21.171  0.00  0.00    +0.000 A 
ATOM     13  C   UNL     1       0.132  10.574  20.609  0.00  0.00    +0.000 A 
ATOM     14  C   UNL     1       0.425   9.417  21.329  0.00  0.00    +0.000 A 
ATOM     15  O   UNL     1       0.655  10.661  19.348  0.00  0.00    +0.000 OA
ATOM     16  C   UNL     1       0.478  11.959  18.766  0.00  0.00    +0.000 C 
ATOM     17  C   UNL     1      -0.890  12.571  19.074  0.00  0.00    +0.000 C 
ATOM     18  O   UNL     1      -1.081  12.679  20.496  0.00  0.00    +0.000 OA
ENDBRANCH   1  17
BRANCH   6  19
ATOM     19  C   UNL     1      -6.230  12.551  20.792  0.00  0.00    +0.000 A 
ATOM     20  C   UNL     1      -6.399  13.907  21.049  0.00  0.00    +0.000 A 
ATOM     21  N   UNL     1      -7.249  14.368  22.001  0.00  0.00    +0.000 NA
ATOM     22  C   UNL     1      -7.917  13.415  22.688  0.00  0.00    +0.000 A 
ATOM     23  C   UNL     1      -7.757  12.064  22.426  0.00  0.00    +0.000 A 
ATOM     24  N   UNL     1      -6.914  11.598  21.474  0.00  0.00    +0.000 NA
ENDBRANCH   6  19
TORSDOF 2
ENDMDL
MODEL 8
REMARK VINA RESULT:      -6.7      4.305      7.408
REMARK  Name = 
REMARK  2 active torsions:
REMARK  status: ('A' for Active; 'I' for Inactive)
REMARK    1  A    between atoms: C_9  and  C_10
REMARK    2  A    between atoms: C_15  and  C_16
REMARK                            x       y       z     vdW  Elec       q    Type
REMARK                         _______ _______ _______ _____ _____    ______ ____
ROOT
ATOM      1  C   UNL     1       2.893   6.162  18.648  0.00  0.00    +0.000 A 
ATOM      2  N   UNL     1       2.935   5.355  19.707  0.00  0.00    +0.000 NA
ATOM      3  N   UNL     1       2.335   6.000  20.786  0.00  0.00    +0.000 NA
ATOM      4  C   UNL     1       1.942   7.152  20.328  0.00  0.00    +0.000 A 
ATOM      5  S   UNL     1       1.172   8.553  20.927  0.00  0.00    +0.000 S 
ATOM      6  C   UNL     1       1.316   9.206  19.272  0.00  0.00    +0.000 A 
ATOM      7  N   UNL     1       1.850   8.429  18.366  0.00  0.00    +0.000 NA
ATOM      8  N   UNL     1       2.216   7.294  19.012  0.00  0.00    +0.000 N 
ENDROOT
BRANCH   1  17
ATOM      9  C   UNL     1       8.179   6.244  18.652  0.00  0.00    +0.000 A 
ATOM     10  C   UNL     1       7.832   7.492  18.134  0.00  0.00    +0.000 A 
ATOM     11  C   UNL     1       6.585   7.677  17.536  0.00  0.00    +0.000 A 
ATOM     12  C   UNL     1       5.682   6.616  17.473  0.00  0.00    +0.000 A 
ATOM     13  C   UNL     1       6.037   5.361  17.968  0.00  0.00    +0.000 A 
ATOM     14  C   UNL     1       7.284   5.177  18.563  0.00  0.00    +0.000 A 
ATOM     15  O   UNL     1       5.205   4.275  17.937  0.00  0.00    +0.000 OA
ATOM     16  C   UNL     1       4.040   4.495  17.132  0.00  0.00    +0.000 C 
ATOM     17  C   UNL     1       3.461   5.902  17.289  0.00  0.00    +0.000 C 
ATOM     18  O   UNL     1       4.447   6.891  16.944  0.00  0.00    +0.000 OA
ENDBRANCH   1  17
BRANCH   6  19
ATOM     19  C   UNL     1       0.868  10.581  18.978  0.00  0.00    +0.000 A 
ATOM     20  C   UNL     1      -0.478  10.811  18.719  0.00  0.00    +0.000 A 
ATOM     21  N   UNL     1      -0.954  12.030  18.359  0.00  0.00    +0.000 NA
ATOM     22  C   UNL     1      -0.025  13.006  18.263  0.00  0.00    +0.000 A 
ATOM     23  C   UNL     1       1.316  12.781  18.530  0.00  0.00    +0.000 A 
ATOM     24  N   UNL     1       1.796  11.568  18.895  0.00  0.00    +0.000 NA
ENDBRANCH   6  19
TORSDOF 2
ENDMDL
MODEL 9
REMARK VINA RESULT:      -6.7      3.425      7.001
REMARK  Name = 
REMARK  2 active torsions:
REMARK  status: ('A' for Active; 'I' for Inactive)
REMARK    1  A    between atoms: C_9  and  C_10
REMARK    2  A    between atoms: C_15  and  C_16
REMARK                            x       y       z     vdW  Elec       q    Type
REMARK                         _______ _______ _______ _____ _____    ______ ____
ROOT
ATOM      1  C   UNL     1       3.897   4.142  17.616  0.00  0.00    +0.000 A 
ATOM      2  N   UNL     1       3.877   2.967  18.242  0.00  0.00    +0.000 NA
ATOM      3  N   UNL     1       3.185   3.110  19.442  0.00  0.00    +0.000 NA
ATOM      4  C   UNL     1       2.804   4.353  19.478  0.00  0.00    +0.000 A 
ATOM      5  S   UNL     1       1.962   5.386  20.546  0.00  0.00    +0.000 S 
ATOM      6  C   UNL     1       2.216   6.668  19.329  0.00  0.00    +0.000 A 
ATOM      7  N   UNL     1       2.833   6.333  18.226  0.00  0.00    +0.000 NA
ATOM      8  N   UNL     1       3.173   5.027  18.365  0.00  0.00    +0.000 N 
ENDROOT
BRANCH   1  17
ATOM      9  C   UNL     1       8.120   7.252  18.290  0.00  0.00    +0.000 A 
ATOM     10  C   UNL     1       7.129   8.133  17.855  0.00  0.00    +0.000 A 
ATOM     11  C   UNL     1       6.041   7.654  17.125  0.00  0.00    +0.000 A 
ATOM     12  C   UNL     1       5.937   6.291  16.848  0.00  0.00    +0.000 A 
ATOM     13  C   UNL     1       6.939   5.412  17.261  0.00  0.00    +0.000 A 
ATOM     14  C   UNL     1       8.028   5.893  17.987  0.00  0.00    +0.000 A 
ATOM     15  O   UNL     1       6.907   4.065  17.023  0.00  0.00    +0.000 OA
ATOM     16  C   UNL     1       5.873   3.693  16.103  0.00  0.00    +0.000 C 
ATOM     17  C   UNL     1       4.571   4.465  16.320  0.00  0.00    +0.000 C 
ATOM     18  O   UNL     1       4.802   5.880  16.198  0.00  0.00    +0.000 OA
ENDBRANCH   1  17
BRANCH   6  19
ATOM     19  C   UNL     1       1.764   8.046  19.602  0.00  0.00    +0.000 A 
ATOM     20  C   UNL     1       1.339   8.374  20.885  0.00  0.00    +0.000 A 
ATOM     21  N   UNL     1       0.831   9.593  21.196  0.00  0.00    +0.000 NA
ATOM     22  C   UNL     1       0.760  10.466  20.167  0.00  0.00    +0.000 A 
ATOM     23  C   UNL     1       1.191  10.145  18.891  0.00  0.00    +0.000 A 
ATOM     24  N   UNL     1       1.704   8.932  18.576  0.00  0.00    +0.000 NA
ENDBRANCH   6  19
TORSDOF 2
ENDMDL
