MODEL 1
REMARK VINA RESULT:      -7.2      0.000      0.000
REMARK  Name = 
REMARK  5 active torsions:
REMARK  status: ('A' for Active; 'I' for Inactive)
REMARK    1  A    between atoms: C_1  and  C_2
REMARK    2  A    between atoms: C_8  and  N_9
REMARK    3  A    between atoms: C_10  and  C_12
REMARK    4  A    between atoms: C_15  and  N_16
REMARK    5  A    between atoms: C_21  and  C_22
REMARK                            x       y       z     vdW  Elec       q    Type
REMARK                         _______ _______ _______ _____ _____    ______ ____
ROOT
ATOM      1  C   UNL     1       5.467   4.399  14.064  0.00  0.00    +0.000 C 
ATOM      2  C   UNL     1       6.276   4.393  15.367  0.00  0.00    +0.000 C 
ATOM      3  C   UNL     1       5.808   3.265  16.306  0.00  0.00    +0.000 C 
ATOM      4  C   UNL     1       4.349   3.440  16.750  0.00  0.00    +0.000 C 
ATOM      5  C   UNL     1       4.046   4.861  17.157  0.00  0.00    +0.000 A 
ATOM      6  C   UNL     1       4.932   5.883  16.883  0.00  0.00    +0.000 A 
ATOM      7  S   UNL     1       4.481   7.325  17.641  0.00  0.00    +0.000 S 
ATOM      8  C   UNL     1       2.978   6.673  18.131  0.00  0.00    +0.000 A 
ATOM      9  C   UNL     1       2.828   5.325  17.828  0.00  0.00    +0.000 A 
ATOM     10  C   UNL     1       6.208   5.754  16.100  0.00  0.00    +0.000 C 
ENDROOT
BRANCH   9  11
ATOM     11  C   UNL     1       1.752   4.388  18.185  0.00  0.00    +0.000 C 
ATOM     12  N   UNL     1       1.621   3.972  19.472  0.00  0.00    +0.000 N 
ATOM     13  O   UNL     1       0.927   3.958  17.373  0.00  0.00    +0.000 OA
ATOM     14  H   UNL     1       1.817   4.679  20.177  0.00  0.00    +0.000 HD
ATOM     15  H   UNL     1       0.762   3.464  19.627  0.00  0.00    +0.000 HD
ENDBRANCH   9  11
BRANCH   8  16
ATOM     16  N   UNL     1       2.244   7.641  18.788  0.00  0.00    +0.000 N 
ATOM     17  C   UNL     1       1.837   7.516  20.097  0.00  0.00    +0.000 C 
ATOM     18  O   UNL     1       2.082   6.562  20.829  0.00  0.00    +0.000 OA
ATOM     19  H   UNL     1       1.729   8.262  18.179  0.00  0.00    +0.000 HD
BRANCH  17  20
ATOM     20  C   UNL     1       1.142   8.704  20.666  0.00  0.00    +0.000 A 
ATOM     21  C   UNL     1       0.853   8.849  22.029  0.00  0.00    +0.000 A 
ATOM     22  C   UNL     1       0.008   9.884  22.457  0.00  0.00    +0.000 A 
ATOM     23  C   UNL     1      -0.535  10.771  21.513  0.00  0.00    +0.000 A 
ATOM     24  C   UNL     1      -0.177  10.680  20.163  0.00  0.00    +0.000 A 
ATOM     25  C   UNL     1       0.672   9.654  19.746  0.00  0.00    +0.000 A 
BRANCH  23  26
ATOM     26  N   UNL     1      -1.522  11.775  21.934  0.00  0.00    +0.000 N 
ATOM     27  O   UNL     1      -2.080  12.438  21.049  0.00  0.00    +0.000 OA
ATOM     28  O   UNL     1      -1.720  11.913  23.149  0.00  0.00    +0.000 OA
ENDBRANCH  23  26
ENDBRANCH  17  20
ENDBRANCH   8  16
TORSDOF 4
ENDMDL
MODEL 2
REMARK VINA RESULT:      -7.1      0.614      1.097
REMARK  Name = 
REMARK  5 active torsions:
REMARK  status: ('A' for Active; 'I' for Inactive)
REMARK    1  A    between atoms: C_1  and  C_2
REMARK    2  A    between atoms: C_8  and  N_9
REMARK    3  A    between atoms: C_10  and  C_12
REMARK    4  A    between atoms: C_15  and  N_16
REMARK    5  A    between atoms: C_21  and  C_22
REMARK                            x       y       z     vdW  Elec       q    Type
REMARK                         _______ _______ _______ _____ _____    ______ ____
ROOT
ATOM      1  C   UNL     1       5.521   4.415  14.102  0.00  0.00    +0.000 C 
ATOM      2  C   UNL     1       6.332   4.537  15.398  0.00  0.00    +0.000 C 
ATOM      3  C   UNL     1       5.944   3.434  16.400  0.00  0.00    +0.000 C 
ATOM      4  C   UNL     1       4.478   3.534  16.843  0.00  0.00    +0.000 C 
ATOM      5  C   UNL     1       4.079   4.951  17.173  0.00  0.00    +0.000 A 
ATOM      6  C   UNL     1       4.893   6.015  16.837  0.00  0.00    +0.000 A 
ATOM      7  S   UNL     1       4.345   7.463  17.516  0.00  0.00    +0.000 S 
ATOM      8  C   UNL     1       2.892   6.738  18.050  0.00  0.00    +0.000 A 
ATOM      9  C   UNL     1       2.834   5.368  17.824  0.00  0.00    +0.000 A 
ATOM     10  C   UNL     1       6.173   5.929  16.055  0.00  0.00    +0.000 C 
ENDROOT
BRANCH   9  11
ATOM     11  C   UNL     1       1.825   4.381  18.239  0.00  0.00    +0.000 C 
ATOM     12  N   UNL     1       1.684   4.076  19.556  0.00  0.00    +0.000 N 
ATOM     13  O   UNL     1       1.066   3.812  17.450  0.00  0.00    +0.000 OA
ATOM     14  H   UNL     1       1.798   4.858  20.196  0.00  0.00    +0.000 HD
ATOM     15  H   UNL     1       0.864   3.515  19.735  0.00  0.00    +0.000 HD
ENDBRANCH   9  11
BRANCH   8  16
ATOM     16  N   UNL     1       2.095   7.689  18.657  0.00  0.00    +0.000 N 
ATOM     17  C   UNL     1       1.735   7.631  19.984  0.00  0.00    +0.000 C 
ATOM     18  O   UNL     1       2.079   6.760  20.777  0.00  0.00    +0.000 OA
ATOM     19  H   UNL     1       1.513   8.217  18.021  0.00  0.00    +0.000 HD
BRANCH  17  20
ATOM     20  C   UNL     1       0.955   8.798  20.485  0.00  0.00    +0.000 A 
ATOM     21  C   UNL     1       1.017  10.072  19.906  0.00  0.00    +0.000 A 
ATOM     22  C   UNL     1       0.429  11.165  20.562  0.00  0.00    +0.000 A 
ATOM     23  C   UNL     1      -0.221  10.968  21.791  0.00  0.00    +0.000 A 
ATOM     24  C   UNL     1      -0.358   9.683  22.326  0.00  0.00    +0.000 A 
ATOM     25  C   UNL     1       0.220   8.600  21.664  0.00  0.00    +0.000 A 
BRANCH  23  26
ATOM     26  N   UNL     1      -0.723  12.125  22.547  0.00  0.00    +0.000 N 
ATOM     27  O   UNL     1      -0.163  13.215  22.368  0.00  0.00    +0.000 OA
ATOM     28  O   UNL     1      -1.661  11.935  23.334  0.00  0.00    +0.000 OA
ENDBRANCH  23  26
ENDBRANCH  17  20
ENDBRANCH   8  16
TORSDOF 4
ENDMDL
MODEL 3
REMARK VINA RESULT:      -7.0      1.137      1.552
REMARK  Name = 
REMARK  5 active torsions:
REMARK  status: ('A' for Active; 'I' for Inactive)
REMARK    1  A    between atoms: C_1  and  C_2
REMARK    2  A    between atoms: C_8  and  N_9
REMARK    3  A    between atoms: C_10  and  C_12
REMARK    4  A    between atoms: C_15  and  N_16
REMARK    5  A    between atoms: C_21  and  C_22
REMARK                            x       y       z     vdW  Elec       q    Type
REMARK                         _______ _______ _______ _____ _____    ______ ____
ROOT
ATOM      1  C   UNL     1       5.724   4.860  14.064  0.00  0.00    +0.000 C 
ATOM      2  C   UNL     1       6.487   4.673  15.381  0.00  0.00    +0.000 C 
ATOM      3  C   UNL     1       5.981   3.435  16.145  0.00  0.00    +0.000 C 
ATOM      4  C   UNL     1       4.509   3.563  16.559  0.00  0.00    +0.000 C 
ATOM      5  C   UNL     1       4.199   4.921  17.141  0.00  0.00    +0.000 A 
ATOM      6  C   UNL     1       5.099   5.962  17.035  0.00  0.00    +0.000 A 
ATOM      7  S   UNL     1       4.628   7.295  17.962  0.00  0.00    +0.000 S 
ATOM      8  C   UNL     1       3.106   6.597  18.310  0.00  0.00    +0.000 A 
ATOM      9  C   UNL     1       2.960   5.302  17.826  0.00  0.00    +0.000 A 
ATOM     10  C   UNL     1       6.401   5.925  16.286  0.00  0.00    +0.000 C 
ENDROOT
BRANCH   9  11
ATOM     11  C   UNL     1       1.868   4.337  18.018  0.00  0.00    +0.000 C 
ATOM     12  N   UNL     1       1.756   3.674  19.199  0.00  0.00    +0.000 N 
ATOM     13  O   UNL     1       1.013   4.097  17.160  0.00  0.00    +0.000 OA
ATOM     14  H   UNL     1       1.988   4.220  20.025  0.00  0.00    +0.000 HD
ATOM     15  H   UNL     1       0.887   3.164  19.273  0.00  0.00    +0.000 HD
ENDBRANCH   9  11
BRANCH   8  16
ATOM     16  N   UNL     1       2.354   7.477  19.064  0.00  0.00    +0.000 N 
ATOM     17  C   UNL     1       1.836   8.647  18.559  0.00  0.00    +0.000 C 
ATOM     18  O   UNL     1       1.961   9.039  17.402  0.00  0.00    +0.000 OA
ATOM     19  H   UNL     1       2.499   7.403  20.062  0.00  0.00    +0.000 HD
BRANCH  17  20
ATOM     20  C   UNL     1       0.968   9.417  19.493  0.00  0.00    +0.000 A 
ATOM     21  C   UNL     1       0.285  10.584  19.126  0.00  0.00    +0.000 A 
ATOM     22  C   UNL     1      -0.332  11.370  20.111  0.00  0.00    +0.000 A 
ATOM     23  C   UNL     1      -0.265  10.974  21.456  0.00  0.00    +0.000 A 
ATOM     24  C   UNL     1       0.342   9.764  21.813  0.00  0.00    +0.000 A 
ATOM     25  C   UNL     1       0.945   8.983  20.827  0.00  0.00    +0.000 A 
BRANCH  23  26
ATOM     26  N   UNL     1      -0.794  11.856  22.507  0.00  0.00    +0.000 N 
ATOM     27  O   UNL     1      -1.716  11.422  23.210  0.00  0.00    +0.000 OA
ATOM     28  O   UNL     1      -0.301  12.988  22.610  0.00  0.00    +0.000 OA
ENDBRANCH  23  26
ENDBRANCH  17  20
ENDBRANCH   8  16
TORSDOF 4
ENDMDL
MODEL 4
REMARK VINA RESULT:      -6.9      2.966      8.915
REMARK  Name = 
REMARK  5 active torsions:
REMARK  status: ('A' for Active; 'I' for Inactive)
REMARK    1  A    between atoms: C_1  and  C_2
REMARK    2  A    between atoms: C_8  and  N_9
REMARK    3  A    between atoms: C_10  and  C_12
REMARK    4  A    between atoms: C_15  and  N_16
REMARK    5  A    between atoms: C_21  and  C_22
REMARK                            x       y       z     vdW  Elec       q    Type
REMARK                         _______ _______ _______ _____ _____    ______ ____
ROOT
ATOM      1  C   UNL     1      -3.165  12.374  23.054  0.00  0.00    +0.000 C 
ATOM      2  C   UNL     1      -2.023  13.242  22.511  0.00  0.00    +0.000 C 
ATOM      3  C   UNL     1      -2.316  13.710  21.073  0.00  0.00    +0.000 C 
ATOM      4  C   UNL     1      -2.424  12.540  20.086  0.00  0.00    +0.000 C 
ATOM      5  C   UNL     1      -1.320  11.529  20.282  0.00  0.00    +0.000 A 
ATOM      6  C   UNL     1      -0.510  11.568  21.399  0.00  0.00    +0.000 A 
ATOM      7  S   UNL     1       0.786  10.490  21.272  0.00  0.00    +0.000 S 
ATOM      8  C   UNL     1       0.144   9.784  19.853  0.00  0.00    +0.000 A 
ATOM      9  C   UNL     1      -1.002  10.415  19.383  0.00  0.00    +0.000 A 
ATOM     10  C   UNL     1      -0.661  12.509  22.561  0.00  0.00    +0.000 C 
ENDROOT
BRANCH   9  11
ATOM     11  C   UNL     1      -1.769  10.190  18.148  0.00  0.00    +0.000 C 
ATOM     12  N   UNL     1      -1.146  10.283  16.944  0.00  0.00    +0.000 N 
ATOM     13  O   UNL     1      -2.968   9.898  18.136  0.00  0.00    +0.000 OA
ATOM     14  H   UNL     1      -0.194   9.926  16.921  0.00  0.00    +0.000 HD
ATOM     15  H   UNL     1      -1.726   9.954  16.185  0.00  0.00    +0.000 HD
ENDBRANCH   9  11
BRANCH   8  16
ATOM     16  N   UNL     1       0.959   8.748  19.440  0.00  0.00    +0.000 N 
ATOM     17  C   UNL     1       1.811   8.846  18.363  0.00  0.00    +0.000 C 
ATOM     18  O   UNL     1       1.960   9.843  17.663  0.00  0.00    +0.000 OA
ATOM     19  H   UNL     1       0.652   7.831  19.731  0.00  0.00    +0.000 HD
BRANCH  17  20
ATOM     20  C   UNL     1       2.684   7.662  18.131  0.00  0.00    +0.000 A 
ATOM     21  C   UNL     1       3.796   7.680  17.278  0.00  0.00    +0.000 A 
ATOM     22  C   UNL     1       4.436   6.477  16.942  0.00  0.00    +0.000 A 
ATOM     23  C   UNL     1       3.958   5.267  17.469  0.00  0.00    +0.000 A 
ATOM     24  C   UNL     1       2.904   5.257  18.389  0.00  0.00    +0.000 A 
ATOM     25  C   UNL     1       2.278   6.458  18.726  0.00  0.00    +0.000 A 
BRANCH  23  26
ATOM     26  N   UNL     1       4.538   3.993  17.020  0.00  0.00    +0.000 N 
ATOM     27  O   UNL     1       4.362   2.998  17.736  0.00  0.00    +0.000 OA
ATOM     28  O   UNL     1       5.188   3.996  15.965  0.00  0.00    +0.000 OA
ENDBRANCH  23  26
ENDBRANCH  17  20
ENDBRANCH   8  16
TORSDOF 4
ENDMDL
MODEL 5
REMARK VINA RESULT:      -6.9      3.289      8.886
REMARK  Name = 
REMARK  5 active torsions:
REMARK  status: ('A' for Active; 'I' for Inactive)
REMARK    1  A    between atoms: C_1  and  C_2
REMARK    2  A    between atoms: C_8  and  N_9
REMARK    3  A    between atoms: C_10  and  C_12
REMARK    4  A    between atoms: C_15  and  N_16
REMARK    5  A    between atoms: C_21  and  C_22
REMARK                            x       y       z     vdW  Elec       q    Type
REMARK                         _______ _______ _______ _____ _____    ______ ____
ROOT
ATOM      1  C   UNL     1      -3.490  12.650  22.602  0.00  0.00    +0.000 C 
ATOM      2  C   UNL     1      -2.184  13.424  22.380  0.00  0.00    +0.000 C 
ATOM      3  C   UNL     1      -2.131  14.028  20.965  0.00  0.00    +0.000 C 
ATOM      4  C   UNL     1      -2.143  12.955  19.868  0.00  0.00    +0.000 C 
ATOM      5  C   UNL     1      -1.203  11.816  20.178  0.00  0.00    +0.000 A 
ATOM      6  C   UNL     1      -0.640  11.681  21.431  0.00  0.00    +0.000 A 
ATOM      7  S   UNL     1       0.548  10.477  21.458  0.00  0.00    +0.000 S 
ATOM      8  C   UNL     1       0.148   9.956  19.879  0.00  0.00    +0.000 A 
ATOM      9  C   UNL     1      -0.813  10.745  19.257  0.00  0.00    +0.000 A 
ATOM     10  C   UNL     1      -0.937  12.542  22.625  0.00  0.00    +0.000 C 
ENDROOT
BRANCH   9  11
ATOM     11  C   UNL     1      -1.328  10.700  17.879  0.00  0.00    +0.000 C 
ATOM     12  N   UNL     1      -1.559  11.860  17.210  0.00  0.00    +0.000 N 
ATOM     13  O   UNL     1      -1.552   9.650  17.270  0.00  0.00    +0.000 OA
ATOM     14  H   UNL     1      -0.886  12.602  17.386  0.00  0.00    +0.000 HD
ATOM     15  H   UNL     1      -1.755  11.706  16.231  0.00  0.00    +0.000 HD
ENDBRANCH   9  11
BRANCH   8  16
ATOM     16  N   UNL     1       0.929   8.870  19.537  0.00  0.00    +0.000 N 
ATOM     17  C   UNL     1       1.808   8.881  18.478  0.00  0.00    +0.000 C 
ATOM     18  O   UNL     1       2.014   9.836  17.734  0.00  0.00    +0.000 OA
ATOM     19  H   UNL     1       0.578   7.981  19.864  0.00  0.00    +0.000 HD
BRANCH  17  20
ATOM     20  C   UNL     1       2.638   7.654  18.324  0.00  0.00    +0.000 A 
ATOM     21  C   UNL     1       2.544   6.548  19.179  0.00  0.00    +0.000 A 
ATOM     22  C   UNL     1       3.505   5.527  19.106  0.00  0.00    +0.000 A 
ATOM     23  C   UNL     1       4.547   5.621  18.171  0.00  0.00    +0.000 A 
ATOM     24  C   UNL     1       4.592   6.681  17.259  0.00  0.00    +0.000 A 
ATOM     25  C   UNL     1       3.628   7.688  17.331  0.00  0.00    +0.000 A 
BRANCH  23  26
ATOM     26  N   UNL     1       5.628   4.625  18.176  0.00  0.00    +0.000 N 
ATOM     27  O   UNL     1       6.356   4.562  17.176  0.00  0.00    +0.000 OA
ATOM     28  O   UNL     1       5.731   3.893  19.170  0.00  0.00    +0.000 OA
ENDBRANCH  23  26
ENDBRANCH  17  20
ENDBRANCH   8  16
TORSDOF 4
ENDMDL
MODEL 6
REMARK VINA RESULT:      -6.9      3.319      9.124
REMARK  Name = 
REMARK  5 active torsions:
REMARK  status: ('A' for Active; 'I' for Inactive)
REMARK    1  A    between atoms: C_1  and  C_2
REMARK    2  A    between atoms: C_8  and  N_9
REMARK    3  A    between atoms: C_10  and  C_12
REMARK    4  A    between atoms: C_15  and  N_16
REMARK    5  A    between atoms: C_21  and  C_22
REMARK                            x       y       z     vdW  Elec       q    Type
REMARK                         _______ _______ _______ _____ _____    ______ ____
ROOT
ATOM      1  C   UNL     1      -3.449  13.410  21.621  0.00  0.00    +0.000 C 
ATOM      2  C   UNL     1      -2.521  13.296  22.837  0.00  0.00    +0.000 C 
ATOM      3  C   UNL     1      -1.298  14.219  22.690  0.00  0.00    +0.000 C 
ATOM      4  C   UNL     1      -0.419  13.842  21.489  0.00  0.00    +0.000 C 
ATOM      5  C   UNL     1      -0.188  12.353  21.401  0.00  0.00    +0.000 A 
ATOM      6  C   UNL     1      -0.923  11.473  22.170  0.00  0.00    +0.000 A 
ATOM      7  S   UNL     1      -0.321   9.896  22.067  0.00  0.00    +0.000 S 
ATOM      8  C   UNL     1       0.759  10.321  20.811  0.00  0.00    +0.000 A 
ATOM      9  C   UNL     1       0.767  11.680  20.516  0.00  0.00    +0.000 A 
ATOM     10  C   UNL     1      -2.059  11.840  23.082  0.00  0.00    +0.000 C 
ENDROOT
BRANCH   9  11
ATOM     11  C   UNL     1       1.628  12.445  19.601  0.00  0.00    +0.000 C 
ATOM     12  N   UNL     1       1.380  12.420  18.266  0.00  0.00    +0.000 N 
ATOM     13  O   UNL     1       2.574  13.141  19.981  0.00  0.00    +0.000 OA
ATOM     14  H   UNL     1       0.396  12.408  18.009  0.00  0.00    +0.000 HD
ATOM     15  H   UNL     1       1.928  13.101  17.760  0.00  0.00    +0.000 HD
ENDBRANCH   9  11
BRANCH   8  16
ATOM     16  N   UNL     1       1.447   9.200  20.392  0.00  0.00    +0.000 N 
ATOM     17  C   UNL     1       1.499   8.798  19.077  0.00  0.00    +0.000 C 
ATOM     18  O   UNL     1       0.968   9.379  18.134  0.00  0.00    +0.000 OA
ATOM     19  H   UNL     1       1.606   8.511  21.114  0.00  0.00    +0.000 HD
BRANCH  17  20
ATOM     20  C   UNL     1       2.372   7.623  18.801  0.00  0.00    +0.000 A 
ATOM     21  C   UNL     1       2.485   6.527  19.667  0.00  0.00    +0.000 A 
ATOM     22  C   UNL     1       3.486   5.568  19.449  0.00  0.00    +0.000 A 
ATOM     23  C   UNL     1       4.361   5.713  18.361  0.00  0.00    +0.000 A 
ATOM     24  C   UNL     1       4.193   6.759  17.447  0.00  0.00    +0.000 A 
ATOM     25  C   UNL     1       3.190   7.704  17.664  0.00  0.00    +0.000 A 
BRANCH  23  26
ATOM     26  N   UNL     1       5.491   4.787  18.201  0.00  0.00    +0.000 N 
ATOM     27  O   UNL     1       5.997   4.687  17.075  0.00  0.00    +0.000 OA
ATOM     28  O   UNL     1       5.854   4.144  19.196  0.00  0.00    +0.000 OA
ENDBRANCH  23  26
ENDBRANCH  17  20
ENDBRANCH   8  16
TORSDOF 4
ENDMDL
MODEL 7
REMARK VINA RESULT:      -6.7      1.069      1.284
REMARK  Name = 
REMARK  5 active torsions:
REMARK  status: ('A' for Active; 'I' for Inactive)
REMARK    1  A    between atoms: C_1  and  C_2
REMARK    2  A    between atoms: C_8  and  N_9
REMARK    3  A    between atoms: C_10  and  C_12
REMARK    4  A    between atoms: C_15  and  N_16
REMARK    5  A    between atoms: C_21  and  C_22
REMARK                            x       y       z     vdW  Elec       q    Type
REMARK                         _______ _______ _______ _____ _____    ______ ____
ROOT
ATOM      1  C   UNL     1       5.519   4.595  14.047  0.00  0.00    +0.000 C 
ATOM      2  C   UNL     1       6.326   4.421  15.339  0.00  0.00    +0.000 C 
ATOM      3  C   UNL     1       5.787   3.245  16.175  0.00  0.00    +0.000 C 
ATOM      4  C   UNL     1       4.343   3.471  16.642  0.00  0.00    +0.000 C 
ATOM      5  C   UNL     1       4.131   4.866  17.176  0.00  0.00    +0.000 A 
ATOM      6  C   UNL     1       5.080   5.851  16.990  0.00  0.00    +0.000 A 
ATOM      7  S   UNL     1       4.721   7.245  17.877  0.00  0.00    +0.000 S 
ATOM      8  C   UNL     1       3.179   6.648  18.314  0.00  0.00    +0.000 A 
ATOM      9  C   UNL     1       2.944   5.344  17.893  0.00  0.00    +0.000 A 
ATOM     10  C   UNL     1       6.345   5.712  16.192  0.00  0.00    +0.000 C 
ENDROOT
BRANCH   9  11
ATOM     11  C   UNL     1       1.810   4.449  18.170  0.00  0.00    +0.000 C 
ATOM     12  N   UNL     1       1.623   3.971  19.428  0.00  0.00    +0.000 N 
ATOM     13  O   UNL     1       0.986   4.110  17.316  0.00  0.00    +0.000 OA
ATOM     14  H   UNL     1       1.836   4.627  20.176  0.00  0.00    +0.000 HD
ATOM     15  H   UNL     1       0.733   3.503  19.533  0.00  0.00    +0.000 HD
ENDBRANCH   9  11
BRANCH   8  16
ATOM     16  N   UNL     1       2.508   7.597  19.060  0.00  0.00    +0.000 N 
ATOM     17  C   UNL     1       1.893   8.694  18.500  0.00  0.00    +0.000 C 
ATOM     18  O   UNL     1       1.852   8.952  17.300  0.00  0.00    +0.000 OA
ATOM     19  H   UNL     1       2.785   7.642  20.030  0.00  0.00    +0.000 HD
BRANCH  17  20
ATOM     20  C   UNL     1       1.134   9.554  19.450  0.00  0.00    +0.000 A 
ATOM     21  C   UNL     1       0.645   9.098  20.681  0.00  0.00    +0.000 A 
ATOM     22  C   UNL     1      -0.244   9.896  21.417  0.00  0.00    +0.000 A 
ATOM     23  C   UNL     1      -0.629  11.149  20.915  0.00  0.00    +0.000 A 
ATOM     24  C   UNL     1      -0.074  11.642  19.729  0.00  0.00    +0.000 A 
ATOM     25  C   UNL     1       0.816  10.847  19.007  0.00  0.00    +0.000 A 
BRANCH  23  26
ATOM     26  N   UNL     1      -1.658  11.933  21.614  0.00  0.00    +0.000 N 
ATOM     27  O   UNL     1      -1.541  12.071  22.839  0.00  0.00    +0.000 OA
ATOM     28  O   UNL     1      -2.592  12.388  20.939  0.00  0.00    +0.000 OA
ENDBRANCH  23  26
ENDBRANCH  17  20
ENDBRANCH   8  16
TORSDOF 4
ENDMDL
MODEL 8
REMARK VINA RESULT:      -6.6      3.093      8.888
REMARK  Name = 
REMARK  5 active torsions:
REMARK  status: ('A' for Active; 'I' for Inactive)
REMARK    1  A    between atoms: C_1  and  C_2
REMARK    2  A    between atoms: C_8  and  N_9
REMARK    3  A    between atoms: C_10  and  C_12
REMARK    4  A    between atoms: C_15  and  N_16
REMARK    5  A    between atoms: C_21  and  C_22
REMARK                            x       y       z     vdW  Elec       q    Type
REMARK                         _______ _______ _______ _____ _____    ______ ____
ROOT
ATOM      1  C   UNL     1      -3.323  12.320  23.040  0.00  0.00    +0.000 C 
ATOM      2  C   UNL     1      -2.248  13.323  22.604  0.00  0.00    +0.000 C 
ATOM      3  C   UNL     1      -2.567  13.909  21.216  0.00  0.00    +0.000 C 
ATOM      4  C   UNL     1      -2.576  12.840  20.115  0.00  0.00    +0.000 C 
ATOM      5  C   UNL     1      -1.399  11.902  20.226  0.00  0.00    +0.000 A 
ATOM      6  C   UNL     1      -0.602  11.891  21.353  0.00  0.00    +0.000 A 
ATOM      7  S   UNL     1       0.775  10.933  21.139  0.00  0.00    +0.000 S 
ATOM      8  C   UNL     1       0.201  10.327  19.647  0.00  0.00    +0.000 A 
ATOM      9  C   UNL     1      -0.988  10.912  19.225  0.00  0.00    +0.000 A 
ATOM     10  C   UNL     1      -0.834  12.695  22.600  0.00  0.00    +0.000 C 
ENDROOT
BRANCH   9  11
ATOM     11  C   UNL     1      -1.726  10.754  17.963  0.00  0.00    +0.000 C 
ATOM     12  N   UNL     1      -1.735  11.768  17.058  0.00  0.00    +0.000 N 
ATOM     13  O   UNL     1      -2.338   9.727  17.656  0.00  0.00    +0.000 OA
ATOM     14  H   UNL     1      -0.860  12.281  16.975  0.00  0.00    +0.000 HD
ATOM     15  H   UNL     1      -2.133  11.489  16.173  0.00  0.00    +0.000 HD
ENDBRANCH   9  11
BRANCH   8  16
ATOM     16  N   UNL     1       1.097   9.403  19.145  0.00  0.00    +0.000 N 
ATOM     17  C   UNL     1       1.503   8.292  19.849  0.00  0.00    +0.000 C 
ATOM     18  O   UNL     1       1.119   7.983  20.973  0.00  0.00    +0.000 OA
ATOM     19  H   UNL     1       1.695   9.755  18.411  0.00  0.00    +0.000 HD
BRANCH  17  20
ATOM     20  C   UNL     1       2.395   7.358  19.108  0.00  0.00    +0.000 A 
ATOM     21  C   UNL     1       2.745   6.087  19.582  0.00  0.00    +0.000 A 
ATOM     22  C   UNL     1       3.757   5.357  18.940  0.00  0.00    +0.000 A 
ATOM     23  C   UNL     1       4.404   5.906  17.822  0.00  0.00    +0.000 A 
ATOM     24  C   UNL     1       3.996   7.137  17.295  0.00  0.00    +0.000 A 
ATOM     25  C   UNL     1       2.982   7.852  17.934  0.00  0.00    +0.000 A 
BRANCH  23  26
ATOM     26  N   UNL     1       5.551   5.208  17.223  0.00  0.00    +0.000 N 
ATOM     27  O   UNL     1       6.684   5.533  17.606  0.00  0.00    +0.000 OA
ATOM     28  O   UNL     1       5.318   4.355  16.357  0.00  0.00    +0.000 OA
ENDBRANCH  23  26
ENDBRANCH  17  20
ENDBRANCH   8  16
TORSDOF 4
ENDMDL
MODEL 9
REMARK VINA RESULT:      -6.6      2.905      8.427
REMARK  Name = 
REMARK  5 active torsions:
REMARK  status: ('A' for Active; 'I' for Inactive)
REMARK    1  A    between atoms: C_1  and  C_2
REMARK    2  A    between atoms: C_8  and  N_9
REMARK    3  A    between atoms: C_10  and  C_12
REMARK    4  A    between atoms: C_15  and  N_16
REMARK    5  A    between atoms: C_21  and  C_22
REMARK                            x       y       z     vdW  Elec       q    Type
REMARK                         _______ _______ _______ _____ _____    ______ ____
ROOT
ATOM      1  C   UNL     1       1.025  14.395  19.816  0.00  0.00    +0.000 C 
ATOM      2  C   UNL     1      -0.336  13.784  19.462  0.00  0.00    +0.000 C 
ATOM      3  C   UNL     1      -1.097  13.351  20.729  0.00  0.00    +0.000 C 
ATOM      4  C   UNL     1      -0.362  12.250  21.506  0.00  0.00    +0.000 C 
ATOM      5  C   UNL     1       0.160  11.165  20.598  0.00  0.00    +0.000 A 
ATOM      6  C   UNL     1       0.181  11.333  19.228  0.00  0.00    +0.000 A 
ATOM      7  S   UNL     1       0.584   9.901  18.425  0.00  0.00    +0.000 S 
ATOM      8  C   UNL     1       0.978   9.114  19.891  0.00  0.00    +0.000 A 
ATOM      9  C   UNL     1       0.713   9.875  21.024  0.00  0.00    +0.000 A 
ATOM     10  C   UNL     1      -0.200  12.586  18.491  0.00  0.00    +0.000 C 
ENDROOT
BRANCH   9  11
ATOM     11  C   UNL     1       0.797   9.516  22.448  0.00  0.00    +0.000 C 
ATOM     12  N   UNL     1      -0.336   9.211  23.133  0.00  0.00    +0.000 N 
ATOM     13  O   UNL     1       1.860   9.455  23.072  0.00  0.00    +0.000 OA
ATOM     14  H   UNL     1      -1.032   8.689  22.606  0.00  0.00    +0.000 HD
ATOM     15  H   UNL     1      -0.141   8.829  24.047  0.00  0.00    +0.000 HD
ENDBRANCH   9  11
BRANCH   8  16
ATOM     16  N   UNL     1       1.433   7.837  19.625  0.00  0.00    +0.000 N 
ATOM     17  C   UNL     1       2.429   7.571  18.713  0.00  0.00    +0.000 C 
ATOM     18  O   UNL     1       3.032   8.411  18.052  0.00  0.00    +0.000 OA
ATOM     19  H   UNL     1       0.780   7.102  19.856  0.00  0.00    +0.000 HD
BRANCH  17  20
ATOM     20  C   UNL     1       2.857   6.146  18.634  0.00  0.00    +0.000 A 
ATOM     21  C   UNL     1       1.987   5.096  18.310  0.00  0.00    +0.000 A 
ATOM     22  C   UNL     1       2.408   3.767  18.470  0.00  0.00    +0.000 A 
ATOM     23  C   UNL     1       3.702   3.502  18.947  0.00  0.00    +0.000 A 
ATOM     24  C   UNL     1       4.600   4.548  19.187  0.00  0.00    +0.000 A 
ATOM     25  C   UNL     1       4.178   5.867  19.017  0.00  0.00    +0.000 A 
BRANCH  23  26
ATOM     26  N   UNL     1       4.105   2.120  19.240  0.00  0.00    +0.000 N 
ATOM     27  O   UNL     1       4.839   1.932  20.220  0.00  0.00    +0.000 OA
ATOM     28  O   UNL     1       3.706   1.229  18.477  0.00  0.00    +0.000 OA
ENDBRANCH  23  26
ENDBRANCH  17  20
ENDBRANCH   8  16
TORSDOF 4
ENDMDL
