MODEL 1
REMARK VINA RESULT:      -6.3      0.000      0.000
REMARK  Name = 
REMARK  9 active torsions:
REMARK  status: ('A' for Active; 'I' for Inactive)
REMARK    1  A    between atoms: C_2  and  C_3
REMARK    2  A    between atoms: C_2  and  C_4
REMARK    3  A    between atoms: C_4  and  N_5
REMARK    4  A    between atoms: C_6  and  C_7
REMARK    5  A    between atoms: C_7  and  C_8
REMARK    6  A    between atoms: C_7  and  C_9
REMARK    7  A    between atoms: N_12  and  C_13
REMARK    8  A    between atoms: C_20  and  C_21
REMARK    9  A    between atoms: C_23  and  C_24
REMARK                            x       y       z     vdW  Elec       q    Type
REMARK                         _______ _______ _______ _____ _____    ______ ____
ROOT
ATOM      1  N   UNL     1       1.274   8.634  19.421  0.00  0.00    +0.000 N 
ATOM      2  C   UNL     1       1.246   9.877  18.809  0.00  0.00    +0.000 A 
ATOM      3  N   UNL     1       2.114   9.855  17.809  0.00  0.00    +0.000 NA
ATOM      4  N   UNL     1       2.668   8.608  17.737  0.00  0.00    +0.000 NA
ATOM      5  C   UNL     1       2.169   7.862  18.700  0.00  0.00    +0.000 A 
ATOM      6  N   UNL     1       2.373   6.526  18.907  0.00  0.00    +0.000 N 
ATOM      7  C   UNL     1       2.973   5.819  17.748  0.00  0.00    +0.000 C 
ATOM      8  C   UNL     1       2.882   4.288  17.937  0.00  0.00    +0.000 C 
ATOM      9  C   UNL     1       1.510   3.737  17.564  0.00  0.00    +0.000 C 
ATOM     10  O   UNL     1       3.316   3.820  19.227  0.00  0.00    +0.000 OA
ATOM     11  C   UNL     1       2.926   4.611  20.359  0.00  0.00    +0.000 C 
ATOM     12  C   UNL     1       1.525   4.263  20.856  0.00  0.00    +0.000 C 
ATOM     13  C   UNL     1       3.104   6.124  20.124  0.00  0.00    +0.000 C 
ENDROOT
BRANCH   2  14
ATOM     14  C   UNL     1       0.426  11.072  19.223  0.00  0.00    +0.000 C 
ATOM     15  C   UNL     1       1.109  12.369  18.756  0.00  0.00    +0.000 C 
BRANCH  14  16
ATOM     16  C   UNL     1      -0.998  11.043  18.730  0.00  0.00    +0.000 A 
ATOM     17  C   UNL     1      -1.517  10.209  17.705  0.00  0.00    +0.000 A 
ATOM     18  N   UNL     1      -2.822  10.391  17.495  0.00  0.00    +0.000 NA
ATOM     19  N   UNL     1      -3.161  11.325  18.399  0.00  0.00    +0.000 N 
ATOM     20  C   UNL     1      -4.516  11.819  18.453  0.00  0.00    +0.000 C 
ATOM     21  C   UNL     1      -2.113  11.725  19.180  0.00  0.00    +0.000 A 
ENDBRANCH  14  16
ENDBRANCH   2  14
BRANCH   1  22
ATOM     22  C   UNL     1       0.476   8.195  20.556  0.00  0.00    +0.000 C 
BRANCH  22  24
ATOM     23  C   UNL     1       1.926   9.197  22.398  0.00  0.00    +0.000 C 
ATOM     24  C   UNL     1       0.716   8.964  21.849  0.00  0.00    +0.000 C 
ATOM     25  C   UNL     1      -0.521   9.429  22.570  0.00  0.00    +0.000 C 
ENDBRANCH  22  24
ENDBRANCH   1  22
TORSDOF 4
ENDMDL
MODEL 2
REMARK VINA RESULT:      -6.1      0.652      1.196
REMARK  Name = 
REMARK  9 active torsions:
REMARK  status: ('A' for Active; 'I' for Inactive)
REMARK    1  A    between atoms: C_2  and  C_3
REMARK    2  A    between atoms: C_2  and  C_4
REMARK    3  A    between atoms: C_4  and  N_5
REMARK    4  A    between atoms: C_6  and  C_7
REMARK    5  A    between atoms: C_7  and  C_8
REMARK    6  A    between atoms: C_7  and  C_9
REMARK    7  A    between atoms: N_12  and  C_13
REMARK    8  A    between atoms: C_20  and  C_21
REMARK    9  A    between atoms: C_23  and  C_24
REMARK                            x       y       z     vdW  Elec       q    Type
REMARK                         _______ _______ _______ _____ _____    ______ ____
ROOT
ATOM      1  N   UNL     1       1.043   8.942  19.637  0.00  0.00    +0.000 N 
ATOM      2  C   UNL     1       1.012  10.225  19.113  0.00  0.00    +0.000 A 
ATOM      3  N   UNL     1       1.902  10.285  18.135  0.00  0.00    +0.000 NA
ATOM      4  N   UNL     1       2.475   9.053  17.989  0.00  0.00    +0.000 NA
ATOM      5  C   UNL     1       1.964   8.234  18.884  0.00  0.00    +0.000 A 
ATOM      6  N   UNL     1       2.182   6.890  19.002  0.00  0.00    +0.000 N 
ATOM      7  C   UNL     1       2.818   6.274  17.809  0.00  0.00    +0.000 C 
ATOM      8  C   UNL     1       2.743   4.732  17.888  0.00  0.00    +0.000 C 
ATOM      9  C   UNL     1       1.387   4.193  17.445  0.00  0.00    +0.000 C 
ATOM     10  O   UNL     1       3.154   4.179  19.151  0.00  0.00    +0.000 OA
ATOM     11  C   UNL     1       2.728   4.884  20.327  0.00  0.00    +0.000 C 
ATOM     12  C   UNL     1       1.322   4.484  20.765  0.00  0.00    +0.000 C 
ATOM     13  C   UNL     1       2.890   6.411  20.204  0.00  0.00    +0.000 C 
ENDROOT
BRANCH   2  14
ATOM     14  C   UNL     1       0.167  11.378  19.592  0.00  0.00    +0.000 C 
ATOM     15  C   UNL     1       0.882  12.711  19.310  0.00  0.00    +0.000 C 
BRANCH  14  16
ATOM     16  C   UNL     1      -1.220  11.412  19.001  0.00  0.00    +0.000 A 
ATOM     17  C   UNL     1      -2.360  12.043  19.564  0.00  0.00    +0.000 A 
ATOM     18  N   UNL     1      -3.451  11.923  18.806  0.00  0.00    +0.000 NA
ATOM     19  N   UNL     1      -3.019  11.234  17.736  0.00  0.00    +0.000 N 
ATOM     20  C   UNL     1      -3.945  10.868  16.691  0.00  0.00    +0.000 C 
ATOM     21  C   UNL     1      -1.688  10.930  17.792  0.00  0.00    +0.000 A 
ENDBRANCH  14  16
ENDBRANCH   2  14
BRANCH   1  22
ATOM     22  C   UNL     1       0.226   8.414  20.719  0.00  0.00    +0.000 C 
BRANCH  22  24
ATOM     23  C   UNL     1      -0.568   9.646  22.805  0.00  0.00    +0.000 C 
ATOM     24  C   UNL     1       0.419   9.100  22.067  0.00  0.00    +0.000 C 
ATOM     25  C   UNL     1       1.842   9.208  22.544  0.00  0.00    +0.000 C 
ENDBRANCH  22  24
ENDBRANCH   1  22
TORSDOF 4
ENDMDL
MODEL 3
REMARK VINA RESULT:      -6.1      0.980      1.378
REMARK  Name = 
REMARK  9 active torsions:
REMARK  status: ('A' for Active; 'I' for Inactive)
REMARK    1  A    between atoms: C_2  and  C_3
REMARK    2  A    between atoms: C_2  and  C_4
REMARK    3  A    between atoms: C_4  and  N_5
REMARK    4  A    between atoms: C_6  and  C_7
REMARK    5  A    between atoms: C_7  and  C_8
REMARK    6  A    between atoms: C_7  and  C_9
REMARK    7  A    between atoms: N_12  and  C_13
REMARK    8  A    between atoms: C_20  and  C_21
REMARK    9  A    between atoms: C_23  and  C_24
REMARK                            x       y       z     vdW  Elec       q    Type
REMARK                         _______ _______ _______ _____ _____    ______ ____
ROOT
ATOM      1  N   UNL     1       1.832   8.343  19.537  0.00  0.00    +0.000 N 
ATOM      2  C   UNL     1       1.587   9.490  18.799  0.00  0.00    +0.000 A 
ATOM      3  N   UNL     1       1.808   9.207  17.524  0.00  0.00    +0.000 NA
ATOM      4  N   UNL     1       2.148   7.887  17.422  0.00  0.00    +0.000 NA
ATOM      5  C   UNL     1       2.164   7.354  18.626  0.00  0.00    +0.000 A 
ATOM      6  N   UNL     1       2.344   6.039  18.951  0.00  0.00    +0.000 N 
ATOM      7  C   UNL     1       2.202   5.108  17.803  0.00  0.00    +0.000 C 
ATOM      8  C   UNL     1       2.105   3.646  18.295  0.00  0.00    +0.000 C 
ATOM      9  C   UNL     1       0.700   3.283  18.766  0.00  0.00    +0.000 C 
ATOM     10  O   UNL     1       3.106   3.275  19.261  0.00  0.00    +0.000 OA
ATOM     11  C   UNL     1       3.419   4.252  20.265  0.00  0.00    +0.000 C 
ATOM     12  C   UNL     1       2.455   4.197  21.448  0.00  0.00    +0.000 C 
ATOM     13  C   UNL     1       3.565   5.676  19.695  0.00  0.00    +0.000 C 
ENDROOT
BRANCH   2  14
ATOM     14  C   UNL     1       1.193  10.844  19.333  0.00  0.00    +0.000 C 
ATOM     15  C   UNL     1       2.004  11.946  18.630  0.00  0.00    +0.000 C 
BRANCH  14  16
ATOM     16  C   UNL     1      -0.280  11.146  19.219  0.00  0.00    +0.000 A 
ATOM     17  C   UNL     1      -1.042  11.964  20.093  0.00  0.00    +0.000 A 
ATOM     18  N   UNL     1      -2.322  12.064  19.731  0.00  0.00    +0.000 NA
ATOM     19  N   UNL     1      -2.392  11.332  18.607  0.00  0.00    +0.000 N 
ATOM     20  C   UNL     1      -3.656  11.167  17.930  0.00  0.00    +0.000 C 
ATOM     21  C   UNL     1      -1.193  10.786  18.244  0.00  0.00    +0.000 A 
ENDBRANCH  14  16
ENDBRANCH   2  14
BRANCH   1  22
ATOM     22  C   UNL     1       1.705   8.181  20.978  0.00  0.00    +0.000 C 
BRANCH  22  24
ATOM     23  C   UNL     1      -0.839   8.054  21.080  0.00  0.00    +0.000 C 
ATOM     24  C   UNL     1       0.335   8.526  21.548  0.00  0.00    +0.000 C 
ATOM     25  C   UNL     1       0.332   9.518  22.679  0.00  0.00    +0.000 C 
ENDBRANCH  22  24
ENDBRANCH   1  22
TORSDOF 4
ENDMDL
MODEL 4
REMARK VINA RESULT:      -6.0      2.007      3.177
REMARK  Name = 
REMARK  9 active torsions:
REMARK  status: ('A' for Active; 'I' for Inactive)
REMARK    1  A    between atoms: C_2  and  C_3
REMARK    2  A    between atoms: C_2  and  C_4
REMARK    3  A    between atoms: C_4  and  N_5
REMARK    4  A    between atoms: C_6  and  C_7
REMARK    5  A    between atoms: C_7  and  C_8
REMARK    6  A    between atoms: C_7  and  C_9
REMARK    7  A    between atoms: N_12  and  C_13
REMARK    8  A    between atoms: C_20  and  C_21
REMARK    9  A    between atoms: C_23  and  C_24
REMARK                            x       y       z     vdW  Elec       q    Type
REMARK                         _______ _______ _______ _____ _____    ______ ____
ROOT
ATOM      1  N   UNL     1       2.506   7.435  18.819  0.00  0.00    +0.000 N 
ATOM      2  C   UNL     1       1.721   8.553  18.589  0.00  0.00    +0.000 A 
ATOM      3  N   UNL     1       2.251   9.220  17.575  0.00  0.00    +0.000 NA
ATOM      4  N   UNL     1       3.338   8.529  17.118  0.00  0.00    +0.000 NA
ATOM      5  C   UNL     1       3.501   7.451  17.855  0.00  0.00    +0.000 A 
ATOM      6  N   UNL     1       4.399   6.438  17.661  0.00  0.00    +0.000 N 
ATOM      7  C   UNL     1       5.025   6.436  16.314  0.00  0.00    +0.000 C 
ATOM      8  C   UNL     1       5.773   5.107  16.064  0.00  0.00    +0.000 C 
ATOM      9  C   UNL     1       4.835   3.984  15.632  0.00  0.00    +0.000 C 
ATOM     10  O   UNL     1       6.638   4.698  17.139  0.00  0.00    +0.000 OA
ATOM     11  C   UNL     1       6.139   4.890  18.471  0.00  0.00    +0.000 C 
ATOM     12  C   UNL     1       5.251   3.736  18.929  0.00  0.00    +0.000 C 
ATOM     13  C   UNL     1       5.463   6.261  18.667  0.00  0.00    +0.000 C 
ENDROOT
BRANCH   2  14
ATOM     14  C   UNL     1       0.509   8.985  19.375  0.00  0.00    +0.000 C 
ATOM     15  C   UNL     1       0.940   9.601  20.717  0.00  0.00    +0.000 C 
BRANCH  14  16
ATOM     16  C   UNL     1      -0.390   9.948  18.640  0.00  0.00    +0.000 A 
ATOM     17  C   UNL     1      -0.466  11.350  18.843  0.00  0.00    +0.000 A 
ATOM     18  N   UNL     1      -1.341  11.948  18.033  0.00  0.00    +0.000 NA
ATOM     19  N   UNL     1      -1.818  10.941  17.284  0.00  0.00    +0.000 N 
ATOM     20  C   UNL     1      -2.839  11.197  16.296  0.00  0.00    +0.000 C 
ATOM     21  C   UNL     1      -1.261   9.731  17.588  0.00  0.00    +0.000 A 
ENDBRANCH  14  16
ENDBRANCH   2  14
BRANCH   1  22
ATOM     22  C   UNL     1       2.299   6.406  19.826  0.00  0.00    +0.000 C 
BRANCH  22  24
ATOM     23  C   UNL     1       1.596   4.762  18.009  0.00  0.00    +0.000 C 
ATOM     24  C   UNL     1       1.688   5.110  19.309  0.00  0.00    +0.000 C 
ATOM     25  C   UNL     1       1.099   4.204  20.357  0.00  0.00    +0.000 C 
ENDBRANCH  22  24
ENDBRANCH   1  22
TORSDOF 4
ENDMDL
MODEL 5
REMARK VINA RESULT:      -6.0      2.110      3.400
REMARK  Name = 
REMARK  9 active torsions:
REMARK  status: ('A' for Active; 'I' for Inactive)
REMARK    1  A    between atoms: C_2  and  C_3
REMARK    2  A    between atoms: C_2  and  C_4
REMARK    3  A    between atoms: C_4  and  N_5
REMARK    4  A    between atoms: C_6  and  C_7
REMARK    5  A    between atoms: C_7  and  C_8
REMARK    6  A    between atoms: C_7  and  C_9
REMARK    7  A    between atoms: N_12  and  C_13
REMARK    8  A    between atoms: C_20  and  C_21
REMARK    9  A    between atoms: C_23  and  C_24
REMARK                            x       y       z     vdW  Elec       q    Type
REMARK                         _______ _______ _______ _____ _____    ______ ____
ROOT
ATOM      1  N   UNL     1       2.663   7.286  18.774  0.00  0.00    +0.000 N 
ATOM      2  C   UNL     1       1.878   8.414  18.596  0.00  0.00    +0.000 A 
ATOM      3  N   UNL     1       2.386   9.108  17.590  0.00  0.00    +0.000 NA
ATOM      4  N   UNL     1       3.458   8.426  17.086  0.00  0.00    +0.000 NA
ATOM      5  C   UNL     1       3.634   7.326  17.788  0.00  0.00    +0.000 A 
ATOM      6  N   UNL     1       4.522   6.316  17.542  0.00  0.00    +0.000 N 
ATOM      7  C   UNL     1       5.115   6.351  16.181  0.00  0.00    +0.000 C 
ATOM      8  C   UNL     1       5.850   5.026  15.874  0.00  0.00    +0.000 C 
ATOM      9  C   UNL     1       4.896   3.921  15.432  0.00  0.00    +0.000 C 
ATOM     10  O   UNL     1       6.739   4.583  16.915  0.00  0.00    +0.000 OA
ATOM     11  C   UNL     1       6.274   4.738  18.263  0.00  0.00    +0.000 C 
ATOM     12  C   UNL     1       5.392   3.574  18.710  0.00  0.00    +0.000 C 
ATOM     13  C   UNL     1       5.609   6.105  18.516  0.00  0.00    +0.000 C 
ENDROOT
BRANCH   2  14
ATOM     14  C   UNL     1       0.688   8.828  19.424  0.00  0.00    +0.000 C 
ATOM     15  C   UNL     1       1.072   8.886  20.912  0.00  0.00    +0.000 C 
BRANCH  14  16
ATOM     16  C   UNL     1       0.074  10.141  19.007  0.00  0.00    +0.000 A 
ATOM     17  C   UNL     1      -1.103  10.312  18.233  0.00  0.00    +0.000 A 
ATOM     18  N   UNL     1      -1.416  11.593  18.035  0.00  0.00    +0.000 NA
ATOM     19  N   UNL     1      -0.458  12.260  18.700  0.00  0.00    +0.000 N 
ATOM     20  C   UNL     1      -0.438  13.703  18.683  0.00  0.00    +0.000 C 
ATOM     21  C   UNL     1       0.440  11.437  19.320  0.00  0.00    +0.000 A 
ENDBRANCH  14  16
ENDBRANCH   2  14
BRANCH   1  22
ATOM     22  C   UNL     1       2.475   6.229  19.756  0.00  0.00    +0.000 C 
BRANCH  22  24
ATOM     23  C   UNL     1       1.657   4.634  17.944  0.00  0.00    +0.000 C 
ATOM     24  C   UNL     1       1.752   4.991  19.241  0.00  0.00    +0.000 C 
ATOM     25  C   UNL     1       1.053   4.164  20.286  0.00  0.00    +0.000 C 
ENDBRANCH  22  24
ENDBRANCH   1  22
TORSDOF 4
ENDMDL
MODEL 6
REMARK VINA RESULT:      -5.8      4.889      7.087
REMARK  Name = 
REMARK  9 active torsions:
REMARK  status: ('A' for Active; 'I' for Inactive)
REMARK    1  A    between atoms: C_2  and  C_3
REMARK    2  A    between atoms: C_2  and  C_4
REMARK    3  A    between atoms: C_4  and  N_5
REMARK    4  A    between atoms: C_6  and  C_7
REMARK    5  A    between atoms: C_7  and  C_8
REMARK    6  A    between atoms: C_7  and  C_9
REMARK    7  A    between atoms: N_12  and  C_13
REMARK    8  A    between atoms: C_20  and  C_21
REMARK    9  A    between atoms: C_23  and  C_24
REMARK                            x       y       z     vdW  Elec       q    Type
REMARK                         _______ _______ _______ _____ _____    ______ ____
ROOT
ATOM      1  N   UNL     1       4.754   4.890  17.814  0.00  0.00    +0.000 N 
ATOM      2  C   UNL     1       5.600   4.878  16.716  0.00  0.00    +0.000 A 
ATOM      3  N   UNL     1       5.698   3.627  16.293  0.00  0.00    +0.000 NA
ATOM      4  N   UNL     1       4.895   2.839  17.069  0.00  0.00    +0.000 NA
ATOM      5  C   UNL     1       4.319   3.586  17.986  0.00  0.00    +0.000 A 
ATOM      6  N   UNL     1       3.360   3.208  18.884  0.00  0.00    +0.000 N 
ATOM      7  C   UNL     1       2.714   1.910  18.568  0.00  0.00    +0.000 C 
ATOM      8  C   UNL     1       1.448   1.707  19.432  0.00  0.00    +0.000 C 
ATOM      9  C   UNL     1       0.238   2.447  18.872  0.00  0.00    +0.000 C 
ATOM     10  O   UNL     1       1.635   1.969  20.834  0.00  0.00    +0.000 OA
ATOM     11  C   UNL     1       2.443   3.107  21.171  0.00  0.00    +0.000 C 
ATOM     12  C   UNL     1       1.640   4.406  21.175  0.00  0.00    +0.000 C 
ATOM     13  C   UNL     1       3.720   3.212  20.315  0.00  0.00    +0.000 C 
ENDROOT
BRANCH   2  14
ATOM     14  C   UNL     1       6.335   6.056  16.127  0.00  0.00    +0.000 C 
ATOM     15  C   UNL     1       5.345   6.994  15.416  0.00  0.00    +0.000 C 
BRANCH  14  16
ATOM     16  C   UNL     1       7.147   6.838  17.127  0.00  0.00    +0.000 A 
ATOM     17  C   UNL     1       7.797   6.316  18.276  0.00  0.00    +0.000 A 
ATOM     18  N   UNL     1       8.459   7.245  18.968  0.00  0.00    +0.000 NA
ATOM     19  N   UNL     1       8.262   8.369  18.259  0.00  0.00    +0.000 N 
ATOM     20  C   UNL     1       8.805   9.621  18.727  0.00  0.00    +0.000 C 
ATOM     21  C   UNL     1       7.509   8.173  17.136  0.00  0.00    +0.000 A 
ENDBRANCH  14  16
ENDBRANCH   2  14
BRANCH   1  22
ATOM     22  C   UNL     1       4.344   6.046  18.596  0.00  0.00    +0.000 C 
BRANCH  22  24
ATOM     23  C   UNL     1       2.922   8.063  17.956  0.00  0.00    +0.000 C 
ATOM     24  C   UNL     1       3.071   6.732  18.116  0.00  0.00    +0.000 C 
ATOM     25  C   UNL     1       1.895   5.825  17.871  0.00  0.00    +0.000 C 
ENDBRANCH  22  24
ENDBRANCH   1  22
TORSDOF 4
ENDMDL
MODEL 7
REMARK VINA RESULT:      -5.8      2.275      3.677
REMARK  Name = 
REMARK  9 active torsions:
REMARK  status: ('A' for Active; 'I' for Inactive)
REMARK    1  A    between atoms: C_2  and  C_3
REMARK    2  A    between atoms: C_2  and  C_4
REMARK    3  A    between atoms: C_4  and  N_5
REMARK    4  A    between atoms: C_6  and  C_7
REMARK    5  A    between atoms: C_7  and  C_8
REMARK    6  A    between atoms: C_7  and  C_9
REMARK    7  A    between atoms: N_12  and  C_13
REMARK    8  A    between atoms: C_20  and  C_21
REMARK    9  A    between atoms: C_23  and  C_24
REMARK                            x       y       z     vdW  Elec       q    Type
REMARK                         _______ _______ _______ _____ _____    ______ ____
ROOT
ATOM      1  N   UNL     1       2.847   7.156  18.862  0.00  0.00    +0.000 N 
ATOM      2  C   UNL     1       1.960   8.219  18.920  0.00  0.00    +0.000 A 
ATOM      3  N   UNL     1       2.270   9.060  17.946  0.00  0.00    +0.000 NA
ATOM      4  N   UNL     1       3.312   8.538  17.233  0.00  0.00    +0.000 NA
ATOM      5  C   UNL     1       3.668   7.390  17.771  0.00  0.00    +0.000 A 
ATOM      6  N   UNL     1       4.589   6.499  17.297  0.00  0.00    +0.000 N 
ATOM      7  C   UNL     1       4.985   6.733  15.885  0.00  0.00    +0.000 C 
ATOM      8  C   UNL     1       5.771   5.523  15.332  0.00  0.00    +0.000 C 
ATOM      9  C   UNL     1       4.854   4.387  14.888  0.00  0.00    +0.000 C 
ATOM     10  O   UNL     1       6.826   5.054  16.191  0.00  0.00    +0.000 OA
ATOM     11  C   UNL     1       6.539   5.021  17.597  0.00  0.00    +0.000 C 
ATOM     12  C   UNL     1       5.820   3.740  18.012  0.00  0.00    +0.000 C 
ATOM     13  C   UNL     1       5.813   6.286  18.093  0.00  0.00    +0.000 C 
ENDROOT
BRANCH   2  14
ATOM     14  C   UNL     1       0.866   8.430  19.936  0.00  0.00    +0.000 C 
ATOM     15  C   UNL     1       1.419   8.232  21.358  0.00  0.00    +0.000 C 
BRANCH  14  16
ATOM     16  C   UNL     1       0.187   9.773  19.839  0.00  0.00    +0.000 A 
ATOM     17  C   UNL     1       0.634  10.987  20.423  0.00  0.00    +0.000 A 
ATOM     18  N   UNL     1      -0.164  12.021  20.151  0.00  0.00    +0.000 NA
ATOM     19  N   UNL     1      -1.118  11.489  19.370  0.00  0.00    +0.000 N 
ATOM     20  C   UNL     1      -2.206  12.312  18.897  0.00  0.00    +0.000 C 
ATOM     21  C   UNL     1      -0.937  10.156  19.131  0.00  0.00    +0.000 A 
ENDBRANCH  14  16
ENDBRANCH   2  14
BRANCH   1  22
ATOM     22  C   UNL     1       2.878   5.987  19.728  0.00  0.00    +0.000 C 
BRANCH  22  24
ATOM     23  C   UNL     1       1.779   4.399  18.064  0.00  0.00    +0.000 C 
ATOM     24  C   UNL     1       1.939   4.858  19.323  0.00  0.00    +0.000 C 
ATOM     25  C   UNL     1       1.100   4.280  20.430  0.00  0.00    +0.000 C 
ENDBRANCH  22  24
ENDBRANCH   1  22
TORSDOF 4
ENDMDL
MODEL 8
REMARK VINA RESULT:      -5.7      3.633      8.271
REMARK  Name = 
REMARK  9 active torsions:
REMARK  status: ('A' for Active; 'I' for Inactive)
REMARK    1  A    between atoms: C_2  and  C_3
REMARK    2  A    between atoms: C_2  and  C_4
REMARK    3  A    between atoms: C_4  and  N_5
REMARK    4  A    between atoms: C_6  and  C_7
REMARK    5  A    between atoms: C_7  and  C_8
REMARK    6  A    between atoms: C_7  and  C_9
REMARK    7  A    between atoms: N_12  and  C_13
REMARK    8  A    between atoms: C_20  and  C_21
REMARK    9  A    between atoms: C_23  and  C_24
REMARK                            x       y       z     vdW  Elec       q    Type
REMARK                         _______ _______ _______ _____ _____    ______ ____
ROOT
ATOM      1  N   UNL     1      -2.634  12.198  19.599  0.00  0.00    +0.000 N 
ATOM      2  C   UNL     1      -1.470  12.144  20.350  0.00  0.00    +0.000 A 
ATOM      3  N   UNL     1      -1.786  12.415  21.607  0.00  0.00    +0.000 NA
ATOM      4  N   UNL     1      -3.138  12.599  21.688  0.00  0.00    +0.000 NA
ATOM      5  C   UNL     1      -3.661  12.468  20.488  0.00  0.00    +0.000 A 
ATOM      6  N   UNL     1      -4.987  12.464  20.154  0.00  0.00    +0.000 N 
ATOM      7  C   UNL     1      -5.901  12.288  21.311  0.00  0.00    +0.000 C 
ATOM      8  C   UNL     1      -7.337  11.981  20.829  0.00  0.00    +0.000 C 
ATOM      9  C   UNL     1      -7.524  10.514  20.455  0.00  0.00    +0.000 C 
ATOM     10  O   UNL     1      -7.820  12.862  19.798  0.00  0.00    +0.000 OA
ATOM     11  C   UNL     1      -6.883  13.223  18.773  0.00  0.00    +0.000 C 
ATOM     12  C   UNL     1      -6.812  12.182  17.659  0.00  0.00    +0.000 C 
ATOM     13  C   UNL     1      -5.491  13.579  19.330  0.00  0.00    +0.000 C 
ENDROOT
BRANCH   2  14
ATOM     14  C   UNL     1      -0.075  11.883  19.841  0.00  0.00    +0.000 C 
ATOM     15  C   UNL     1       0.872  13.008  20.292  0.00  0.00    +0.000 C 
BRANCH  14  16
ATOM     16  C   UNL     1       0.490  10.548  20.254  0.00  0.00    +0.000 A 
ATOM     17  C   UNL     1       0.495  10.004  21.565  0.00  0.00    +0.000 A 
ATOM     18  N   UNL     1       1.049   8.792  21.625  0.00  0.00    +0.000 NA
ATOM     19  N   UNL     1       1.384   8.533  20.351  0.00  0.00    +0.000 N 
ATOM     20  C   UNL     1       2.059   7.301  20.018  0.00  0.00    +0.000 C 
ATOM     21  C   UNL     1       1.046   9.538  19.489  0.00  0.00    +0.000 A 
ENDBRANCH  14  16
ENDBRANCH   2  14
BRANCH   1  22
ATOM     22  C   UNL     1      -2.771  11.956  18.171  0.00  0.00    +0.000 C 
BRANCH  22  24
ATOM     23  C   UNL     1      -3.979   9.716  18.013  0.00  0.00    +0.000 C 
ATOM     24  C   UNL     1      -2.900  10.490  17.775  0.00  0.00    +0.000 C 
ATOM     25  C   UNL     1      -1.686   9.882  17.125  0.00  0.00    +0.000 C 
ENDBRANCH  22  24
ENDBRANCH   1  22
TORSDOF 4
ENDMDL
MODEL 9
REMARK VINA RESULT:      -5.7      2.853      6.942
REMARK  Name = 
REMARK  9 active torsions:
REMARK  status: ('A' for Active; 'I' for Inactive)
REMARK    1  A    between atoms: C_2  and  C_3
REMARK    2  A    between atoms: C_2  and  C_4
REMARK    3  A    between atoms: C_4  and  N_5
REMARK    4  A    between atoms: C_6  and  C_7
REMARK    5  A    between atoms: C_7  and  C_8
REMARK    6  A    between atoms: C_7  and  C_9
REMARK    7  A    between atoms: N_12  and  C_13
REMARK    8  A    between atoms: C_20  and  C_21
REMARK    9  A    between atoms: C_23  and  C_24
REMARK                            x       y       z     vdW  Elec       q    Type
REMARK                         _______ _______ _______ _____ _____    ______ ____
ROOT
ATOM      1  N   UNL     1       1.358   9.235  19.875  0.00  0.00    +0.000 N 
ATOM      2  C   UNL     1       1.892   8.222  19.095  0.00  0.00    +0.000 A 
ATOM      3  N   UNL     1       1.573   8.469  17.834  0.00  0.00    +0.000 NA
ATOM      4  N   UNL     1       0.881   9.646  17.781  0.00  0.00    +0.000 NA
ATOM      5  C   UNL     1       0.746  10.120  19.002  0.00  0.00    +0.000 A 
ATOM      6  N   UNL     1       0.219  11.325  19.373  0.00  0.00    +0.000 N 
ATOM      7  C   UNL     1       0.074  12.291  18.255  0.00  0.00    +0.000 C 
ATOM      8  C   UNL     1      -0.224  13.708  18.795  0.00  0.00    +0.000 C 
ATOM      9  C   UNL     1       1.037  14.431  19.257  0.00  0.00    +0.000 C 
ATOM     10  O   UNL     1      -1.266  13.762  19.786  0.00  0.00    +0.000 OA
ATOM     11  C   UNL     1      -1.277  12.709  20.761  0.00  0.00    +0.000 C 
ATOM     12  C   UNL     1      -0.338  12.993  21.931  0.00  0.00    +0.000 C 
ATOM     13  C   UNL     1      -1.038  11.317  20.145  0.00  0.00    +0.000 C 
ENDROOT
BRANCH   2  14
ATOM     14  C   UNL     1       2.655   7.015  19.578  0.00  0.00    +0.000 C 
ATOM     15  C   UNL     1       1.722   6.080  20.367  0.00  0.00    +0.000 C 
BRANCH  14  16
ATOM     16  C   UNL     1       3.339   6.240  18.481  0.00  0.00    +0.000 A 
ATOM     17  C   UNL     1       2.972   4.955  18.002  0.00  0.00    +0.000 A 
ATOM     18  N   UNL     1       3.752   4.526  17.008  0.00  0.00    +0.000 NA
ATOM     19  N   UNL     1       4.614   5.539  16.822  0.00  0.00    +0.000 N 
ATOM     20  C   UNL     1       5.660   5.425  15.833  0.00  0.00    +0.000 C 
ATOM     21  C   UNL     1       4.391   6.597  17.657  0.00  0.00    +0.000 A 
ENDBRANCH  14  16
ENDBRANCH   2  14
BRANCH   1  22
ATOM     22  C   UNL     1       1.467   9.386  21.318  0.00  0.00    +0.000 C 
BRANCH  22  24
ATOM     23  C   UNL     1      -0.727   8.129  21.647  0.00  0.00    +0.000 C 
ATOM     24  C   UNL     1       0.237   8.953  22.107  0.00  0.00    +0.000 C 
ATOM     25  C   UNL     1       0.093   9.564  23.475  0.00  0.00    +0.000 C 
ENDBRANCH  22  24
ENDBRANCH   1  22
TORSDOF 4
ENDMDL
