MODEL 1
REMARK VINA RESULT:      -7.1      0.000      0.000
REMARK  Name = 
REMARK  1 active torsions:
REMARK  status: ('A' for Active; 'I' for Inactive)
REMARK    1  A    between atoms: N_1  and  C_2
REMARK                            x       y       z     vdW  Elec       q    Type
REMARK                         _______ _______ _______ _____ _____    ______ ____
ROOT
ATOM      1  C   UNL     1       3.833   3.075  17.871  0.00  0.00    +0.000 A 
ATOM      2  C   UNL     1       3.051   3.476  18.974  0.00  0.00    +0.000 A 
ATOM      3  C   UNL     1       2.783   4.840  19.118  0.00  0.00    +0.000 A 
ATOM      4  N   UNL     1       3.307   5.787  18.310  0.00  0.00    +0.000 NA
ATOM      5  C   UNL     1       4.157   5.399  17.333  0.00  0.00    +0.000 A 
ATOM      6  C   UNL     1       4.481   4.059  17.096  0.00  0.00    +0.000 A 
ATOM      7  C   UNL     1       5.473   3.687  16.017  0.00  0.00    +0.000 C 
ATOM      8  C   UNL     1       6.341   4.844  15.527  0.00  0.00    +0.000 C 
ATOM      9  C   UNL     1       5.489   6.074  15.277  0.00  0.00    +0.000 C 
ATOM     10  C   UNL     1       4.827   6.518  16.577  0.00  0.00    +0.000 C 
ATOM     11  C   UNL     1       1.953   5.333  20.272  0.00  0.00    +0.000 C 
ATOM     12  C   UNL     1       0.866   4.327  20.623  0.00  0.00    +0.000 C 
ATOM     13  C   UNL     1       1.454   2.966  20.961  0.00  0.00    +0.000 C 
ATOM     14  C   UNL     1       2.637   2.535  20.083  0.00  0.00    +0.000 C 
ENDROOT
BRANCH   1  15
ATOM     15  N   UNL     1       4.188   1.707  17.691  0.00  0.00    +0.000 N 
ATOM     16  H   UNL     1       3.596   1.280  16.974  0.00  0.00    +0.000 HD
ATOM     17  H   UNL     1       5.158   1.622  17.378  0.00  0.00    +0.000 HD
ENDBRANCH   1  15
TORSDOF 1
ENDMDL
MODEL 2
REMARK VINA RESULT:      -6.9      0.781      5.398
REMARK  Name = 
REMARK  1 active torsions:
REMARK  status: ('A' for Active; 'I' for Inactive)
REMARK    1  A    between atoms: N_1  and  C_2
REMARK                            x       y       z     vdW  Elec       q    Type
REMARK                         _______ _______ _______ _____ _____    ______ ____
ROOT
ATOM      1  C   UNL     1       3.115   5.745  18.155  0.00  0.00    +0.000 A 
ATOM      2  C   UNL     1       4.120   5.460  17.207  0.00  0.00    +0.000 A 
ATOM      3  C   UNL     1       4.468   4.121  17.013  0.00  0.00    +0.000 A 
ATOM      4  N   UNL     1       3.957   3.109  17.746  0.00  0.00    +0.000 NA
ATOM      5  C   UNL     1       3.088   3.409  18.737  0.00  0.00    +0.000 A 
ATOM      6  C   UNL     1       2.664   4.715  19.006  0.00  0.00    +0.000 A 
ATOM      7  C   UNL     1       1.724   4.997  20.157  0.00  0.00    +0.000 C 
ATOM      8  C   UNL     1       1.619   3.868  21.181  0.00  0.00    +0.000 C 
ATOM      9  C   UNL     1       1.459   2.532  20.480  0.00  0.00    +0.000 C 
ATOM     10  C   UNL     1       2.684   2.251  19.616  0.00  0.00    +0.000 C 
ATOM     11  C   UNL     1       5.531   3.750  16.014  0.00  0.00    +0.000 C 
ATOM     12  C   UNL     1       5.492   4.684  14.813  0.00  0.00    +0.000 C 
ATOM     13  C   UNL     1       5.666   6.136  15.230  0.00  0.00    +0.000 C 
ATOM     14  C   UNL     1       4.943   6.530  16.526  0.00  0.00    +0.000 C 
ENDROOT
BRANCH   1  15
ATOM     15  N   UNL     1       2.747   7.090  18.442  0.00  0.00    +0.000 N 
ATOM     16  H   UNL     1       3.574   7.637  18.695  0.00  0.00    +0.000 HD
ATOM     17  H   UNL     1       2.325   7.535  17.623  0.00  0.00    +0.000 HD
ENDBRANCH   1  15
TORSDOF 1
ENDMDL
MODEL 3
REMARK VINA RESULT:      -6.9      0.754      4.779
REMARK  Name = 
REMARK  1 active torsions:
REMARK  status: ('A' for Active; 'I' for Inactive)
REMARK    1  A    between atoms: N_1  and  C_2
REMARK                            x       y       z     vdW  Elec       q    Type
REMARK                         _______ _______ _______ _____ _____    ______ ____
ROOT
ATOM      1  C   UNL     1       4.144   3.165  17.900  0.00  0.00    +0.000 A 
ATOM      2  C   UNL     1       4.939   4.124  17.241  0.00  0.00    +0.000 A 
ATOM      3  C   UNL     1       4.824   5.455  17.651  0.00  0.00    +0.000 A 
ATOM      4  N   UNL     1       3.932   5.871  18.576  0.00  0.00    +0.000 NA
ATOM      5  C   UNL     1       3.088   4.959  19.108  0.00  0.00    +0.000 A 
ATOM      6  C   UNL     1       3.129   3.600  18.776  0.00  0.00    +0.000 A 
ATOM      7  C   UNL     1       2.130   2.633  19.370  0.00  0.00    +0.000 C 
ATOM      8  C   UNL     1       0.902   3.292  19.993  0.00  0.00    +0.000 C 
ATOM      9  C   UNL     1       1.315   4.465  20.862  0.00  0.00    +0.000 C 
ATOM     10  C   UNL     1       2.015   5.518  20.010  0.00  0.00    +0.000 C 
ATOM     11  C   UNL     1       5.647   6.528  16.990  0.00  0.00    +0.000 C 
ATOM     12  C   UNL     1       7.017   5.993  16.600  0.00  0.00    +0.000 C 
ATOM     13  C   UNL     1       6.904   4.792  15.674  0.00  0.00    +0.000 C 
ATOM     14  C   UNL     1       5.772   3.812  16.018  0.00  0.00    +0.000 C 
ENDROOT
BRANCH   1  15
ATOM     15  N   UNL     1       4.172   1.798  17.498  0.00  0.00    +0.000 N 
ATOM     16  H   UNL     1       4.277   1.731  16.482  0.00  0.00    +0.000 HD
ATOM     17  H   UNL     1       4.965   1.311  17.921  0.00  0.00    +0.000 HD
ENDBRANCH   1  15
TORSDOF 1
ENDMDL
MODEL 4
REMARK VINA RESULT:      -6.9      1.605      2.736
REMARK  Name = 
REMARK  1 active torsions:
REMARK  status: ('A' for Active; 'I' for Inactive)
REMARK    1  A    between atoms: N_1  and  C_2
REMARK                            x       y       z     vdW  Elec       q    Type
REMARK                         _______ _______ _______ _____ _____    ______ ____
ROOT
ATOM      1  C   UNL     1       3.275   5.712  18.677  0.00  0.00    +0.000 A 
ATOM      2  C   UNL     1       2.867   4.576  19.406  0.00  0.00    +0.000 A 
ATOM      3  C   UNL     1       3.850   3.653  19.772  0.00  0.00    +0.000 A 
ATOM      4  N   UNL     1       5.140   3.752  19.388  0.00  0.00    +0.000 NA
ATOM      5  C   UNL     1       5.493   4.780  18.583  0.00  0.00    +0.000 A 
ATOM      6  C   UNL     1       4.590   5.766  18.170  0.00  0.00    +0.000 A 
ATOM      7  C   UNL     1       5.030   6.868  17.232  0.00  0.00    +0.000 C 
ATOM      8  C   UNL     1       6.341   6.591  16.500  0.00  0.00    +0.000 C 
ATOM      9  C   UNL     1       7.383   6.059  17.464  0.00  0.00    +0.000 C 
ATOM     10  C   UNL     1       6.908   4.739  18.063  0.00  0.00    +0.000 C 
ATOM     11  C   UNL     1       3.481   2.420  20.553  0.00  0.00    +0.000 C 
ATOM     12  C   UNL     1       2.349   2.717  21.526  0.00  0.00    +0.000 C 
ATOM     13  C   UNL     1       1.121   3.254  20.806  0.00  0.00    +0.000 C 
ATOM     14  C   UNL     1       1.417   4.231  19.659  0.00  0.00    +0.000 C 
ENDROOT
BRANCH   1  15
ATOM     15  N   UNL     1       2.320   6.668  18.226  0.00  0.00    +0.000 N 
ATOM     16  H   UNL     1       2.771   7.361  17.623  0.00  0.00    +0.000 HD
ATOM     17  H   UNL     1       1.585   6.216  17.677  0.00  0.00    +0.000 HD
ENDBRANCH   1  15
TORSDOF 1
ENDMDL
MODEL 5
REMARK VINA RESULT:      -6.8      0.769      2.589
REMARK  Name = 
REMARK  1 active torsions:
REMARK  status: ('A' for Active; 'I' for Inactive)
REMARK    1  A    between atoms: N_1  and  C_2
REMARK                            x       y       z     vdW  Elec       q    Type
REMARK                         _______ _______ _______ _____ _____    ______ ____
ROOT
ATOM      1  C   UNL     1       3.310   5.663  18.349  0.00  0.00    +0.000 A 
ATOM      2  C   UNL     1       2.631   4.574  18.932  0.00  0.00    +0.000 A 
ATOM      3  C   UNL     1       3.050   3.287  18.584  0.00  0.00    +0.000 A 
ATOM      4  N   UNL     1       4.004   3.042  17.660  0.00  0.00    +0.000 NA
ATOM      5  C   UNL     1       4.559   4.094  17.017  0.00  0.00    +0.000 A 
ATOM      6  C   UNL     1       4.220   5.422  17.299  0.00  0.00    +0.000 A 
ATOM      7  C   UNL     1       4.841   6.557  16.516  0.00  0.00    +0.000 C 
ATOM      8  C   UNL     1       5.505   6.136  15.208  0.00  0.00    +0.000 C 
ATOM      9  C   UNL     1       6.365   4.905  15.423  0.00  0.00    +0.000 C 
ATOM     10  C   UNL     1       5.496   3.742  15.889  0.00  0.00    +0.000 C 
ATOM     11  C   UNL     1       2.368   2.081  19.173  0.00  0.00    +0.000 C 
ATOM     12  C   UNL     1       1.933   2.353  20.605  0.00  0.00    +0.000 C 
ATOM     13  C   UNL     1       1.006   3.556  20.688  0.00  0.00    +0.000 C 
ATOM     14  C   UNL     1       1.381   4.728  19.769  0.00  0.00    +0.000 C 
ENDROOT
BRANCH   1  15
ATOM     15  N   UNL     1       2.902   7.001  18.618  0.00  0.00    +0.000 N 
ATOM     16  H   UNL     1       2.093   7.005  19.243  0.00  0.00    +0.000 HD
ATOM     17  H   UNL     1       3.650   7.524  19.081  0.00  0.00    +0.000 HD
ENDBRANCH   1  15
TORSDOF 1
ENDMDL
MODEL 6
REMARK VINA RESULT:      -6.7      1.985      3.109
REMARK  Name = 
REMARK  1 active torsions:
REMARK  status: ('A' for Active; 'I' for Inactive)
REMARK    1  A    between atoms: N_1  and  C_2
REMARK                            x       y       z     vdW  Elec       q    Type
REMARK                         _______ _______ _______ _____ _____    ______ ____
ROOT
ATOM      1  C   UNL     1       3.613   5.753  18.041  0.00  0.00    +0.000 A 
ATOM      2  C   UNL     1       3.071   4.478  18.300  0.00  0.00    +0.000 A 
ATOM      3  C   UNL     1       3.936   3.490  18.780  0.00  0.00    +0.000 A 
ATOM      4  N   UNL     1       5.266   3.675  18.920  0.00  0.00    +0.000 NA
ATOM      5  C   UNL     1       5.792   4.863  18.548  0.00  0.00    +0.000 A 
ATOM      6  C   UNL     1       5.013   5.922  18.068  0.00  0.00    +0.000 A 
ATOM      7  C   UNL     1       5.662   7.214  17.624  0.00  0.00    +0.000 C 
ATOM      8  C   UNL     1       7.164   7.115  17.372  0.00  0.00    +0.000 C 
ATOM      9  C   UNL     1       7.842   6.365  18.503  0.00  0.00    +0.000 C 
ATOM     10  C   UNL     1       7.298   4.942  18.579  0.00  0.00    +0.000 C 
ATOM     11  C   UNL     1       3.419   2.109  19.079  0.00  0.00    +0.000 C 
ATOM     12  C   UNL     1       1.997   2.169  19.618  0.00  0.00    +0.000 C 
ATOM     13  C   UNL     1       1.060   2.866  18.642  0.00  0.00    +0.000 C 
ATOM     14  C   UNL     1       1.658   4.086  17.928  0.00  0.00    +0.000 C 
ENDROOT
BRANCH   1  15
ATOM     15  N   UNL     1       2.802   6.792  17.501  0.00  0.00    +0.000 N 
ATOM     16  H   UNL     1       2.321   6.463  16.659  0.00  0.00    +0.000 HD
ATOM     17  H   UNL     1       2.084   7.079  18.170  0.00  0.00    +0.000 HD
ENDBRANCH   1  15
TORSDOF 1
ENDMDL
MODEL 7
REMARK VINA RESULT:      -6.7      1.351      5.262
REMARK  Name = 
REMARK  1 active torsions:
REMARK  status: ('A' for Active; 'I' for Inactive)
REMARK    1  A    between atoms: N_1  and  C_2
REMARK                            x       y       z     vdW  Elec       q    Type
REMARK                         _______ _______ _______ _____ _____    ______ ____
ROOT
ATOM      1  C   UNL     1       3.682   5.447  18.770  0.00  0.00    +0.000 A 
ATOM      2  C   UNL     1       4.798   5.287  17.924  0.00  0.00    +0.000 A 
ATOM      3  C   UNL     1       4.827   4.165  17.092  0.00  0.00    +0.000 A 
ATOM      4  N   UNL     1       3.889   3.194  17.124  0.00  0.00    +0.000 NA
ATOM      5  C   UNL     1       2.890   3.297  18.029  0.00  0.00    +0.000 A 
ATOM      6  C   UNL     1       2.762   4.385  18.900  0.00  0.00    +0.000 A 
ATOM      7  C   UNL     1       1.649   4.426  19.922  0.00  0.00    +0.000 C 
ATOM      8  C   UNL     1       0.977   3.079  20.182  0.00  0.00    +0.000 C 
ATOM      9  C   UNL     1       0.675   2.378  18.872  0.00  0.00    +0.000 C 
ATOM     10  C   UNL     1       1.973   2.103  18.120  0.00  0.00    +0.000 C 
ATOM     11  C   UNL     1       5.989   3.937  16.163  0.00  0.00    +0.000 C 
ATOM     12  C   UNL     1       6.526   5.260  15.636  0.00  0.00    +0.000 C 
ATOM     13  C   UNL     1       6.949   6.181  16.770  0.00  0.00    +0.000 C 
ATOM     14  C   UNL     1       6.026   6.167  17.997  0.00  0.00    +0.000 C 
ENDROOT
BRANCH   1  15
ATOM     15  N   UNL     1       3.611   6.538  19.682  0.00  0.00    +0.000 N 
ATOM     16  H   UNL     1       2.859   7.177  19.412  0.00  0.00    +0.000 HD
ATOM     17  H   UNL     1       3.408   6.209  20.629  0.00  0.00    +0.000 HD
ENDBRANCH   1  15
TORSDOF 1
ENDMDL
MODEL 8
REMARK VINA RESULT:      -6.6      1.651      2.207
REMARK  Name = 
REMARK  1 active torsions:
REMARK  status: ('A' for Active; 'I' for Inactive)
REMARK    1  A    between atoms: N_1  and  C_2
REMARK                            x       y       z     vdW  Elec       q    Type
REMARK                         _______ _______ _______ _____ _____    ______ ____
ROOT
ATOM      1  C   UNL     1       5.217   4.473  18.620  0.00  0.00    +0.000 A 
ATOM      2  C   UNL     1       3.835   4.395  18.887  0.00  0.00    +0.000 A 
ATOM      3  C   UNL     1       2.983   4.102  17.818  0.00  0.00    +0.000 A 
ATOM      4  N   UNL     1       3.410   3.980  16.543  0.00  0.00    +0.000 NA
ATOM      5  C   UNL     1       4.721   4.182  16.283  0.00  0.00    +0.000 A 
ATOM      6  C   UNL     1       5.659   4.467  17.281  0.00  0.00    +0.000 A 
ATOM      7  C   UNL     1       7.105   4.728  16.925  0.00  0.00    +0.000 C 
ATOM      8  C   UNL     1       7.348   5.043  15.451  0.00  0.00    +0.000 C 
ATOM      9  C   UNL     1       6.595   4.064  14.570  0.00  0.00    +0.000 C 
ATOM     10  C   UNL     1       5.096   4.190  14.822  0.00  0.00    +0.000 C 
ATOM     11  C   UNL     1       1.497   4.002  18.037  0.00  0.00    +0.000 C 
ATOM     12  C   UNL     1       1.192   3.413  19.407  0.00  0.00    +0.000 C 
ATOM     13  C   UNL     1       1.819   4.238  20.520  0.00  0.00    +0.000 C 
ATOM     14  C   UNL     1       3.225   4.775  20.217  0.00  0.00    +0.000 C 
ENDROOT
BRANCH   1  15
ATOM     15  N   UNL     1       6.138   4.820  19.650  0.00  0.00    +0.000 N 
ATOM     16  H   UNL     1       7.011   4.299  19.534  0.00  0.00    +0.000 HD
ATOM     17  H   UNL     1       6.368   5.815  19.613  0.00  0.00    +0.000 HD
ENDBRANCH   1  15
TORSDOF 1
ENDMDL
MODEL 9
REMARK VINA RESULT:      -6.5      1.417      1.443
REMARK  Name = 
REMARK  1 active torsions:
REMARK  status: ('A' for Active; 'I' for Inactive)
REMARK    1  A    between atoms: N_1  and  C_2
REMARK                            x       y       z     vdW  Elec       q    Type
REMARK                         _______ _______ _______ _____ _____    ______ ____
ROOT
ATOM      1  C   UNL     1       4.523   3.613  19.285  0.00  0.00    +0.000 A 
ATOM      2  C   UNL     1       3.259   3.671  19.908  0.00  0.00    +0.000 A 
ATOM      3  C   UNL     1       2.387   4.689  19.513  0.00  0.00    +0.000 A 
ATOM      4  N   UNL     1       2.728   5.660  18.639  0.00  0.00    +0.000 NA
ATOM      5  C   UNL     1       3.987   5.665  18.145  0.00  0.00    +0.000 A 
ATOM      6  C   UNL     1       4.933   4.685  18.465  0.00  0.00    +0.000 A 
ATOM      7  C   UNL     1       6.340   4.767  17.917  0.00  0.00    +0.000 C 
ATOM      8  C   UNL     1       6.726   6.136  17.363  0.00  0.00    +0.000 C 
ATOM      9  C   UNL     1       5.619   6.682  16.483  0.00  0.00    +0.000 C 
ATOM     10  C   UNL     1       4.347   6.865  17.304  0.00  0.00    +0.000 C 
ATOM     11  C   UNL     1       1.022   4.805  20.138  0.00  0.00    +0.000 C 
ATOM     12  C   UNL     1       0.455   3.428  20.452  0.00  0.00    +0.000 C 
ATOM     13  C   UNL     1       1.375   2.643  21.375  0.00  0.00    +0.000 C 
ATOM     14  C   UNL     1       2.874   2.802  21.084  0.00  0.00    +0.000 C 
ENDROOT
BRANCH   1  15
ATOM     15  N   UNL     1       5.481   2.635  19.675  0.00  0.00    +0.000 N 
ATOM     16  H   UNL     1       5.106   1.694  19.529  0.00  0.00    +0.000 HD
ATOM     17  H   UNL     1       6.333   2.716  19.115  0.00  0.00    +0.000 HD
ENDBRANCH   1  15
TORSDOF 1
ENDMDL
