MODEL 1
REMARK VINA RESULT:      -6.9      0.000      0.000
REMARK  Name = 
REMARK  5 active torsions:
REMARK  status: ('A' for Active; 'I' for Inactive)
REMARK    1  A    between atoms: C_1  and  C_2
REMARK    2  A    between atoms: C_5  and  S_6
REMARK    3  A    between atoms: S_6  and  C_7
REMARK    4  A    between atoms: C_7  and  C_8
REMARK    5  A    between atoms: N_16  and  N_17
REMARK                            x       y       z     vdW  Elec       q    Type
REMARK                         _______ _______ _______ _____ _____    ______ ____
ROOT
ATOM      1  C   UNL     1       0.538   2.108  18.730  0.00  0.00    +0.000 C 
ATOM      2  C   UNL     1       1.473   3.255  18.479  0.00  0.00    +0.000 A 
ATOM      3  N   UNL     1       2.227   3.277  17.424  0.00  0.00    +0.000 NA
ATOM      4  N   UNL     1       3.108   4.351  17.234  0.00  0.00    +0.000 NA
ATOM      5  C   UNL     1       3.188   5.298  18.113  0.00  0.00    +0.000 A 
ATOM      6  N   UNL     1       2.422   5.342  19.267  0.00  0.00    +0.000 N 
ATOM      7  C   UNL     1       1.495   4.351  19.509  0.00  0.00    +0.000 A 
ATOM      8  O   UNL     1       0.723   4.315  20.460  0.00  0.00    +0.000 OA
ENDROOT
BRANCH   6   9
ATOM      9  N   UNL     1       2.550   6.384  20.247  0.00  0.00    +0.000 N 
ATOM     10  H   UNL     1       2.372   7.271  19.770  0.00  0.00    +0.000 HD
ATOM     11  H   UNL     1       1.773   6.268  20.907  0.00  0.00    +0.000 HD
ENDBRANCH   6   9
BRANCH   5  12
ATOM     12  S   UNL     1       4.317   6.623  17.862  0.00  0.00    +0.000 S 
BRANCH  12  13
ATOM     13  C   UNL     1       5.908   5.754  17.972  0.00  0.00    +0.000 C 
BRANCH  13  14
ATOM     14  C   UNL     1       6.646   5.857  16.644  0.00  0.00    +0.000 C 
ATOM     15  O   UNL     1       7.501   6.723  16.478  0.00  0.00    +0.000 OA
ATOM     16  N   UNL     1       6.205   4.948  15.704  0.00  0.00    +0.000 N 
ATOM     17  C   UNL     1       6.764   4.859  14.460  0.00  0.00    +0.000 A 
ATOM     18  N   UNL     1       7.832   5.444  13.983  0.00  0.00    +0.000 NA
ATOM     19  C   UNL     1       8.000   5.090  12.660  0.00  0.00    +0.000 A 
ATOM     20  C   UNL     1       7.038   4.247  12.145  0.00  0.00    +0.000 A 
ATOM     21  S   UNL     1       5.923   3.829  13.383  0.00  0.00    +0.000 S 
ATOM     22  H   UNL     1       5.430   4.333  15.903  0.00  0.00    +0.000 HD
ENDBRANCH  13  14
ENDBRANCH  12  13
ENDBRANCH   5  12
TORSDOF 4
ENDMDL
MODEL 2
REMARK VINA RESULT:      -6.5      1.279      2.015
REMARK  Name = 
REMARK  5 active torsions:
REMARK  status: ('A' for Active; 'I' for Inactive)
REMARK    1  A    between atoms: C_1  and  C_2
REMARK    2  A    between atoms: C_5  and  S_6
REMARK    3  A    between atoms: S_6  and  C_7
REMARK    4  A    between atoms: C_7  and  C_8
REMARK    5  A    between atoms: N_16  and  N_17
REMARK                            x       y       z     vdW  Elec       q    Type
REMARK                         _______ _______ _______ _____ _____    ______ ____
ROOT
ATOM      1  C   UNL     1       1.542   2.556  21.683  0.00  0.00    +0.000 C 
ATOM      2  C   UNL     1       2.181   3.461  20.672  0.00  0.00    +0.000 A 
ATOM      3  N   UNL     1       2.521   4.673  20.987  0.00  0.00    +0.000 NA
ATOM      4  N   UNL     1       3.092   5.500  20.010  0.00  0.00    +0.000 NA
ATOM      5  C   UNL     1       3.257   5.071  18.799  0.00  0.00    +0.000 A 
ATOM      6  N   UNL     1       2.914   3.794  18.384  0.00  0.00    +0.000 N 
ATOM      7  C   UNL     1       2.391   2.898  19.292  0.00  0.00    +0.000 A 
ATOM      8  O   UNL     1       2.107   1.730  19.057  0.00  0.00    +0.000 OA
ENDROOT
BRANCH   6   9
ATOM      9  N   UNL     1       3.072   3.348  17.029  0.00  0.00    +0.000 N 
ATOM     10  H   UNL     1       3.913   3.797  16.659  0.00  0.00    +0.000 HD
ATOM     11  H   UNL     1       3.293   2.346  17.070  0.00  0.00    +0.000 HD
ENDBRANCH   6   9
BRANCH   5  12
ATOM     12  S   UNL     1       3.955   6.137  17.587  0.00  0.00    +0.000 S 
BRANCH  12  13
ATOM     13  C   UNL     1       5.722   6.016  17.990  0.00  0.00    +0.000 C 
BRANCH  13  14
ATOM     14  C   UNL     1       6.543   5.987  16.709  0.00  0.00    +0.000 C 
ATOM     15  O   UNL     1       7.499   6.746  16.570  0.00  0.00    +0.000 OA
ATOM     16  N   UNL     1       6.060   5.097  15.771  0.00  0.00    +0.000 N 
ATOM     17  C   UNL     1       6.678   4.899  14.568  0.00  0.00    +0.000 A 
ATOM     18  N   UNL     1       7.831   5.344  14.142  0.00  0.00    +0.000 NA
ATOM     19  C   UNL     1       8.036   4.924  12.844  0.00  0.00    +0.000 A 
ATOM     20  C   UNL     1       7.017   4.174  12.295  0.00  0.00    +0.000 A 
ATOM     21  S   UNL     1       5.792   3.929  13.474  0.00  0.00    +0.000 S 
ATOM     22  H   UNL     1       5.211   4.579  15.940  0.00  0.00    +0.000 HD
ENDBRANCH  13  14
ENDBRANCH  12  13
ENDBRANCH   5  12
TORSDOF 4
ENDMDL
MODEL 3
REMARK VINA RESULT:      -6.4      2.510      6.594
REMARK  Name = 
REMARK  5 active torsions:
REMARK  status: ('A' for Active; 'I' for Inactive)
REMARK    1  A    between atoms: C_1  and  C_2
REMARK    2  A    between atoms: C_5  and  S_6
REMARK    3  A    between atoms: S_6  and  C_7
REMARK    4  A    between atoms: C_7  and  C_8
REMARK    5  A    between atoms: N_16  and  N_17
REMARK                            x       y       z     vdW  Elec       q    Type
REMARK                         _______ _______ _______ _____ _____    ______ ____
ROOT
ATOM      1  C   UNL     1       4.993   2.876  11.663  0.00  0.00    +0.000 C 
ATOM      2  C   UNL     1       5.515   3.615  12.860  0.00  0.00    +0.000 A 
ATOM      3  N   UNL     1       4.830   3.664  13.961  0.00  0.00    +0.000 NA
ATOM      4  N   UNL     1       5.336   4.385  15.051  0.00  0.00    +0.000 NA
ATOM      5  C   UNL     1       6.461   5.018  14.955  0.00  0.00    +0.000 A 
ATOM      6  N   UNL     1       7.246   5.019  13.813  0.00  0.00    +0.000 N 
ATOM      7  C   UNL     1       6.848   4.295  12.710  0.00  0.00    +0.000 A 
ATOM      8  O   UNL     1       7.485   4.174  11.671  0.00  0.00    +0.000 OA
ENDROOT
BRANCH   6   9
ATOM      9  N   UNL     1       8.475   5.756  13.715  0.00  0.00    +0.000 N 
ATOM     10  H   UNL     1       8.723   5.799  12.724  0.00  0.00    +0.000 HD
ATOM     11  H   UNL     1       8.265   6.723  13.986  0.00  0.00    +0.000 HD
ENDBRANCH   6   9
BRANCH   5  12
ATOM     12  S   UNL     1       7.063   5.935  16.330  0.00  0.00    +0.000 S 
BRANCH  12  13
ATOM     13  C   UNL     1       7.403   4.603  17.517  0.00  0.00    +0.000 C 
BRANCH  13  14
ATOM     14  C   UNL     1       6.238   4.465  18.487  0.00  0.00    +0.000 C 
ATOM     15  O   UNL     1       6.254   5.060  19.561  0.00  0.00    +0.000 OA
ATOM     16  N   UNL     1       5.264   3.592  18.047  0.00  0.00    +0.000 N 
ATOM     17  C   UNL     1       4.121   3.357  18.759  0.00  0.00    +0.000 A 
ATOM     18  N   UNL     1       3.667   3.960  19.827  0.00  0.00    +0.000 NA
ATOM     19  C   UNL     1       2.490   3.363  20.229  0.00  0.00    +0.000 A 
ATOM     20  C   UNL     1       2.074   2.296  19.461  0.00  0.00    +0.000 A 
ATOM     21  S   UNL     1       3.162   2.079  18.149  0.00  0.00    +0.000 S 
ATOM     22  H   UNL     1       5.381   3.076  17.187  0.00  0.00    +0.000 HD
ENDBRANCH  13  14
ENDBRANCH  12  13
ENDBRANCH   5  12
TORSDOF 4
ENDMDL
MODEL 4
REMARK VINA RESULT:      -6.4      2.541      6.950
REMARK  Name = 
REMARK  5 active torsions:
REMARK  status: ('A' for Active; 'I' for Inactive)
REMARK    1  A    between atoms: C_1  and  C_2
REMARK    2  A    between atoms: C_5  and  S_6
REMARK    3  A    between atoms: S_6  and  C_7
REMARK    4  A    between atoms: C_7  and  C_8
REMARK    5  A    between atoms: N_16  and  N_17
REMARK                            x       y       z     vdW  Elec       q    Type
REMARK                         _______ _______ _______ _____ _____    ______ ____
ROOT
ATOM      1  C   UNL     1       6.363   3.639  12.866  0.00  0.00    +0.000 C 
ATOM      2  C   UNL     1       6.127   4.067  14.285  0.00  0.00    +0.000 A 
ATOM      3  N   UNL     1       5.130   3.592  14.965  0.00  0.00    +0.000 NA
ATOM      4  N   UNL     1       4.925   4.033  16.280  0.00  0.00    +0.000 NA
ATOM      5  C   UNL     1       5.706   4.925  16.803  0.00  0.00    +0.000 A 
ATOM      6  N   UNL     1       6.786   5.483  16.140  0.00  0.00    +0.000 N 
ATOM      7  C   UNL     1       7.090   5.070  14.860  0.00  0.00    +0.000 A 
ATOM      8  O   UNL     1       8.051   5.447  14.200  0.00  0.00    +0.000 OA
ENDROOT
BRANCH   6   9
ATOM      9  N   UNL     1       7.620   6.495  16.725  0.00  0.00    +0.000 N 
ATOM     10  H   UNL     1       7.459   6.472  17.735  0.00  0.00    +0.000 HD
ATOM     11  H   UNL     1       8.592   6.190  16.597  0.00  0.00    +0.000 HD
ENDBRANCH   6   9
BRANCH   5  12
ATOM     12  S   UNL     1       5.413   5.478  18.447  0.00  0.00    +0.000 S 
BRANCH  12  13
ATOM     13  C   UNL     1       3.767   4.782  18.764  0.00  0.00    +0.000 C 
BRANCH  13  14
ATOM     14  C   UNL     1       2.891   5.818  19.453  0.00  0.00    +0.000 C 
ATOM     15  O   UNL     1       2.363   5.562  20.532  0.00  0.00    +0.000 OA
ATOM     16  N   UNL     1       2.736   6.976  18.719  0.00  0.00    +0.000 N 
ATOM     17  C   UNL     1       2.014   8.041  19.181  0.00  0.00    +0.000 A 
ATOM     18  N   UNL     1       1.493   8.243  20.363  0.00  0.00    +0.000 NA
ATOM     19  C   UNL     1       0.812   9.443  20.368  0.00  0.00    +0.000 A 
ATOM     20  C   UNL     1       0.815  10.132  19.173  0.00  0.00    +0.000 A 
ATOM     21  S   UNL     1       1.762   9.275  18.024  0.00  0.00    +0.000 S 
ATOM     22  H   UNL     1       3.136   7.060  17.796  0.00  0.00    +0.000 HD
ENDBRANCH  13  14
ENDBRANCH  12  13
ENDBRANCH   5  12
TORSDOF 4
ENDMDL
MODEL 5
REMARK VINA RESULT:      -6.3      2.967      6.879
REMARK  Name = 
REMARK  5 active torsions:
REMARK  status: ('A' for Active; 'I' for Inactive)
REMARK    1  A    between atoms: C_1  and  C_2
REMARK    2  A    between atoms: C_5  and  S_6
REMARK    3  A    between atoms: S_6  and  C_7
REMARK    4  A    between atoms: C_7  and  C_8
REMARK    5  A    between atoms: N_16  and  N_17
REMARK                            x       y       z     vdW  Elec       q    Type
REMARK                         _______ _______ _______ _____ _____    ______ ____
ROOT
ATOM      1  C   UNL     1       6.093   3.620  13.478  0.00  0.00    +0.000 C 
ATOM      2  C   UNL     1       6.014   3.967  14.935  0.00  0.00    +0.000 A 
ATOM      3  N   UNL     1       5.150   3.386  15.710  0.00  0.00    +0.000 NA
ATOM      4  N   UNL     1       5.085   3.752  17.061  0.00  0.00    +0.000 NA
ATOM      5  C   UNL     1       5.861   4.678  17.529  0.00  0.00    +0.000 A 
ATOM      6  N   UNL     1       6.804   5.347  16.765  0.00  0.00    +0.000 N 
ATOM      7  C   UNL     1       6.968   5.016  15.437  0.00  0.00    +0.000 A 
ATOM      8  O   UNL     1       7.805   5.495  14.682  0.00  0.00    +0.000 OA
ENDROOT
BRANCH   6   9
ATOM      9  N   UNL     1       7.631   6.395  17.294  0.00  0.00    +0.000 N 
ATOM     10  H   UNL     1       8.160   6.787  16.511  0.00  0.00    +0.000 HD
ATOM     11  H   UNL     1       7.001   7.145  17.601  0.00  0.00    +0.000 HD
ENDBRANCH   6   9
BRANCH   5  12
ATOM     12  S   UNL     1       5.745   5.134  19.223  0.00  0.00    +0.000 S 
BRANCH  12  13
ATOM     13  C   UNL     1       3.948   5.080  19.479  0.00  0.00    +0.000 C 
BRANCH  13  14
ATOM     14  C   UNL     1       3.328   6.411  19.078  0.00  0.00    +0.000 C 
ATOM     15  O   UNL     1       3.613   6.925  18.000  0.00  0.00    +0.000 OA
ATOM     16  N   UNL     1       2.510   6.946  20.051  0.00  0.00    +0.000 N 
ATOM     17  C   UNL     1       1.834   8.120  19.870  0.00  0.00    +0.000 A 
ATOM     18  N   UNL     1       1.699   8.844  18.789  0.00  0.00    +0.000 NA
ATOM     19  C   UNL     1       0.961   9.973  19.079  0.00  0.00    +0.000 A 
ATOM     20  C   UNL     1       0.557  10.097  20.392  0.00  0.00    +0.000 A 
ATOM     21  S   UNL     1       1.064   8.713  21.277  0.00  0.00    +0.000 S 
ATOM     22  H   UNL     1       2.407   6.493  20.947  0.00  0.00    +0.000 HD
ENDBRANCH  13  14
ENDBRANCH  12  13
ENDBRANCH   5  12
TORSDOF 4
ENDMDL
MODEL 6
REMARK VINA RESULT:      -6.2      4.041      5.156
REMARK  Name = 
REMARK  5 active torsions:
REMARK  status: ('A' for Active; 'I' for Inactive)
REMARK    1  A    between atoms: C_1  and  C_2
REMARK    2  A    between atoms: C_5  and  S_6
REMARK    3  A    between atoms: S_6  and  C_7
REMARK    4  A    between atoms: C_7  and  C_8
REMARK    5  A    between atoms: N_16  and  N_17
REMARK                            x       y       z     vdW  Elec       q    Type
REMARK                         _______ _______ _______ _____ _____    ______ ____
ROOT
ATOM      1  C   UNL     1       2.099   3.641  20.381  0.00  0.00    +0.000 C 
ATOM      2  C   UNL     1       3.365   3.984  19.652  0.00  0.00    +0.000 A 
ATOM      3  N   UNL     1       4.455   3.314  19.864  0.00  0.00    +0.000 NA
ATOM      4  N   UNL     1       5.626   3.677  19.185  0.00  0.00    +0.000 NA
ATOM      5  C   UNL     1       5.629   4.687  18.374  0.00  0.00    +0.000 A 
ATOM      6  N   UNL     1       4.508   5.455  18.100  0.00  0.00    +0.000 N 
ATOM      7  C   UNL     1       3.302   5.137  18.687  0.00  0.00    +0.000 A 
ATOM      8  O   UNL     1       2.237   5.703  18.477  0.00  0.00    +0.000 OA
ENDROOT
BRANCH   6   9
ATOM      9  N   UNL     1       4.539   6.591  17.223  0.00  0.00    +0.000 N 
ATOM     10  H   UNL     1       3.907   6.390  16.445  0.00  0.00    +0.000 HD
ATOM     11  H   UNL     1       4.107   7.371  17.732  0.00  0.00    +0.000 HD
ENDBRANCH   6   9
BRANCH   5  12
ATOM     12  S   UNL     1       7.117   5.137  17.551  0.00  0.00    +0.000 S 
BRANCH  12  13
ATOM     13  C   UNL     1       7.883   6.228  18.783  0.00  0.00    +0.000 C 
BRANCH  13  14
ATOM     14  C   UNL     1       7.989   7.641  18.227  0.00  0.00    +0.000 C 
ATOM     15  O   UNL     1       7.547   7.901  17.112  0.00  0.00    +0.000 OA
ATOM     16  N   UNL     1       8.658   8.508  19.067  0.00  0.00    +0.000 N 
ATOM     17  C   UNL     1       8.828   9.830  18.764  0.00  0.00    +0.000 A 
ATOM     18  N   UNL     1       8.314  10.533  17.788  0.00  0.00    +0.000 NA
ATOM     19  C   UNL     1       8.795  11.824  17.847  0.00  0.00    +0.000 A 
ATOM     20  C   UNL     1       9.687  12.080  18.868  0.00  0.00    +0.000 A 
ATOM     21  S   UNL     1       9.874  10.667  19.827  0.00  0.00    +0.000 S 
ATOM     22  H   UNL     1       9.068   8.180  19.929  0.00  0.00    +0.000 HD
ENDBRANCH  13  14
ENDBRANCH  12  13
ENDBRANCH   5  12
TORSDOF 4
ENDMDL
MODEL 7
REMARK VINA RESULT:      -6.2      2.327      6.809
REMARK  Name = 
REMARK  5 active torsions:
REMARK  status: ('A' for Active; 'I' for Inactive)
REMARK    1  A    between atoms: C_1  and  C_2
REMARK    2  A    between atoms: C_5  and  S_6
REMARK    3  A    between atoms: S_6  and  C_7
REMARK    4  A    between atoms: C_7  and  C_8
REMARK    5  A    between atoms: N_16  and  N_17
REMARK                            x       y       z     vdW  Elec       q    Type
REMARK                         _______ _______ _______ _____ _____    ______ ____
ROOT
ATOM      1  C   UNL     1       7.383   4.692  11.842  0.00  0.00    +0.000 C 
ATOM      2  C   UNL     1       7.184   4.787  13.327  0.00  0.00    +0.000 A 
ATOM      3  N   UNL     1       7.890   5.609  14.040  0.00  0.00    +0.000 NA
ATOM      4  N   UNL     1       7.696   5.654  15.427  0.00  0.00    +0.000 NA
ATOM      5  C   UNL     1       6.841   4.865  15.997  0.00  0.00    +0.000 A 
ATOM      6  N   UNL     1       6.055   3.957  15.306  0.00  0.00    +0.000 N 
ATOM      7  C   UNL     1       6.146   3.881  13.932  0.00  0.00    +0.000 A 
ATOM      8  O   UNL     1       5.464   3.163  13.212  0.00  0.00    +0.000 OA
ENDROOT
BRANCH   6   9
ATOM      9  N   UNL     1       5.137   3.067  15.959  0.00  0.00    +0.000 N 
ATOM     10  H   UNL     1       5.360   3.082  16.957  0.00  0.00    +0.000 HD
ATOM     11  H   UNL     1       4.206   3.492  15.881  0.00  0.00    +0.000 HD
ENDBRANCH   6   9
BRANCH   5  12
ATOM     12  S   UNL     1       6.632   4.924  17.742  0.00  0.00    +0.000 S 
BRANCH  12  13
ATOM     13  C   UNL     1       5.526   6.354  17.915  0.00  0.00    +0.000 C 
BRANCH  13  14
ATOM     14  C   UNL     1       4.143   5.889  18.348  0.00  0.00    +0.000 C 
ATOM     15  O   UNL     1       3.158   6.588  18.126  0.00  0.00    +0.000 OA
ATOM     16  N   UNL     1       4.161   4.689  19.029  0.00  0.00    +0.000 N 
ATOM     17  C   UNL     1       3.017   4.086  19.472  0.00  0.00    +0.000 A 
ATOM     18  N   UNL     1       1.768   4.397  19.238  0.00  0.00    +0.000 NA
ATOM     19  C   UNL     1       0.942   3.532  19.925  0.00  0.00    +0.000 A 
ATOM     20  C   UNL     1       1.583   2.579  20.689  0.00  0.00    +0.000 A 
ATOM     21  S   UNL     1       3.281   2.732  20.483  0.00  0.00    +0.000 S 
ATOM     22  H   UNL     1       5.033   4.230  19.244  0.00  0.00    +0.000 HD
ENDBRANCH  13  14
ENDBRANCH  12  13
ENDBRANCH   5  12
TORSDOF 4
ENDMDL
MODEL 8
REMARK VINA RESULT:      -6.1      3.273      4.195
REMARK  Name = 
REMARK  5 active torsions:
REMARK  status: ('A' for Active; 'I' for Inactive)
REMARK    1  A    between atoms: C_1  and  C_2
REMARK    2  A    between atoms: C_5  and  S_6
REMARK    3  A    between atoms: S_6  and  C_7
REMARK    4  A    between atoms: C_7  and  C_8
REMARK    5  A    between atoms: N_16  and  N_17
REMARK                            x       y       z     vdW  Elec       q    Type
REMARK                         _______ _______ _______ _____ _____    ______ ____
ROOT
ATOM      1  C   UNL     1       2.314   8.117  18.249  0.00  0.00    +0.000 C 
ATOM      2  C   UNL     1       2.240   6.633  18.459  0.00  0.00    +0.000 A 
ATOM      3  N   UNL     1       2.261   5.818  17.450  0.00  0.00    +0.000 NA
ATOM      4  N   UNL     1       2.164   4.439  17.680  0.00  0.00    +0.000 NA
ATOM      5  C   UNL     1       2.029   3.982  18.885  0.00  0.00    +0.000 A 
ATOM      6  N   UNL     1       1.991   4.787  20.012  0.00  0.00    +0.000 N 
ATOM      7  C   UNL     1       2.129   6.153  19.881  0.00  0.00    +0.000 A 
ATOM      8  O   UNL     1       2.171   6.956  20.804  0.00  0.00    +0.000 OA
ENDROOT
BRANCH   6   9
ATOM      9  N   UNL     1       1.806   4.264  21.336  0.00  0.00    +0.000 N 
ATOM     10  H   UNL     1       2.732   4.025  21.698  0.00  0.00    +0.000 HD
ATOM     11  H   UNL     1       1.478   5.042  21.920  0.00  0.00    +0.000 HD
ENDBRANCH   6   9
BRANCH   5  12
ATOM     12  S   UNL     1       1.886   2.248  19.146  0.00  0.00    +0.000 S 
BRANCH  12  13
ATOM     13  C   UNL     1       3.517   1.675  18.588  0.00  0.00    +0.000 C 
BRANCH  13  14
ATOM     14  C   UNL     1       4.587   2.671  19.011  0.00  0.00    +0.000 C 
ATOM     15  O   UNL     1       5.036   2.649  20.154  0.00  0.00    +0.000 OA
ATOM     16  N   UNL     1       4.911   3.576  18.020  0.00  0.00    +0.000 N 
ATOM     17  C   UNL     1       5.875   4.530  18.191  0.00  0.00    +0.000 A 
ATOM     18  N   UNL     1       6.726   4.686  19.172  0.00  0.00    +0.000 NA
ATOM     19  C   UNL     1       7.490   5.812  18.944  0.00  0.00    +0.000 A 
ATOM     20  C   UNL     1       7.192   6.508  17.791  0.00  0.00    +0.000 A 
ATOM     21  S   UNL     1       5.957   5.681  16.930  0.00  0.00    +0.000 S 
ATOM     22  H   UNL     1       4.421   3.573  17.138  0.00  0.00    +0.000 HD
ENDBRANCH  13  14
ENDBRANCH  12  13
ENDBRANCH   5  12
TORSDOF 4
ENDMDL
MODEL 9
REMARK VINA RESULT:      -6.1      1.991      2.491
REMARK  Name = 
REMARK  5 active torsions:
REMARK  status: ('A' for Active; 'I' for Inactive)
REMARK    1  A    between atoms: C_1  and  C_2
REMARK    2  A    between atoms: C_5  and  S_6
REMARK    3  A    between atoms: S_6  and  C_7
REMARK    4  A    between atoms: C_7  and  C_8
REMARK    5  A    between atoms: N_16  and  N_17
REMARK                            x       y       z     vdW  Elec       q    Type
REMARK                         _______ _______ _______ _____ _____    ______ ____
ROOT
ATOM      1  C   UNL     1       0.689   4.089  20.553  0.00  0.00    +0.000 C 
ATOM      2  C   UNL     1       2.084   4.468  20.150  0.00  0.00    +0.000 A 
ATOM      3  N   UNL     1       2.394   5.705  19.913  0.00  0.00    +0.000 NA
ATOM      4  N   UNL     1       3.700   6.021  19.514  0.00  0.00    +0.000 NA
ATOM      5  C   UNL     1       4.583   5.086  19.359  0.00  0.00    +0.000 A 
ATOM      6  N   UNL     1       4.329   3.743  19.586  0.00  0.00    +0.000 N 
ATOM      7  C   UNL     1       3.084   3.349  20.028  0.00  0.00    +0.000 A 
ATOM      8  O   UNL     1       2.761   2.204  20.319  0.00  0.00    +0.000 OA
ENDROOT
BRANCH   6   9
ATOM      9  N   UNL     1       5.312   2.718  19.376  0.00  0.00    +0.000 N 
ATOM     10  H   UNL     1       6.093   2.915  20.007  0.00  0.00    +0.000 HD
ATOM     11  H   UNL     1       4.903   1.840  19.714  0.00  0.00    +0.000 HD
ENDBRANCH   6   9
BRANCH   5  12
ATOM     12  S   UNL     1       6.209   5.506  18.836  0.00  0.00    +0.000 S 
BRANCH  12  13
ATOM     13  C   UNL     1       5.863   6.381  17.283  0.00  0.00    +0.000 C 
BRANCH  13  14
ATOM     14  C   UNL     1       5.674   5.376  16.155  0.00  0.00    +0.000 C 
ATOM     15  O   UNL     1       4.859   4.465  16.270  0.00  0.00    +0.000 OA
ATOM     16  N   UNL     1       6.528   5.584  15.091  0.00  0.00    +0.000 N 
ATOM     17  C   UNL     1       6.491   4.809  13.965  0.00  0.00    +0.000 A 
ATOM     18  N   UNL     1       5.627   3.893  13.613  0.00  0.00    +0.000 NA
ATOM     19  C   UNL     1       6.008   3.338  12.409  0.00  0.00    +0.000 A 
ATOM     20  C   UNL     1       7.175   3.836  11.869  0.00  0.00    +0.000 A 
ATOM     21  S   UNL     1       7.778   5.092  12.875  0.00  0.00    +0.000 S 
ATOM     22  H   UNL     1       7.230   6.308  15.125  0.00  0.00    +0.000 HD
ENDBRANCH  13  14
ENDBRANCH  12  13
ENDBRANCH   5  12
TORSDOF 4
ENDMDL
