MODEL 1
REMARK VINA RESULT:      -8.1      0.000      0.000
REMARK  Name = 
REMARK  6 active torsions:
REMARK  status: ('A' for Active; 'I' for Inactive)
REMARK    1  A    between atoms: C_1  and  O_2
REMARK    2  A    between atoms: O_2  and  C_3
REMARK    3  A    between atoms: C_5  and  O_6
REMARK    4  A    between atoms: O_6  and  C_7
REMARK    5  A    between atoms: C_12  and  C_13
REMARK    6  A    between atoms: C_17  and  C_18
REMARK                            x       y       z     vdW  Elec       q    Type
REMARK                         _______ _______ _______ _____ _____    ______ ____
ROOT
ATOM      1  C   UNL     1       2.284   7.369  19.264  0.00  0.00    +0.000 A 
ATOM      2  C   UNL     1       2.227   6.348  20.206  0.00  0.00    +0.000 A 
ATOM      3  C   UNL     1       2.914   5.125  20.034  0.00  0.00    +0.000 A 
ATOM      4  C   UNL     1       3.690   4.945  18.873  0.00  0.00    +0.000 A 
ATOM      5  C   UNL     1       4.534   3.770  18.528  0.00  0.00    +0.000 A 
ATOM      6  O   UNL     1       4.896   2.897  19.305  0.00  0.00    +0.000 OA
ATOM      7  N   UNL     1       4.998   3.701  17.241  0.00  0.00    +0.000 N 
ATOM      8  C   UNL     1       4.987   4.762  16.378  0.00  0.00    +0.000 A 
ATOM      9  N   UNL     1       4.411   5.876  16.673  0.00  0.00    +0.000 NA
ATOM     10  C   UNL     1       3.715   5.971  17.896  0.00  0.00    +0.000 A 
ATOM     11  C   UNL     1       3.013   7.163  18.104  0.00  0.00    +0.000 A 
ATOM     12  H   UNL     1       5.595   2.907  17.063  0.00  0.00    +0.000 HD
ENDROOT
BRANCH   8  13
ATOM     13  C   UNL     1       5.699   4.566  15.093  0.00  0.00    +0.000 A 
ATOM     14  C   UNL     1       6.981   5.093  14.926  0.00  0.00    +0.000 A 
ATOM     15  C   UNL     1       7.657   4.901  13.720  0.00  0.00    +0.000 A 
ATOM     16  C   UNL     1       7.052   4.193  12.680  0.00  0.00    +0.000 A 
ATOM     17  C   UNL     1       5.763   3.671  12.831  0.00  0.00    +0.000 A 
ATOM     18  C   UNL     1       5.082   2.932  11.717  0.00  0.00    +0.000 C 
ATOM     19  C   UNL     1       5.088   3.865  14.043  0.00  0.00    +0.000 A 
ENDBRANCH   8  13
BRANCH   1  21
ATOM     20  C   UNL     1       1.526   9.307  18.141  0.00  0.00    +0.000 C 
ATOM     21  O   UNL     1       1.638   8.570  19.354  0.00  0.00    +0.000 OA
ENDBRANCH   1  21
BRANCH   3  22
ATOM     22  O   UNL     1       2.643   4.323  21.107  0.00  0.00    +0.000 OA
ATOM     23  C   UNL     1       1.602   3.371  21.113  0.00  0.00    +0.000 C 
ENDBRANCH   3  22
TORSDOF 3
ENDMDL
MODEL 2
REMARK VINA RESULT:      -7.8      2.505      7.162
REMARK  Name = 
REMARK  6 active torsions:
REMARK  status: ('A' for Active; 'I' for Inactive)
REMARK    1  A    between atoms: C_1  and  O_2
REMARK    2  A    between atoms: O_2  and  C_3
REMARK    3  A    between atoms: C_5  and  O_6
REMARK    4  A    between atoms: O_6  and  C_7
REMARK    5  A    between atoms: C_12  and  C_13
REMARK    6  A    between atoms: C_17  and  C_18
REMARK                            x       y       z     vdW  Elec       q    Type
REMARK                         _______ _______ _______ _____ _____    ______ ____
ROOT
ATOM      1  C   UNL     1       5.187   5.523  16.446  0.00  0.00    +0.000 A 
ATOM      2  C   UNL     1       5.125   4.284  17.074  0.00  0.00    +0.000 A 
ATOM      3  C   UNL     1       4.291   4.046  18.190  0.00  0.00    +0.000 A 
ATOM      4  C   UNL     1       3.490   5.100  18.671  0.00  0.00    +0.000 A 
ATOM      5  C   UNL     1       2.504   5.047  19.783  0.00  0.00    +0.000 A 
ATOM      6  O   UNL     1       2.043   4.029  20.282  0.00  0.00    +0.000 OA
ATOM      7  N   UNL     1       2.026   6.246  20.241  0.00  0.00    +0.000 N 
ATOM      8  C   UNL     1       2.161   7.422  19.556  0.00  0.00    +0.000 A 
ATOM      9  N   UNL     1       2.872   7.511  18.485  0.00  0.00    +0.000 NA
ATOM     10  C   UNL     1       3.584   6.373  18.054  0.00  0.00    +0.000 A 
ATOM     11  C   UNL     1       4.429   6.565  16.956  0.00  0.00    +0.000 A 
ATOM     12  H   UNL     1       1.334   6.159  20.970  0.00  0.00    +0.000 HD
ENDROOT
BRANCH   8  13
ATOM     13  C   UNL     1       1.420   8.584  20.102  0.00  0.00    +0.000 A 
ATOM     14  C   UNL     1       1.182   9.694  19.289  0.00  0.00    +0.000 A 
ATOM     15  C   UNL     1       0.476  10.786  19.797  0.00  0.00    +0.000 A 
ATOM     16  C   UNL     1       0.017  10.774  21.116  0.00  0.00    +0.000 A 
ATOM     17  C   UNL     1       0.262   9.674  21.944  0.00  0.00    +0.000 A 
ATOM     18  C   UNL     1      -0.194   9.651  23.373  0.00  0.00    +0.000 C 
ATOM     19  C   UNL     1       0.970   8.580  21.430  0.00  0.00    +0.000 A 
ENDBRANCH   8  13
BRANCH   1  21
ATOM     20  C   UNL     1       6.712   4.750  14.812  0.00  0.00    +0.000 C 
ATOM     21  O   UNL     1       5.977   5.832  15.375  0.00  0.00    +0.000 OA
ENDBRANCH   1  21
BRANCH   3  22
ATOM     22  O   UNL     1       4.468   2.753  18.594  0.00  0.00    +0.000 OA
ATOM     23  C   UNL     1       3.589   1.708  18.241  0.00  0.00    +0.000 C 
ENDBRANCH   3  22
TORSDOF 3
ENDMDL
MODEL 3
REMARK VINA RESULT:      -7.6      1.210      1.345
REMARK  Name = 
REMARK  6 active torsions:
REMARK  status: ('A' for Active; 'I' for Inactive)
REMARK    1  A    between atoms: C_1  and  O_2
REMARK    2  A    between atoms: O_2  and  C_3
REMARK    3  A    between atoms: C_5  and  O_6
REMARK    4  A    between atoms: O_6  and  C_7
REMARK    5  A    between atoms: C_12  and  C_13
REMARK    6  A    between atoms: C_17  and  C_18
REMARK                            x       y       z     vdW  Elec       q    Type
REMARK                         _______ _______ _______ _____ _____    ______ ____
ROOT
ATOM      1  C   UNL     1       2.100   6.058  20.233  0.00  0.00    +0.000 A 
ATOM      2  C   UNL     1       1.690   4.798  20.655  0.00  0.00    +0.000 A 
ATOM      3  C   UNL     1       2.156   3.611  20.046  0.00  0.00    +0.000 A 
ATOM      4  C   UNL     1       3.075   3.714  18.984  0.00  0.00    +0.000 A 
ATOM      5  C   UNL     1       3.732   2.599  18.252  0.00  0.00    +0.000 A 
ATOM      6  O   UNL     1       3.785   1.433  18.621  0.00  0.00    +0.000 OA
ATOM      7  N   UNL     1       4.393   2.925  17.097  0.00  0.00    +0.000 N 
ATOM      8  C   UNL     1       4.731   4.206  16.757  0.00  0.00    +0.000 A 
ATOM      9  N   UNL     1       4.330   5.221  17.442  0.00  0.00    +0.000 NA
ATOM     10  C   UNL     1       3.461   5.000  18.530  0.00  0.00    +0.000 A 
ATOM     11  C   UNL     1       2.969   6.149  19.158  0.00  0.00    +0.000 A 
ATOM     12  H   UNL     1       4.853   2.143  16.654  0.00  0.00    +0.000 HD
ENDROOT
BRANCH   8  13
ATOM     13  C   UNL     1       5.606   4.358  15.571  0.00  0.00    +0.000 A 
ATOM     14  C   UNL     1       6.738   5.173  15.648  0.00  0.00    +0.000 A 
ATOM     15  C   UNL     1       7.570   5.310  14.537  0.00  0.00    +0.000 A 
ATOM     16  C   UNL     1       7.269   4.643  13.347  0.00  0.00    +0.000 A 
ATOM     17  C   UNL     1       6.131   3.835  13.254  0.00  0.00    +0.000 A 
ATOM     18  C   UNL     1       5.772   3.132  11.978  0.00  0.00    +0.000 C 
ATOM     19  C   UNL     1       5.299   3.699  14.373  0.00  0.00    +0.000 A 
ENDBRANCH   8  13
BRANCH   1  21
ATOM     20  C   UNL     1       1.673   8.355  19.867  0.00  0.00    +0.000 C 
ATOM     21  O   UNL     1       1.683   7.247  20.762  0.00  0.00    +0.000 OA
ENDBRANCH   1  21
BRANCH   3  22
ATOM     22  O   UNL     1       1.558   2.547  20.660  0.00  0.00    +0.000 OA
ATOM     23  C   UNL     1       1.333   2.487  22.052  0.00  0.00    +0.000 C 
ENDBRANCH   3  22
TORSDOF 3
ENDMDL
MODEL 4
REMARK VINA RESULT:      -7.6      2.603      7.209
REMARK  Name = 
REMARK  6 active torsions:
REMARK  status: ('A' for Active; 'I' for Inactive)
REMARK    1  A    between atoms: C_1  and  O_2
REMARK    2  A    between atoms: O_2  and  C_3
REMARK    3  A    between atoms: C_5  and  O_6
REMARK    4  A    between atoms: O_6  and  C_7
REMARK    5  A    between atoms: C_12  and  C_13
REMARK    6  A    between atoms: C_17  and  C_18
REMARK                            x       y       z     vdW  Elec       q    Type
REMARK                         _______ _______ _______ _____ _____    ______ ____
ROOT
ATOM      1  C   UNL     1       4.810   5.518  16.948  0.00  0.00    +0.000 A 
ATOM      2  C   UNL     1       4.809   4.303  17.623  0.00  0.00    +0.000 A 
ATOM      3  C   UNL     1       4.034   4.088  18.786  0.00  0.00    +0.000 A 
ATOM      4  C   UNL     1       3.230   5.140  19.265  0.00  0.00    +0.000 A 
ATOM      5  C   UNL     1       2.300   5.105  20.425  0.00  0.00    +0.000 A 
ATOM      6  O   UNL     1       1.888   4.097  20.982  0.00  0.00    +0.000 OA
ATOM      7  N   UNL     1       1.813   6.310  20.860  0.00  0.00    +0.000 N 
ATOM      8  C   UNL     1       1.885   7.462  20.127  0.00  0.00    +0.000 A 
ATOM      9  N   UNL     1       2.543   7.526  19.021  0.00  0.00    +0.000 NA
ATOM     10  C   UNL     1       3.263   6.390  18.598  0.00  0.00    +0.000 A 
ATOM     11  C   UNL     1       4.050   6.561  17.454  0.00  0.00    +0.000 A 
ATOM     12  H   UNL     1       1.158   6.234  21.625  0.00  0.00    +0.000 HD
ENDROOT
BRANCH   8  13
ATOM     13  C   UNL     1       1.142   8.626  20.665  0.00  0.00    +0.000 A 
ATOM     14  C   UNL     1       0.884   8.708  22.035  0.00  0.00    +0.000 A 
ATOM     15  C   UNL     1       0.194   9.808  22.545  0.00  0.00    +0.000 A 
ATOM     16  C   UNL     1      -0.247  10.820  21.689  0.00  0.00    +0.000 A 
ATOM     17  C   UNL     1      -0.006  10.742  20.313  0.00  0.00    +0.000 A 
ATOM     18  C   UNL     1      -0.495  11.802  19.371  0.00  0.00    +0.000 C 
ATOM     19  C   UNL     1       0.688   9.636  19.806  0.00  0.00    +0.000 A 
ENDBRANCH   8  13
BRANCH   1  21
ATOM     20  C   UNL     1       6.558   4.867  15.495  0.00  0.00    +0.000 C 
ATOM     21  O   UNL     1       5.540   5.805  15.830  0.00  0.00    +0.000 OA
ENDBRANCH   1  21
BRANCH   3  22
ATOM     22  O   UNL     1       4.263   2.816  19.228  0.00  0.00    +0.000 OA
ATOM     23  C   UNL     1       3.630   1.682  18.676  0.00  0.00    +0.000 C 
ENDBRANCH   3  22
TORSDOF 3
ENDMDL
MODEL 5
REMARK VINA RESULT:      -7.5      4.454      6.821
REMARK  Name = 
REMARK  6 active torsions:
REMARK  status: ('A' for Active; 'I' for Inactive)
REMARK    1  A    between atoms: C_1  and  O_2
REMARK    2  A    between atoms: O_2  and  C_3
REMARK    3  A    between atoms: C_5  and  O_6
REMARK    4  A    between atoms: O_6  and  C_7
REMARK    5  A    between atoms: C_12  and  C_13
REMARK    6  A    between atoms: C_17  and  C_18
REMARK                            x       y       z     vdW  Elec       q    Type
REMARK                         _______ _______ _______ _____ _____    ______ ____
ROOT
ATOM      1  C   UNL     1      -0.236  10.757  22.096  0.00  0.00    +0.000 A 
ATOM      2  C   UNL     1       0.002  11.594  21.012  0.00  0.00    +0.000 A 
ATOM      3  C   UNL     1       0.661  11.147  19.844  0.00  0.00    +0.000 A 
ATOM      4  C   UNL     1       1.077   9.803  19.778  0.00  0.00    +0.000 A 
ATOM      5  C   UNL     1       1.726   9.118  18.628  0.00  0.00    +0.000 A 
ATOM      6  O   UNL     1       1.763   9.531  17.477  0.00  0.00    +0.000 OA
ATOM      7  N   UNL     1       2.270   7.885  18.873  0.00  0.00    +0.000 N 
ATOM      8  C   UNL     1       1.991   7.146  19.989  0.00  0.00    +0.000 A 
ATOM      9  N   UNL     1       1.293   7.619  20.964  0.00  0.00    +0.000 NA
ATOM     10  C   UNL     1       0.869   8.961  20.899  0.00  0.00    +0.000 A 
ATOM     11  C   UNL     1       0.219   9.449  22.038  0.00  0.00    +0.000 A 
ATOM     12  H   UNL     1       2.667   7.444  18.057  0.00  0.00    +0.000 HD
ENDROOT
BRANCH   8  13
ATOM     13  C   UNL     1       2.515   5.759  20.002  0.00  0.00    +0.000 A 
ATOM     14  C   UNL     1       3.617   5.430  19.210  0.00  0.00    +0.000 A 
ATOM     15  C   UNL     1       4.119   4.128  19.229  0.00  0.00    +0.000 A 
ATOM     16  C   UNL     1       3.516   3.154  20.028  0.00  0.00    +0.000 A 
ATOM     17  C   UNL     1       2.404   3.469  20.815  0.00  0.00    +0.000 A 
ATOM     18  C   UNL     1       1.723   2.432  21.659  0.00  0.00    +0.000 C 
ATOM     19  C   UNL     1       1.904   4.777  20.795  0.00  0.00    +0.000 A 
ENDBRANCH   8  13
BRANCH   1  21
ATOM     20  C   UNL     1      -1.971  11.990  23.126  0.00  0.00    +0.000 C 
ATOM     21  O   UNL     1      -0.852  11.119  23.260  0.00  0.00    +0.000 OA
ENDBRANCH   1  21
BRANCH   3  22
ATOM     22  O   UNL     1       0.767  12.198  18.978  0.00  0.00    +0.000 OA
ATOM     23  C   UNL     1       1.975  12.893  18.755  0.00  0.00    +0.000 C 
ENDBRANCH   3  22
TORSDOF 3
ENDMDL
MODEL 6
REMARK VINA RESULT:      -7.5      1.339      3.118
REMARK  Name = 
REMARK  6 active torsions:
REMARK  status: ('A' for Active; 'I' for Inactive)
REMARK    1  A    between atoms: C_1  and  O_2
REMARK    2  A    between atoms: O_2  and  C_3
REMARK    3  A    between atoms: C_5  and  O_6
REMARK    4  A    between atoms: O_6  and  C_7
REMARK    5  A    between atoms: C_12  and  C_13
REMARK    6  A    between atoms: C_17  and  C_18
REMARK                            x       y       z     vdW  Elec       q    Type
REMARK                         _______ _______ _______ _____ _____    ______ ____
ROOT
ATOM      1  C   UNL     1       2.836   3.488  19.853  0.00  0.00    +0.000 A 
ATOM      2  C   UNL     1       2.623   4.802  20.256  0.00  0.00    +0.000 A 
ATOM      3  C   UNL     1       3.017   5.906  19.466  0.00  0.00    +0.000 A 
ATOM      4  C   UNL     1       3.637   5.660  18.225  0.00  0.00    +0.000 A 
ATOM      5  C   UNL     1       4.070   6.668  17.220  0.00  0.00    +0.000 A 
ATOM      6  O   UNL     1       3.724   7.841  17.189  0.00  0.00    +0.000 OA
ATOM      7  N   UNL     1       4.872   6.219  16.205  0.00  0.00    +0.000 N 
ATOM      8  C   UNL     1       5.036   4.896  15.902  0.00  0.00    +0.000 A 
ATOM      9  N   UNL     1       4.549   3.961  16.642  0.00  0.00    +0.000 NA
ATOM     10  C   UNL     1       3.888   4.321  17.834  0.00  0.00    +0.000 A 
ATOM     11  C   UNL     1       3.486   3.259  18.651  0.00  0.00    +0.000 A 
ATOM     12  H   UNL     1       5.111   6.929  15.528  0.00  0.00    +0.000 HD
ENDROOT
BRANCH   8  13
ATOM     13  C   UNL     1       5.786   4.599  14.658  0.00  0.00    +0.000 A 
ATOM     14  C   UNL     1       7.022   5.209  14.434  0.00  0.00    +0.000 A 
ATOM     15  C   UNL     1       7.734   4.923  13.268  0.00  0.00    +0.000 A 
ATOM     16  C   UNL     1       7.210   4.037  12.324  0.00  0.00    +0.000 A 
ATOM     17  C   UNL     1       5.967   3.431  12.531  0.00  0.00    +0.000 A 
ATOM     18  C   UNL     1       5.371   2.499  11.517  0.00  0.00    +0.000 C 
ATOM     19  C   UNL     1       5.256   3.720  13.703  0.00  0.00    +0.000 A 
ENDBRANCH   8  13
BRANCH   1  21
ATOM     20  C   UNL     1       1.534   2.566  21.598  0.00  0.00    +0.000 C 
ATOM     21  O   UNL     1       2.496   2.374  20.566  0.00  0.00    +0.000 OA
ENDBRANCH   1  21
BRANCH   3  22
ATOM     22  O   UNL     1       2.699   7.053  20.136  0.00  0.00    +0.000 OA
ATOM     23  C   UNL     1       1.448   7.262  20.755  0.00  0.00    +0.000 C 
ENDBRANCH   3  22
TORSDOF 3
ENDMDL
MODEL 7
REMARK VINA RESULT:      -7.4      0.477      1.499
REMARK  Name = 
REMARK  6 active torsions:
REMARK  status: ('A' for Active; 'I' for Inactive)
REMARK    1  A    between atoms: C_1  and  O_2
REMARK    2  A    between atoms: O_2  and  C_3
REMARK    3  A    between atoms: C_5  and  O_6
REMARK    4  A    between atoms: O_6  and  C_7
REMARK    5  A    between atoms: C_12  and  C_13
REMARK    6  A    between atoms: C_17  and  C_18
REMARK                            x       y       z     vdW  Elec       q    Type
REMARK                         _______ _______ _______ _____ _____    ______ ____
ROOT
ATOM      1  C   UNL     1       2.422   7.446  19.005  0.00  0.00    +0.000 A 
ATOM      2  C   UNL     1       2.385   6.446  19.971  0.00  0.00    +0.000 A 
ATOM      3  C   UNL     1       3.078   5.224  19.817  0.00  0.00    +0.000 A 
ATOM      4  C   UNL     1       3.838   5.022  18.649  0.00  0.00    +0.000 A 
ATOM      5  C   UNL     1       4.684   3.845  18.318  0.00  0.00    +0.000 A 
ATOM      6  O   UNL     1       5.064   2.992  19.110  0.00  0.00    +0.000 OA
ATOM      7  N   UNL     1       5.130   3.750  17.026  0.00  0.00    +0.000 N 
ATOM      8  C   UNL     1       5.100   4.790  16.140  0.00  0.00    +0.000 A 
ATOM      9  N   UNL     1       4.521   5.907  16.418  0.00  0.00    +0.000 NA
ATOM     10  C   UNL     1       3.842   6.026  17.648  0.00  0.00    +0.000 A 
ATOM     11  C   UNL     1       3.135   7.218  17.840  0.00  0.00    +0.000 A 
ATOM     12  H   UNL     1       5.730   2.956  16.858  0.00  0.00    +0.000 HD
ENDROOT
BRANCH   8  13
ATOM     13  C   UNL     1       5.794   4.570  14.849  0.00  0.00    +0.000 A 
ATOM     14  C   UNL     1       5.297   3.623  13.951  0.00  0.00    +0.000 A 
ATOM     15  C   UNL     1       5.943   3.420  12.730  0.00  0.00    +0.000 A 
ATOM     16  C   UNL     1       7.088   4.153  12.411  0.00  0.00    +0.000 A 
ATOM     17  C   UNL     1       7.603   5.095  13.308  0.00  0.00    +0.000 A 
ATOM     18  C   UNL     1       8.847   5.873  12.999  0.00  0.00    +0.000 C 
ATOM     19  C   UNL     1       6.950   5.296  14.532  0.00  0.00    +0.000 A 
ENDBRANCH   8  13
BRANCH   1  21
ATOM     20  C   UNL     1       1.814   9.448  17.902  0.00  0.00    +0.000 C 
ATOM     21  O   UNL     1       1.769   8.644  19.077  0.00  0.00    +0.000 OA
ENDBRANCH   1  21
BRANCH   3  22
ATOM     22  O   UNL     1       2.828   4.445  20.911  0.00  0.00    +0.000 OA
ATOM     23  C   UNL     1       1.895   3.386  20.906  0.00  0.00    +0.000 C 
ENDBRANCH   3  22
TORSDOF 3
ENDMDL
MODEL 8
REMARK VINA RESULT:      -7.2      3.801      6.484
REMARK  Name = 
REMARK  6 active torsions:
REMARK  status: ('A' for Active; 'I' for Inactive)
REMARK    1  A    between atoms: C_1  and  O_2
REMARK    2  A    between atoms: O_2  and  C_3
REMARK    3  A    between atoms: C_5  and  O_6
REMARK    4  A    between atoms: O_6  and  C_7
REMARK    5  A    between atoms: C_12  and  C_13
REMARK    6  A    between atoms: C_17  and  C_18
REMARK                            x       y       z     vdW  Elec       q    Type
REMARK                         _______ _______ _______ _____ _____    ______ ____
ROOT
ATOM      1  C   UNL     1      -0.127  10.613  22.096  0.00  0.00    +0.000 A 
ATOM      2  C   UNL     1       0.163  11.467  21.039  0.00  0.00    +0.000 A 
ATOM      3  C   UNL     1       0.808  11.019  19.863  0.00  0.00    +0.000 A 
ATOM      4  C   UNL     1       1.155   9.659  19.762  0.00  0.00    +0.000 A 
ATOM      5  C   UNL     1       1.778   8.973  18.597  0.00  0.00    +0.000 A 
ATOM      6  O   UNL     1       1.845   9.416  17.459  0.00  0.00    +0.000 OA
ATOM      7  N   UNL     1       2.256   7.707  18.811  0.00  0.00    +0.000 N 
ATOM      8  C   UNL     1       1.930   6.953  19.904  0.00  0.00    +0.000 A 
ATOM      9  N   UNL     1       1.249   7.434  20.887  0.00  0.00    +0.000 NA
ATOM     10  C   UNL     1       0.894   8.798  20.857  0.00  0.00    +0.000 A 
ATOM     11  C   UNL     1       0.261   9.286  22.004  0.00  0.00    +0.000 A 
ATOM     12  H   UNL     1       2.636   7.269  17.985  0.00  0.00    +0.000 HD
ENDROOT
BRANCH   8  13
ATOM     13  C   UNL     1       2.381   5.541  19.881  0.00  0.00    +0.000 A 
ATOM     14  C   UNL     1       2.169   4.731  20.999  0.00  0.00    +0.000 A 
ATOM     15  C   UNL     1       2.584   3.398  20.976  0.00  0.00    +0.000 A 
ATOM     16  C   UNL     1       3.218   2.878  19.846  0.00  0.00    +0.000 A 
ATOM     17  C   UNL     1       3.448   3.685  18.726  0.00  0.00    +0.000 A 
ATOM     18  C   UNL     1       4.153   3.156  17.512  0.00  0.00    +0.000 C 
ATOM     19  C   UNL     1       3.029   5.021  18.752  0.00  0.00    +0.000 A 
ENDBRANCH   8  13
BRANCH   1  21
ATOM     20  C   UNL     1      -1.891  11.794  23.139  0.00  0.00    +0.000 C 
ATOM     21  O   UNL     1      -0.733  10.975  23.266  0.00  0.00    +0.000 OA
ENDBRANCH   1  21
BRANCH   3  22
ATOM     22  O   UNL     1       0.975  12.088  19.028  0.00  0.00    +0.000 OA
ATOM     23  C   UNL     1       2.217  12.731  18.840  0.00  0.00    +0.000 C 
ENDBRANCH   3  22
TORSDOF 3
ENDMDL
MODEL 9
REMARK VINA RESULT:      -7.2      3.251      8.243
REMARK  Name = 
REMARK  6 active torsions:
REMARK  status: ('A' for Active; 'I' for Inactive)
REMARK    1  A    between atoms: C_1  and  O_2
REMARK    2  A    between atoms: O_2  and  C_3
REMARK    3  A    between atoms: C_5  and  O_6
REMARK    4  A    between atoms: O_6  and  C_7
REMARK    5  A    between atoms: C_12  and  C_13
REMARK    6  A    between atoms: C_17  and  C_18
REMARK                            x       y       z     vdW  Elec       q    Type
REMARK                         _______ _______ _______ _____ _____    ______ ____
ROOT
ATOM      1  C   UNL     1       2.842   4.053  20.274  0.00  0.00    +0.000 A 
ATOM      2  C   UNL     1       3.374   4.280  19.009  0.00  0.00    +0.000 A 
ATOM      3  C   UNL     1       3.265   5.530  18.360  0.00  0.00    +0.000 A 
ATOM      4  C   UNL     1       2.605   6.581  19.025  0.00  0.00    +0.000 A 
ATOM      5  C   UNL     1       2.435   7.981  18.551  0.00  0.00    +0.000 A 
ATOM      6  O   UNL     1       3.060   8.508  17.641  0.00  0.00    +0.000 OA
ATOM      7  N   UNL     1       1.547   8.762  19.242  0.00  0.00    +0.000 N 
ATOM      8  C   UNL     1       1.059   8.437  20.477  0.00  0.00    +0.000 A 
ATOM      9  N   UNL     1       1.299   7.296  21.027  0.00  0.00    +0.000 NA
ATOM     10  C   UNL     1       2.029   6.337  20.297  0.00  0.00    +0.000 A 
ATOM     11  C   UNL     1       2.155   5.081  20.900  0.00  0.00    +0.000 A 
ATOM     12  H   UNL     1       1.491   9.712  18.907  0.00  0.00    +0.000 HD
ENDROOT
BRANCH   8  13
ATOM     13  C   UNL     1       0.260   9.481  21.159  0.00  0.00    +0.000 A 
ATOM     14  C   UNL     1      -0.061   9.333  22.510  0.00  0.00    +0.000 A 
ATOM     15  C   UNL     1      -0.805  10.320  23.158  0.00  0.00    +0.000 A 
ATOM     16  C   UNL     1      -1.237  11.449  22.457  0.00  0.00    +0.000 A 
ATOM     17  C   UNL     1      -0.933  11.602  21.100  0.00  0.00    +0.000 A 
ATOM     18  C   UNL     1      -1.410  12.791  20.320  0.00  0.00    +0.000 C 
ATOM     19  C   UNL     1      -0.185  10.609  20.455  0.00  0.00    +0.000 A 
ENDBRANCH   8  13
BRANCH   1  21
ATOM     20  C   UNL     1       1.705   2.498  21.646  0.00  0.00    +0.000 C 
ATOM     21  O   UNL     1       2.895   2.872  20.958  0.00  0.00    +0.000 OA
ENDBRANCH   1  21
BRANCH   3  22
ATOM     22  O   UNL     1       3.858   5.432  17.132  0.00  0.00    +0.000 OA
ATOM     23  C   UNL     1       4.545   4.278  16.698  0.00  0.00    +0.000 C 
ENDBRANCH   3  22
TORSDOF 3
ENDMDL
